data_mof_unit_43680.cif
_audit_creation_date              2012-12-10T22:11:16-0500
_audit_creation_method            fapswitch 2.2
_symmetry_space_group_name_H-M    P1
_symmetry_Int_Tables_number       1
_space_group_crystal_system       triclinic
_cell_length_a                    12.115728
_cell_length_b                    12.322945
_cell_length_c                    22.971281
_cell_angle_alpha                 90.929577
_cell_angle_beta                  90.309058
_cell_angle_gamma                 91.226224
_cell_volume                      3428.35233178

loop_
_atom_site_label
_atom_site_type_symbol
_atom_type_description
_atom_site_fract_x
_atom_site_fract_y
_atom_site_fract_z
_atom_type_partial_charge
C1    C     C_R   0.658473 0.998717 0.578367 0.876309
C2    C     C_R   0.341527 0.001283 0.421633 0.876309
C3    C     C_R   0.895074 0.781177 0.144325 -0.206270
C4    C     C_R   0.104926 0.218821 0.855676 -0.206270
C5    C     C_R   0.096570 0.885961 0.174666 0.558480
C6    C     C_R   0.903430 0.114041 0.825333 0.558479
C7    C     C_R   0.091481 0.806619 0.130584 -0.314427
C8    C     C_R   0.908518 0.193384 0.869415 -0.314426
C9    C     C_R   0.906599 0.128923 0.176816 -0.248732
C10   C     C_R   0.093401 0.871076 0.823184 -0.248730
C11   C     C_R   0.904206 0.209657 0.136174 -0.207247
C12   C     C_R   0.095794 0.790342 0.863825 -0.207247
C13   C     C_R   0.140449 0.906705 0.307446 -0.132054
C14   C     C_R   0.859554 0.093296 0.692552 -0.132056
C15   C     C_R   0.222885 0.905529 0.349235 -0.223547
C16   C     C_R   0.777119 0.094472 0.650763 -0.223547
C17   C     C_R   0.843684 0.102643 0.304532 -0.189268
C18   C     C_R   0.156314 0.897356 0.695467 -0.189266
C19   C     C_R   0.763717 0.100775 0.347267 -0.194618
C20   C     C_R   0.236281 0.899225 0.652732 -0.194617
C21   C     C_3   0.997731 0.008612 0.248336 -0.091912
C22   C     C_3   0.002269 0.991388 0.751664 -0.091912
C23   C     C_R   0.653983 0.001936 0.420196 0.865756
C24   C     C_R   0.346017 0.998064 0.579804 0.865757
C25   C     C_R   0.089281 0.004654 0.293695 0.275030
C26   C     C_R   0.910719 0.995345 0.706305 0.275033
C27   C     C_R   0.251848 0.001002 0.379839 -0.033729
C28   C     C_R   0.748152 0.998998 0.620161 -0.033730
C29   C     C_R   0.895740 0.006256 0.287149 0.082455
C30   C     C_R   0.104260 0.993744 0.712851 0.082455
C31   C     C_R   0.735749 0.003249 0.374383 -0.024188
C32   C     C_R   0.264251 0.996751 0.625617 -0.024189
C33   C     C_R   0.003036 0.108753 0.209426 0.028441
C34   C     C_R   0.996963 0.891247 0.790574 0.028438
C35   C     C_R   0.998450 0.272743 0.126531 -0.080294
C36   C     C_R   0.001550 0.727257 0.873469 -0.080294
C37   C     C_R   0.998074 0.913523 0.204236 0.015137
C38   C     C_R   0.001926 0.086477 0.795764 0.015137
C39   C     C_R   0.992383 0.751916 0.116990 -0.086007
C40   C     C_R   0.007617 0.248084 0.883010 -0.086008
C41   C     C_R   0.992959 0.663200 0.074781 0.901069
C42   C     C_R   0.007041 0.336800 0.925219 0.901069
C43   C     C_R   0.998625 0.353520 0.081515 0.903922
C44   C     C_R   0.001375 0.646480 0.918485 0.903922
C45   C     C_R   0.110417 0.096683 0.329615 -0.077925
C46   C     C_R   0.889581 0.903316 0.670386 -0.077926
C47   C     C_R   0.193173 0.095801 0.371146 -0.189882
C48   C     C_R   0.806825 0.904198 0.628855 -0.189882
C49   C     C_R   0.867280 0.908948 0.315454 -0.171766
C50   C     C_R   0.132721 0.091052 0.684547 -0.171766
C51   C     C_R   0.787042 0.907169 0.357907 -0.196741
C52   C     C_R   0.212960 0.092831 0.642094 -0.196742
C53   C     C_R   0.101393 0.170865 0.197838 0.596960
C54   C     C_R   0.898606 0.829137 0.802163 0.596955
C55   C     C_R   0.094748 0.256150 0.158354 -0.345313
C56   C     C_R   0.905251 0.743851 0.841647 -0.345313
C57   C     C_R   0.897389 0.862601 0.186385 -0.258895
C58   C     C_R   0.102611 0.137397 0.813616 -0.258893
H1    H     H_    0.211202 0.169249 0.396276 0.152434
H2    H     H_    0.788794 0.830749 0.603727 0.152435
H3    H     H_    0.909606 0.834422 0.305627 0.135225
H4    H     H_    0.090397 0.165579 0.694375 0.135225
H5    H     H_    0.818874 0.886244 0.204120 0.165561
H6    H     H_    0.181126 0.113752 0.795882 0.165560
H7    H     H_    0.832072 0.080275 0.182311 0.166665
H8    H     H_    0.167929 0.919723 0.817688 0.166664
H9    H     H_    0.117701 0.830787 0.285905 0.111364
H10   H     H_    0.882305 0.169214 0.714092 0.111362
H11   H     H_    0.867665 0.180712 0.287268 0.139455
H12   H     H_    0.132332 0.819287 0.712730 0.139454
H13   H     H_    0.767563 0.831101 0.378896 0.155027
H14   H     H_    0.232440 0.168899 0.621105 0.155028
H15   H     H_    0.165367 0.309395 0.151480 0.161032
H16   H     H_    0.834632 0.690607 0.848521 0.161033
H17   H     H_    0.816962 0.741649 0.133053 0.165723
H18   H     H_    0.183038 0.258347 0.866949 0.165724
H19   H     H_    0.165187 0.788124 0.106331 0.168596
H20   H     H_    0.834811 0.211880 0.893667 0.168597
H21   H     H_    0.829010 0.221068 0.111493 0.167192
H22   H     H_    0.170991 0.778931 0.888505 0.167192
H23   H     H_    0.264367 0.830143 0.357165 0.156129
H24   H     H_    0.735639 0.169859 0.642832 0.156129
H25   H     H_    0.725490 0.176215 0.359838 0.155718
H26   H     H_    0.274506 0.823784 0.640160 0.155719
H27   H     H_    0.065980 0.170976 0.323523 0.115497
H28   H     H_    0.934016 0.829021 0.676479 0.115496
O1    O     O_R   0.621380 0.090460 0.561410 -0.629480
O2    O     O_R   0.378620 0.909540 0.438590 -0.629479
O3    O     O_R   0.617150 0.909540 0.438590 -0.631464
O4    O     O_R   0.382850 0.090460 0.561410 -0.631464
O5    O     O_R   0.619720 0.093230 0.440890 -0.627764
O6    O     O_R   0.380280 0.906770 0.559110 -0.627765
O7    O     O_R   0.618800 0.906770 0.559110 -0.628091
O8    O     O_R   0.381200 0.093230 0.440890 -0.628091
O9    O     O_R   0.087590 0.627480 0.058790 -0.635103
O10   O     O_R   0.912410 0.372520 0.941210 -0.635103
O11   O     O_R   0.905660 0.383870 0.059980 -0.632897
O12   O     O_R   0.094340 0.616130 0.940020 -0.632897
O13   O     O_R   0.092570 0.390420 0.063230 -0.630226
O14   O     O_R   0.907430 0.609580 0.936770 -0.630226
O15   O     O_R   0.900680 0.620930 0.055550 -0.628917
O16   O     O_R   0.099320 0.379070 0.944450 -0.628916
Zn1   Zn    Zn3+2 0.501730 0.123520 0.501540 0.936347
Zn2   Zn    Zn3+2 0.498270 0.876480 0.498460 0.936347
Zn3   Zn    Zn3+2 0.125690 0.504390 0.002180 0.925448
Zn4   Zn    Zn3+2 0.874310 0.495610 0.997820 0.925447
O17   O     O_3   0.199648 0.149801 0.227153 -0.594564
C59   C     C_3   0.295565 0.170697 0.194064 -0.236593
H29   H     H_    0.319778 0.258026 0.197148 0.132629
H30   H     H_    0.285830 0.143110 0.147873 0.173073
H31   H     H_    0.364378 0.124763 0.213041 0.186040
O18   O     O_3   0.800350 0.850202 0.772849 -0.594562
C60   C     C_3   0.704434 0.829308 0.805939 -0.236591
H32   H     H_    0.714171 0.856894 0.852129 0.173072
H33   H     H_    0.680219 0.741979 0.802854 0.132628
H34   H     H_    0.635622 0.875243 0.786962 0.186042
O19   O     O_3   0.193912 0.944142 0.186469 -0.586329
C61   C     C_3   0.286722 0.876657 0.188988 -0.347592
H35   H     H_    0.322984 0.866383 0.145010 0.162662
H36   H     H_    0.267508 0.796274 0.208501 0.147131
H37   H     H_    0.350426 0.917219 0.217092 0.199331
O20   O     O_3   0.806086 0.055863 0.813529 -0.586327
C62   C     C_3   0.713279 0.123350 0.811006 -0.347587
H38   H     H_    0.732496 0.203731 0.791492 0.147130
H39   H     H_    0.677014 0.133630 0.854984 0.162660
H40   H     H_    0.649575 0.082788 0.782903 0.199331

loop_
_geom_bond_atom_site_label_1
_geom_bond_atom_site_label_2
_ccdc_geom_bond_type
C16   C28   A    
C9    C33   A    
C17   H11   S    
C5    C37   A    
C17   C29   A    
C19   C31   A    
C62   H38   S    
C39   C41   S    
C29   C49   A    
O12   Zn3   S    
C42   O10   A    
C43   O13   A    
C13   H9    S    
C62   H39   S    
C21   C33   S    
C22   C38   S    
C24   O6    A    
C59   H29   S    
O16   Zn3   S    
C45   C47   A    
C1    O1    A    
C61   H35   S    
C32   C52   A    
C21   C25   S    
O9    Zn3   S    
C38   C58   A    
C44   O12   A    
C11   C35   A    
C4    C40   A    
C59   H30   S    
C49   C51   A    
C1    C28   S    
C50   C52   A    
O17   C59   S    
C6    C38   A    
C2    O2    A    
C2    C27   S    
C18   C30   A    
C12   C36   A    
C3    H17   S    
C18   C20   A    
C7    H19   S    
C60   H34   S    
C10   H8    S    
C30   C50   A    
C3    C39   A    
C8    H20   S    
C13   C25   A    
C51   H13   S    
C19   H25   S    
C42   O16   A    
O7    Zn2   S    
C16   H24   S    
O18   C60   S    
O2    Zn2   S    
C48   H2    S    
C10   C12   A    
C53   C55   A    
C33   C53   A    
C22   C34   S    
C46   C48   A    
C56   H16   S    
C35   C55   A    
C2    O8    A    
C49   H3    S    
C15   H23   S    
C31   C51   A    
C5    C7    A    
O6    Zn2   S    
C62   H40   S    
C6    C8    A    
C58   H6    S    
C21   C29   S    
C5    O19   S    
C61   H37   S    
C23   C31   S    
C45   H27   S    
C24   C32   S    
C52   H14   S    
C53   O17   S    
C15   C27   A    
C9    H7    S    
C23   O3    A    
C54   O18   S    
C10   C34   A    
C14   C26   A    
C9    C11   A    
C11   H21   S    
O1    Zn1   S    
O11   Zn4   S    
C3    C57   A    
O8    Zn1   S    
C34   C54   A    
C13   C15   A    
O3    Zn2   S    
C50   H4    S    
C14   C16   A    
C36   C44   S    
C6    O20   S    
C25   C45   A    
C35   C43   S    
C60   H32   S    
C20   C32   A    
C27   C47   A    
O15   Zn4   S    
O10   Zn4   S    
C28   C48   A    
C7    C39   A    
C22   C30   S    
C43   O11   A    
C57   H5    S    
O5    Zn1   S    
C24   O4    A    
C54   C56   A    
O14   Zn4   S    
C18   H12   S    
C59   H31   S    
C20   H26   S    
O19   C61   S    
C44   O14   A    
C41   O9    A    
C12   H22   S    
C40   C42   S    
C36   C56   A    
C17   C19   A    
C41   O15   A    
C23   O5    A    
O13   Zn3   S    
C61   H36   S    
O4    Zn1   S    
C4    H18   S    
C26   C46   A    
C47   H1    S    
C55   H15   S    
C21   C37   S    
C1    O7    A    
C22   C26   S    
C4    C58   A    
C14   H10   S    
C8    C40   A    
C60   H33   S    
O20   C62   S    
C37   C57   A    
C46   H28   S    
