data_mof_unit_41640.cif
_audit_creation_date              2012-12-10T17:31:05-0500
_audit_creation_method            fapswitch 2.2
_symmetry_space_group_name_H-M    P1
_symmetry_Int_Tables_number       1
_space_group_crystal_system       triclinic
_cell_length_a                    11.987821
_cell_length_b                    12.902015
_cell_length_c                    15.472172
_cell_angle_alpha                 87.189395
_cell_angle_beta                  115.616012
_cell_angle_gamma                 93.339642
_cell_volume                      2153.40721034

loop_
_atom_site_label
_atom_site_type_symbol
_atom_type_description
_atom_site_fract_x
_atom_site_fract_y
_atom_site_fract_z
_atom_type_partial_charge
C1    C     C_R   0.477575 0.299418 0.498955 0.882866
C2    C     C_R   0.657924 0.969984 0.515799 -0.214580
C3    C     C_R   0.352411 0.137361 0.486281 -0.196317
C4    C     C_R   0.647516 0.862669 0.513553 -0.195570
C5    C     C_R   0.566032 0.132268 0.508583 -0.271439
C6    C     C_R   0.433881 0.867759 0.491217 -0.270768
C7    C     C_R   0.556401 0.025731 0.506126 0.183542
C8    C     C_R   0.443496 0.974302 0.493637 0.183952
C9    C     C_R   0.999439 0.593068 0.405137 -0.328352
C10   C     C_R   0.000652 0.407012 0.595023 -0.331778
C11   C     C_R   0.121080 0.584978 0.415221 0.065499
C12   C     C_R   0.522412 0.700586 0.501016 0.886593
C13   C     C_R   0.878962 0.415094 0.584873 0.063766
C14   C     C_R   0.163147 0.460853 0.542331 -0.051506
C15   C     C_R   0.836893 0.539118 0.457697 -0.055765
C16   C     C_R   0.576118 0.492489 0.680611 0.921243
C17   C     C_R   0.423235 0.502997 0.319301 0.916686
C18   C     C_R   0.041491 0.466485 0.534882 0.089677
C19   C     C_R   0.958570 0.533500 0.465202 0.085481
C20   C     C_R   0.620414 0.472048 0.783796 -0.191759
C21   C     C_R   0.374465 0.488143 0.215949 -0.192738
C22   C     C_R   0.780358 0.435323 0.942743 -0.273771
C23   C     C_R   0.638773 0.412571 0.112586 -0.234003
C24   C     C_R   0.208243 0.454657 0.059064 -0.274833
C25   C     C_R   0.745678 0.458136 0.845652 0.618929
C26   C     C_R   0.247221 0.478032 0.155259 0.621941
C27   C     C_R   0.531371 0.459853 0.819329 -0.351117
C28   C     C_R   0.460510 0.473878 0.179762 -0.347316
C29   C     C_R   0.563434 0.433609 0.915250 0.095035
C30   C     C_R   0.423731 0.444107 0.085804 0.095345
C31   C     C_R   0.690496 0.425288 0.978303 0.077601
C32   C     C_R   0.295639 0.438843 0.023665 0.077820
C33   C     C_R   0.472659 0.424082 0.950987 0.094552
C34   C     C_R   0.344081 0.414513 0.890391 -0.231443
C35   C     C_R   0.512172 0.426474 0.050985 0.091254
C36   C     C_R   0.726153 0.409960 0.076235 -0.181794
C37   C     C_R   0.257049 0.419797 0.926887 -0.180743
C38   C     C_R   0.535580 0.811885 0.501656 -0.053804
C39   C     C_R   0.464362 0.188136 0.498215 -0.051837
C40   C     C_R   0.341976 0.030050 0.483972 -0.214793
F1    F     F_    0.160943 0.490565 0.188310 -0.673527
F2    F     F_    0.834437 0.467958 0.813124 -0.678384
H1    H     H_    0.822562 0.400727 0.125376 0.173966
H2    H     H_    0.109994 0.449190 0.012250 0.182327
H3    H     H_    0.672213 0.401473 0.189214 0.152450
H4    H     H_    0.308428 0.400528 0.814692 0.139451
H5    H     H_    0.346795 0.828673 0.481511 0.161856
H6    H     H_    0.653122 0.171352 0.518298 0.161533
H7    H     H_    0.726583 0.819715 0.521600 0.166523
H8    H     H_    0.273361 0.180318 0.478269 0.166118
H9    H     H_    0.255128 0.990845 0.474487 0.141577
H10   H     H_    0.744767 0.009192 0.525277 0.141313
H11   H     H_    0.772463 0.590821 0.404741 0.126312
H12   H     H_    0.159370 0.413075 0.878526 0.173419
H13   H     H_    0.227591 0.409140 0.595281 0.120282
H14   H     H_    0.848374 0.369370 0.631717 0.153867
H15   H     H_    0.151681 0.630772 0.368423 0.148621
H16   H     H_    0.937901 0.645332 0.350698 0.151058
H17   H     H_    0.062253 0.354878 0.649590 0.143262
H18   H     H_    0.557269 0.488836 0.225626 0.185028
H19   H     H_    0.436679 0.475305 0.771642 0.187115
H20   H     H_    0.877517 0.427410 0.990406 0.178208
N1    N     N_R   0.799120 0.480200 0.517090 -0.100585
N2    N     N_R   0.200880 0.519800 0.482910 -0.099460
O1    O     O_R   0.580150 0.341050 0.504560 -0.632245
O2    O     O_R   0.419850 0.658950 0.495440 -0.630832
O3    O     O_R   0.388090 0.353760 0.493600 -0.623891
O4    O     O_R   0.611910 0.646240 0.506400 -0.622980
O5    O     O_R   0.650890 0.490020 0.640860 -0.556221
O6    O     O_R   0.349110 0.509980 0.359140 -0.556464
O7    O     O_R   0.458830 0.502730 0.629890 -0.635837
O8    O     O_R   0.541170 0.497270 0.370110 -0.636718
Zn1   Zn    Zn3+2 0.628240 0.491510 0.507320 0.967649
Zn2   Zn    Zn3+2 0.371760 0.508490 0.492680 0.969454

loop_
_geom_bond_atom_site_label_1
_geom_bond_atom_site_label_2
_ccdc_geom_bond_type
C21   C26   A    
C23   H3    S    
C27   C29   A    
C34   C37   A    
C14   C18   A    
C2    C7    A    
C7    C8    A    
C15   C19   A    
C12   O4    A    
C30   C35   A    
C15   H11   S    
C24   C26   A    
C18   C19   A    
C20   C25   A    
O2    Zn2   S    
C29   C33   A    
O1    Zn1   S    
C9    H16   S    
C27   H19   S    
C1    O3    A    
C9    C19   A    
C22   C25   A    
O6    Zn2   S    
C1    O1    A    
C6    C38   A    
O5    Zn1   S    
C34   H4    S    
C13   H14   S    
C14   H13   S    
C3    C39   A    
C17   O6    A    
C16   O7    A    
C3    H8    S    
C28   H18   S    
C5    H6    S    
C6    H5    S    
C11   N2    A    
C22   C31   A    
C5    C7    A    
C6    C8    A    
N1    Zn1   S    
O4    Zn1   S    
C12   O2    A    
C17   C21   S    
C2    C4    A    
C24   C32   A    
C22   H20   S    
C13   N1    A    
C16   C20   S    
C14   N2    A    
C33   C34   A    
O3    Zn2   S    
C32   C37   A    
C9    C11   A    
C2    H10   S    
C37   H12   S    
C21   C28   A    
C4    C38   A    
C3    C40   A    
C23   C35   A    
C5    C39   A    
C24   H2    S    
N2    Zn2   S    
C16   O5    A    
O8    Zn1   S    
C10   C13   A    
C25   F2    S    
O7    Zn2   S    
C20   C27   A    
C40   H9    S    
C4    H7    S    
C28   C30   A    
C10   H17   S    
C29   C31   A    
C30   C32   A    
C10   C18   A    
C33   C35   A    
C12   C38   S    
C1    C39   S    
C17   O8    A    
C23   C36   A    
C15   N1    A    
C31   C36   A    
C36   H1    S    
C8    C40   A    
C11   H15   S    
C26   F1    S    
