data_mof_unit_56034.cif
_audit_creation_date              2013-03-05T15:44:34-0500
_audit_creation_method            fapswitch 2.2
_symmetry_space_group_name_H-M    P1
_symmetry_Int_Tables_number       1
_space_group_crystal_system       triclinic
_cell_length_a                    19.029312
_cell_length_b                    10.907132
_cell_length_c                    18.85241
_cell_angle_alpha                 89.776493
_cell_angle_beta                  89.610617
_cell_angle_gamma                 89.879538
_cell_volume                      3912.78750136

loop_
_atom_site_label
_atom_site_type_symbol
_atom_site_description
_atom_site_fract_x
_atom_site_fract_y
_atom_site_fract_z
_atom_type_partial_charge
O1    O     O_R   0.787540 0.042690 0.170470 -0.389078
O2    O     O_R   0.212460 0.042690 0.829530 -0.400051
O3    O     O_R   0.287540 0.542690 0.170470 -0.389044
O4    O     O_R   0.712460 0.542690 0.829530 -0.401213
O5    O     O_R   0.765660 0.292160 0.175050 -0.429766
O6    O     O_R   0.234340 0.292160 0.824950 -0.437440
O7    O     O_R   0.265660 0.792160 0.175050 -0.429685
O8    O     O_R   0.734340 0.792160 0.824950 -0.438628
C1    C     C_R   0.729565 0.375710 0.145363 0.646328
C2    C     C_R   0.269673 0.376156 0.854165 0.593726
C3    C     C_R   0.229564 0.875705 0.145361 0.645607
C4    C     C_R   0.769673 0.876157 0.854165 0.594529
O9    O     O_R   0.670190 0.408980 0.168550 -0.494329
O10   O     O_R   0.329810 0.408980 0.831450 -0.458513
O11   O     O_R   0.170190 0.908980 0.168550 -0.494403
O12   O     O_R   0.829810 0.908980 0.831450 -0.458206
O13   O     O_R   0.556580 0.251450 0.175160 -0.410978
O14   O     O_R   0.443420 0.251450 0.824840 -0.438948
O15   O     O_R   0.056580 0.751450 0.175160 -0.410974
O16   O     O_R   0.943420 0.751450 0.824840 -0.442898
C5    C     C_R   0.530559 0.155687 0.147056 0.656139
C6    C     C_R   0.468684 0.155526 0.853453 0.605493
C7    C     C_R   0.030555 0.655688 0.147058 0.657353
C8    C     C_R   0.968681 0.655525 0.853456 0.595822
O17   O     O_R   0.545920 0.049510 0.170320 -0.505810
O18   O     O_R   0.454080 0.049510 0.829680 -0.503132
O19   O     O_R   0.045920 0.549510 0.170320 -0.505155
O20   O     O_R   0.954080 0.549510 0.829680 -0.506791
O21   O     O_R   0.681390 0.957840 0.176710 -0.508262
O22   O     O_R   0.318610 0.957840 0.823290 -0.496454
O23   O     O_R   0.181390 0.457840 0.176710 -0.508625
O24   O     O_R   0.818610 0.457840 0.823290 -0.495798
C9    C     C_R   0.740022 0.976288 0.145284 0.609047
C10   C     C_R   0.258982 0.969725 0.852598 0.629619
C11   C     C_R   0.240021 0.476291 0.145283 0.608395
C12   C     C_R   0.758980 0.469723 0.852598 0.629927
O25   O     O_R   0.787500 0.044280 0.330990 -0.432490
O26   O     O_R   0.212500 0.044280 0.669010 -0.430090
O27   O     O_R   0.287500 0.544280 0.330990 -0.431740
O28   O     O_R   0.712500 0.544280 0.669010 -0.435167
O29   O     O_R   0.765610 0.293630 0.323860 -0.453920
O30   O     O_R   0.234390 0.293630 0.676140 -0.454937
O31   O     O_R   0.265610 0.793630 0.323860 -0.448796
O32   O     O_R   0.734390 0.793630 0.676140 -0.458723
C13   C     C_R   0.728553 0.376580 0.353626 0.573053
C14   C     C_R   0.271214 0.377533 0.646654 0.568334
C15   C     C_R   0.228264 0.875627 0.354109 0.571416
C16   C     C_R   0.771308 0.877213 0.646628 0.577762
O33   O     O_R   0.670140 0.410570 0.329080 -0.529648
O34   O     O_R   0.329860 0.410570 0.670920 -0.526679
O35   O     O_R   0.170140 0.910570 0.329080 -0.531437
O36   O     O_R   0.829860 0.910570 0.670920 -0.516679
O37   O     O_R   0.556540 0.252920 0.323970 -0.486723
O38   O     O_R   0.443460 0.252920 0.676030 -0.458993
O39   O     O_R   0.056540 0.752920 0.323970 -0.489139
O40   O     O_R   0.943460 0.752920 0.676030 -0.483558
C17   C     C_R   0.533065 0.156616 0.354121 0.569807
C18   C     C_R   0.437902 0.153388 0.639045 0.540036
C19   C     C_R   0.033470 0.656727 0.354254 0.584088
C20   C     C_R   0.966418 0.656737 0.645629 0.585984
O41   O     O_R   0.545870 0.051100 0.330840 -0.507130
O42   O     O_R   0.454130 0.051100 0.669160 -0.455338
O43   O     O_R   0.045870 0.551100 0.330840 -0.502014
O44   O     O_R   0.954130 0.551100 0.669160 -0.496550
O45   O     O_R   0.681340 0.959300 0.325510 -0.528033
O46   O     O_R   0.318660 0.959300 0.674490 -0.540058
O47   O     O_R   0.181340 0.459300 0.325510 -0.529756
O48   O     O_R   0.818660 0.459300 0.674490 -0.522444
C21   C     C_R   0.741385 0.969519 0.353964 0.569983
C22   C     C_R   0.257789 0.967857 0.646765 0.565966
C23   C     C_R   0.241494 0.469274 0.353891 0.568411
C24   C     C_R   0.758307 0.469016 0.646291 0.575637
Cr1   Cr    Cr6+3 0.772000 0.169640 0.250110 1.242253
Cr2   Cr    Cr6+3 0.228000 0.169640 0.749890 1.221351
Cr3   Cr    Cr6+3 0.272000 0.669640 0.250110 1.243167
Cr4   Cr    Cr6+3 0.728000 0.669640 0.749890 1.224654
Cr5   Cr    Cr6+3 0.614960 0.323350 0.249260 1.164967
Cr6   Cr    Cr6+3 0.385040 0.323350 0.750740 1.164846
Cr7   Cr    Cr6+3 0.114960 0.823350 0.249260 1.163687
Cr8   Cr    Cr6+3 0.885040 0.823350 0.750740 1.164260
Cr9   Cr    Cr6+3 0.616670 0.010620 0.250840 1.111533
Cr10  Cr    Cr6+3 0.383330 0.010620 0.749160 1.121879
Cr11  Cr    Cr6+3 0.116670 0.510620 0.250840 1.111995
Cr12  Cr    Cr6+3 0.883330 0.510620 0.749160 1.122001
O49   O     O_3   0.667880 0.167870 0.250070 -0.325728
O50   O     O_3   0.332120 0.167870 0.749930 -0.361600
O51   O     O_3   0.167880 0.667870 0.250070 -0.326860
O52   O     O_3   0.832120 0.667870 0.749930 -0.344518
H1    H     H_    0.502978 0.965550 0.063325 0.209985
H2    H     H_    0.495950 0.965965 0.938206 0.208006
H3    H     H_    0.002930 0.465557 0.063339 0.209981
H4    H     H_    0.995906 0.465964 0.938219 0.208066
C25   C     C_R   0.496719 0.164249 0.926053 0.065709
C26   C     C_R   0.500447 0.163832 0.075219 0.109930
C27   C     C_R   0.996705 0.664247 0.926059 0.067023
C28   C     C_R   0.000432 0.663840 0.075225 0.110015
C29   C     C_R   0.501119 0.277703 0.963194 -0.039008
C30   C     C_R   0.493779 0.277082 0.038125 -0.045943
C31   C     C_R   0.001113 0.777703 0.963195 -0.038017
C32   C     C_R   0.993774 0.777090 0.038127 -0.045980
C33   C     C_R   0.499601 0.053898 0.037089 -0.075064
C34   C     C_R   0.498313 0.054130 0.964346 -0.120941
C35   C     C_R   0.999565 0.553904 0.037099 -0.075360
C36   C     C_R   0.998280 0.554131 0.964356 -0.120617
C37   C     C_R   0.513020 0.391113 0.928396 0.388990
C38   C     C_R   0.481214 0.389269 0.073391 0.342348
C39   C     C_R   0.013022 0.891108 0.928393 0.389381
C40   C     C_R   0.981224 0.889284 0.073390 0.342452
C41   C     C_R   0.005834 0.002743 0.964767 0.174693
C42   C     C_R   0.988890 0.001892 0.037741 0.180585
C43   C     C_R   0.505817 0.502744 0.964772 0.174355
C44   C     C_R   0.488867 0.501882 0.037745 0.180709
C45   C     C_R   0.708656 0.851879 0.041583 -0.142136
C46   C     C_R   0.298268 0.999338 0.973919 -0.120647
C47   C     C_R   0.208673 0.351859 0.041587 -0.142290
C48   C     C_R   0.798194 0.499487 0.973927 -0.121022
H5    H     H_    0.679770 0.788750 0.075324 0.205571
H6    H     H_    0.335487 0.067211 0.954834 0.132500
H7    H     H_    0.179804 0.288711 0.075332 0.205432
H8    H     H_    0.835357 0.567456 0.954845 0.132876
C49   C     C_R   0.710592 0.833102 0.968963 0.308733
C50   C     C_R   0.291491 0.979447 0.046411 0.324630
C51   C     C_R   0.210610 0.333074 0.968968 0.308708
C52   C     C_R   0.791419 0.479595 0.046420 0.324755
C53   C     C_R   0.749125 0.913935 0.924868 -0.019236
C54   C     C_R   0.241547 0.895799 0.070742 0.049035
C55   C     C_R   0.249124 0.413929 0.924868 -0.020050
C56   C     C_R   0.741551 0.395808 0.070746 0.048879
C57   C     C_R   0.780963 0.017606 0.953541 0.373869
C58   C     C_R   0.200236 0.828975 0.022858 0.352197
C59   C     C_R   0.280939 0.517626 0.953535 0.373455
C60   C     C_R   0.700295 0.328888 0.022858 0.351818
C61   C     C_R   0.780522 0.034222 0.025840 0.407759
C62   C     C_R   0.206741 0.849552 0.950492 0.439723
C63   C     C_R   0.280495 0.534252 0.025834 0.407949
C64   C     C_R   0.706797 0.349469 0.950491 0.440167
C65   C     C_R   0.745701 0.949581 0.070480 -0.065922
C66   C     C_R   0.255102 0.935800 0.926306 -0.005471
C67   C     C_R   0.245697 0.449589 0.070478 -0.066012
C68   C     C_R   0.755098 0.435822 0.926310 -0.005568
C69   C     C_R   0.482560 0.052472 0.457163 -0.080052
C70   C     C_R   0.461318 0.051305 0.526705 -0.094922
C71   C     C_R   0.001626 0.551934 0.463564 -0.102563
C72   C     C_R   0.993692 0.551578 0.535502 -0.100108
H9    H     H_    0.488562 0.965369 0.430807 0.227012
H10   H     H_    0.449643 0.963953 0.551134 0.187345
H11   H     H_    0.005215 0.464094 0.437372 0.219819
H12   H     H_    0.987268 0.463522 0.561284 0.216500
C73   C     C_R   0.458941 0.160155 0.565198 0.004163
C74   C     C_R   0.501125 0.162687 0.423961 0.023191
C75   C     C_R   0.990034 0.662193 0.572730 0.022713
C76   C     C_R   0.009260 0.662684 0.426871 0.028900
C77   C     C_R   0.477866 0.271130 0.532793 -0.095380
C78   C     C_R   0.500103 0.271888 0.462441 -0.078942
C79   C     C_R   0.995398 0.773669 0.536361 -0.108727
C80   C     C_R   0.007711 0.773791 0.463687 -0.099168
H13   H     H_    0.477588 0.355831 0.562248 0.205799
H14   H     H_    0.518528 0.356286 0.438794 0.198071
H15   H     H_    0.988899 0.859559 0.563847 0.210057
H16   H     H_    0.017131 0.859557 0.436523 0.206077
C81   C     C_R   0.816105 0.928592 0.457515 0.190445
C82   C     C_R   0.182026 0.936656 0.542390 0.188725
C83   C     C_R   0.316020 0.433506 0.458039 0.188714
C84   C     C_R   0.683143 0.432792 0.542222 0.186942
C85   C     C_R   0.819404 0.926045 0.530486 -0.150663
C86   C     C_R   0.180818 0.936076 0.469127 -0.157928
C87   C     C_R   0.318300 0.434952 0.531146 -0.158865
C88   C     C_R   0.680816 0.431731 0.469108 -0.155595
H17   H     H_    0.870828 0.933739 0.554146 0.176760
H18   H     H_    0.131186 0.955923 0.443837 0.183819
H19   H     H_    0.368794 0.449992 0.555430 0.180807
H20   H     H_    0.630106 0.445234 0.444717 0.179442
C89   C     C_R   0.759006 0.906649 0.572402 -0.022273
C90   C     C_R   0.240367 0.902755 0.428952 -0.022958
C91   C     C_R   0.258451 0.408553 0.572549 -0.023837
C92   C     C_R   0.740874 0.405444 0.427982 -0.021539
C93   C     C_R   0.693147 0.891230 0.540016 0.181304
C94   C     C_R   0.303020 0.869514 0.463871 0.175529
C95   C     C_R   0.193661 0.386224 0.539419 0.183354
C96   C     C_R   0.805476 0.381985 0.461493 0.182168
C97   C     C_R   0.689682 0.896608 0.466163 -0.154174
C98   C     C_R   0.304277 0.872440 0.537994 -0.168284
C99   C     C_R   0.190595 0.391457 0.465527 -0.157091
C100  C     C_R   0.808430 0.388049 0.535342 -0.155052
H21   H     H_    0.638499 0.892617 0.441449 0.182570
H22   H     H_    0.352514 0.850367 0.565160 0.175540
H23   H     H_    0.139883 0.382542 0.440314 0.178861
H24   H     H_    0.859032 0.377940 0.560697 0.177700
C101  C     C_R   0.750293 0.920013 0.425016 -0.022582
C102  C     C_R   0.245998 0.914247 0.576961 -0.019378
C103  C     C_R   0.250820 0.419551 0.424907 -0.022707
C104  C     C_R   0.748412 0.418558 0.575642 -0.019654
N1    N     N_R   0.879713 0.944508 0.417209 0.083093
O53   O     O_R   0.926220 0.024342 0.437088 -0.273982
O54   O     O_R   0.891461 0.879129 0.360712 -0.300642
N2    N     N_R   0.118189 0.961608 0.580954 0.085725
O55   O     O_R   0.072174 0.038319 0.555722 -0.275671
O56   O     O_R   0.103413 0.900735 0.638693 -0.290234
N3    N     N_R   0.379945 0.449069 0.418015 0.088314
O57   O     O_R   0.428494 0.523022 0.440247 -0.272977
O58   O     O_R   0.391406 0.384529 0.361121 -0.301027
N4    N     N_R   0.619065 0.450721 0.581660 0.086572
O59   O     O_R   0.571889 0.527939 0.559202 -0.281189
O60   O     O_R   0.605812 0.384474 0.637736 -0.270782
N5    N     N_R   0.629513 0.876964 0.580822 0.096257
O61   O     O_R   0.620346 0.938219 0.639281 -0.281285
O62   O     O_R   0.576934 0.815812 0.555043 -0.278408
N6    N     N_R   0.366061 0.838081 0.425466 0.078976
O63   O     O_R   0.413670 0.769807 0.455248 -0.278592
O64   O     O_R   0.381508 0.893522 0.366114 -0.316634
N7    N     N_R   0.130507 0.363998 0.579584 0.086551
O65   O     O_R   0.081424 0.294896 0.553659 -0.281000
O66   O     O_R   0.117920 0.424663 0.637629 -0.306666
N8    N     N_R   0.868559 0.357103 0.421765 0.082507
O67   O     O_R   0.916485 0.285216 0.448057 -0.279861
O68   O     O_R   0.882321 0.417714 0.363721 -0.309283
F1    F     F_    0.536466 0.393952 0.860200 -0.512647
F2    F     F_    0.458143 0.389595 0.141746 -0.557814
F3    F     F_    0.036461 0.893940 0.860194 -0.515278
F4    F     F_    0.958157 0.889625 0.141746 -0.557261
N9    N     N_R   0.011346 0.116474 0.926166 0.153687
O69   O     O_R   0.056965 0.128750 0.874921 -0.177197
O70   O     O_R   0.965395 0.203222 0.936566 -0.235520
N10   N     N_R   0.985028 0.114526 0.077190 0.150183
O71   O     O_R   0.941111 0.126091 0.129949 -0.180709
O72   O     O_R   0.031651 0.199898 0.066568 -0.308492
N11   N     N_R   0.511316 0.616481 0.926175 0.153659
O73   O     O_R   0.556927 0.628772 0.874924 -0.177454
O74   O     O_R   0.465358 0.703216 0.936581 -0.235483
N12   N     N_R   0.484988 0.614511 0.077198 0.150222
O75   O     O_R   0.441064 0.626057 0.129951 -0.180566
O76   O     O_R   0.531605 0.699897 0.066586 -0.308420
F5    F     F_    0.678860 0.731581 0.943040 -0.572402
F6    F     F_    0.331677 0.043577 0.092444 -0.618033
F7    F     F_    0.178904 0.231524 0.943051 -0.572426
F8    F     F_    0.831528 0.543856 0.092456 -0.616987
F9    F     F_    0.815260 0.100234 0.911792 -0.538187
F10   F     F_    0.154371 0.742814 0.046596 -0.639737
F11   F     F_    0.315218 0.600268 0.911781 -0.538783
F12   F     F_    0.654473 0.242653 0.046595 -0.639581
F13   F     F_    0.813198 0.135029 0.051608 -0.547511
F14   F     F_    0.166864 0.785273 0.904285 -0.544407
F15   F     F_    0.313148 0.635084 0.051600 -0.547538
F16   F     F_    0.666964 0.285111 0.904283 -0.542092

loop_
_geom_bond_atom_site_label_1
_geom_bond_atom_site_label_2
_geom_bond_distance
_ccdc_geom_bond_type
O1    Cr1   2.065772 S    
C18   O42   1.287792 A    
Cr11  O51   1.974390 S    
O4    C12   1.267185 A    
C61   C65   1.410155 A    
C33   C34   1.371764 A    
O39   C19   1.270164 A    
C41   C42   1.410885 A    
O20   Cr12  2.081353 S    
O29   C13   1.275390 A    
C70   H10   1.079480 S    
O37   Cr5   1.945151 S    
C43   C44   1.410885 A    
C82   C102  1.405248 A    
C64   C68   1.390808 A    
C42   N10   1.440055 S    
N10   O71   1.301094 A    
N12   O76   1.301502 A    
O26   C22   1.268155 A    
C29   C30   1.418566 A    
O1    C9    1.256546 A    
C72   H12   1.081519 S    
C38   F2    1.358570 S    
C38   C44   1.405164 A    
N5    O61   1.301559 A    
O45   C21   1.270854 A    
O7    C3    1.270461 A    
C92   C96   1.408481 A    
N4    O60   1.301727 A    
O24   C12   1.265334 A    
C70   C73   1.394366 A    
C78   H14   1.079396 S    
C72   C75   1.399513 A    
C59   C63   1.375686 A    
O40   Cr8   1.947645 S    
O30   C14   1.277084 A    
C27   C31   1.427078 A    
C60   C64   1.386507 A    
C97   H21   1.083559 S    
C5    C26   1.476402 S    
C26   C30   1.422942 A    
C85   C89   1.406248 A    
C71   C72   1.363543 A    
O21   C9    1.275678 A    
O8    Cr4   1.954615 S    
O23   Cr11  1.944526 S    
C7    C28   1.476423 S    
C88   C92   1.406344 A    
C98   H22   1.080436 S    
C63   F15   1.357465 S    
O32   Cr4   1.939213 S    
C73   C77   1.400399 A    
O44   Cr12  2.062625 S    
C1    O9    1.261817 A    
C35   C36   1.371767 A    
C11   C67   1.444402 S    
C49   C53   1.412361 A    
C82   C86   1.381588 A    
C97   C101  1.408813 A    
H2    C34   1.083412 S    
C77   C78   1.389423 A    
N11   O73   1.301128 A    
C26   C33   1.400606 A    
C59   F11   1.359264 S    
N6    O63   1.300531 A    
N1    O54   1.301903 A    
C94   N6    1.438495 S    
C100  C104  1.407463 A    
O27   Cr3   2.066317 S    
O7    Cr3   1.946703 S    
O28   C24   1.269573 A    
Cr4   O52   1.981391 S    
O47   C23   1.271909 A    
O2    Cr2   2.058741 S    
C18   C73   1.447653 S    
O48   C24   1.272865 A    
C52   C56   1.393012 A    
C57   F9    1.359263 S    
Cr9   O49   1.974390 S    
Cr6   O50   1.974290 S    
O10   Cr6   2.068166 S    
C37   C43   1.405739 A    
C32   C40   1.414012 A    
C83   N3    1.437112 S    
N3    O57   1.300315 A    
O18   Cr10  2.081353 S    
N9    O70   1.301516 A    
C90   C94   1.411826 A    
C77   H13   1.079726 S    
C39   C41   1.405726 A    
C58   C62   1.386497 A    
C3    O11   1.261816 A    
C31   C39   1.415848 A    
C4    O12   1.270831 A    
C56   C60   1.407597 A    
Cr7   O51   1.970547 S    
C69   C74   1.398062 A    
O6    Cr2   1.954615 S    
C95   C99   1.395606 A    
N5    O62   1.301574 A    
C61   F13   1.357466 S    
C85   H17   1.081742 S    
O24   Cr12  1.942831 S    
O11   Cr7   2.064801 S    
C86   C90   1.406620 A    
C1    C56   1.439564 S    
C47   C51   1.385324 A    
N4    O59   1.301425 A    
O22   C10   1.265305 A    
C79   H15   1.078817 S    
O25   Cr1   2.066317 S    
O48   Cr12  1.960102 S    
C76   C80   1.399044 A    
C80   H16   1.079434 S    
C3    C54   1.439572 S    
C6    O18   1.273687 A    
N2    O56   1.302216 A    
O3    C11   1.256546 A    
C2    O10   1.270831 A    
C8    C27   1.475813 S    
C9    C65   1.444410 S    
O16   Cr8   1.951808 S    
N8    O67   1.300882 A    
C95   N7    1.436585 S    
C15   O35   1.263018 A    
C4    C53   1.447712 S    
O26   Cr2   2.074992 S    
C53   C57   1.396412 A    
C19   C76   1.443146 S    
O29   Cr1   1.946409 S    
C10   C66   1.438051 S    
C62   F14   1.357263 S    
C48   H8    1.084336 S    
C47   H7    1.083656 S    
N10   O72   1.301502 A    
O12   Cr8   2.068166 S    
C20   C75   1.444073 S    
Cr12  O52   1.970926 S    
C50   C54   1.393035 A    
O15   C7    1.275515 A    
N7    O65   1.300532 A    
O5    C1    1.270464 A    
N9    O69   1.301118 A    
C52   F8    1.357594 S    
C99   H23   1.083332 S    
O46   Cr10  1.960102 S    
O39   Cr7   1.945151 S    
O25   C21   1.271880 A    
C83   C103  1.401694 A    
C88   H20   1.081299 S    
O45   Cr9   1.955483 S    
C31   C32   1.418575 A    
C93   N5    1.438577 S    
C13   O33   1.261385 A    
C83   C87   1.379367 A    
O8    C4    1.267412 A    
C24   C104  1.456673 S    
C17   C74   1.448105 S    
O13   Cr5   1.958055 S    
C100  H24   1.083169 S    
C81   N1    1.435250 S    
C84   C104  1.404534 A    
C46   H6    1.084351 S    
O47   Cr11  1.955483 S    
Cr2   O50   1.981391 S    
O15   Cr7   1.958055 S    
C12   C68   1.438054 S    
O35   Cr7   2.075776 S    
Cr1   O49   1.981472 S    
C94   C98   1.398252 A    
O30   Cr2   1.939213 S    
C84   N4    1.437244 S    
C50   F6    1.357620 S    
C39   F3    1.358283 S    
C84   C88   1.379481 A    
C81   C101  1.401404 A    
O14   Cr6   1.951808 S    
N11   O74   1.301517 A    
C47   C67   1.393631 A    
O21   Cr9   1.944526 S    
C57   C61   1.375670 A    
C7    O19   1.270967 A    
O9    Cr5   2.064801 S    
C91   C95   1.407976 A    
C6    C25   1.475836 S    
C51   F7    1.356689 S    
C13   C92   1.458523 S    
C21   C101  1.453138 S    
C2    C55   1.447709 S    
C25   C29   1.427085 A    
C51   C55   1.412365 A    
O34   Cr6   2.068360 S    
C41   N9    1.439383 S    
C27   C36   1.399312 A    
C22   C102  1.461032 S    
O31   Cr3   1.946409 S    
C87   C91   1.405973 A    
C16   C89   1.454883 S    
O38   C18   1.297410 A    
C45   H5    1.083654 S    
Cr3   O51   1.981472 S    
N7    O66   1.301585 A    
C5    O17   1.270950 A    
C71   C76   1.397022 A    
O27   C23   1.271703 A    
O22   Cr10  1.942831 S    
C48   C52   1.388110 A    
H1    C33   1.083424 S    
O14   C6    1.270346 A    
C19   O43   1.256674 A    
O3    Cr3   2.065772 S    
O5    Cr1   1.946703 S    
C8    O20   1.273685 A    
C64   F16   1.357263 S    
H3    C35   1.083424 S    
N2    O55   1.300977 A    
O17   Cr9   2.077781 S    
O37   C17   1.272739 A    
C25   C34   1.399307 A    
C62   C66   1.390808 A    
C87   H19   1.080296 S    
C40   C42   1.405170 A    
C17   O41   1.256127 A    
C99   C103  1.407645 A    
C69   H9    1.079341 S    
C82   N2    1.437506 S    
C14   O34   1.262725 A    
C49   F5    1.356687 S    
C75   C79   1.397133 A    
C30   C38   1.414012 A    
C20   O44   1.254892 A    
C45   C65   1.393638 A    
C43   N11   1.439384 S    
C55   C59   1.396411 A    
C96   N8    1.436540 S    
O38   Cr6   1.947645 S    
C60   F12   1.356500 S    
N8    O68   1.301628 A    
C29   C37   1.415833 A    
C71   H11   1.081374 S    
Cr8   O52   1.974290 S    
O32   C16   1.275788 A    
Cr10  O50   1.970926 S    
C69   C70   1.369333 A    
C37   F1    1.358275 S    
O2    C10   1.267201 A    
O46   C22   1.277113 A    
C93   C97   1.395311 A    
C28   C32   1.422961 A    
C46   C50   1.388109 A    
O19   Cr11  2.077781 S    
C86   H18   1.081959 S    
O33   Cr5   2.075776 S    
C63   C67   1.410156 A    
C58   F10   1.356477 S    
O23   C11   1.275672 A    
C46   C66   1.406407 A    
O42   Cr10  2.062625 S    
N12   O75   1.301092 A    
O13   C5    1.275520 A    
O4    Cr4   2.058741 S    
C15   C90   1.462663 S    
O6    C2    1.267403 A    
H4    C36   1.083410 S    
C44   N12   1.440055 S    
Cr5   O49   1.970547 S    
C40   F4    1.358570 S    
O40   C20   1.272505 A    
C16   O36   1.262326 A    
C45   C49   1.385325 A    
N6    O64   1.301948 A    
N1    O53   1.300845 A    
C74   C78   1.397047 A    
O28   Cr4   2.074992 S    
O43   Cr11  2.063932 S    
C79   C80   1.388403 A    
N3    O58   1.302143 A    
C28   C35   1.400591 A    
C54   C58   1.407606 A    
C14   C91   1.458021 S    
O41   Cr9   2.063932 S    
C98   C102  1.402463 A    
C23   C103  1.454385 S    
C89   C93   1.408459 A    
O36   Cr8   2.068360 S    
O31   C15   1.275111 A    
O16   C8    1.270353 A    
C81   C85   1.377719 A    
C96   C100  1.395580 A    
C48   C68   1.406374 A    
