data_mof_unit_30260.cif
_audit_creation_date              2012-12-10T16:49:23-0500
_audit_creation_method            fapswitch 2.2
_symmetry_space_group_name_H-M    P1
_symmetry_Int_Tables_number       1
_space_group_crystal_system       triclinic
_cell_length_a                    19.291055
_cell_length_b                    8.786434
_cell_length_c                    7.470261
_cell_angle_alpha                 103.529572
_cell_angle_beta                  94.855718
_cell_angle_gamma                 93.51809
_cell_volume                      1222.33675216

loop_
_atom_site_label
_atom_site_type_symbol
_atom_type_description
_atom_site_fract_x
_atom_site_fract_y
_atom_site_fract_z
_atom_type_partial_charge
C1    C     C_R   0.497189 0.199724 0.452761 0.798250
C2    C     C_R   0.502811 0.800276 0.547239 0.798249
C3    C     C_2   0.492561 0.030939 0.426305 0.205541
C4    C     C_2   0.507440 0.969061 0.573695 0.205542
C5    C     C_R   0.367698 0.499737 0.501162 0.844833
C6    C     C_R   0.632302 0.500263 0.498838 0.844832
C7    C     C_R   0.263014 0.630405 0.616438 0.416147
C8    C     C_R   0.736986 0.369596 0.383561 0.416147
C9    C     C_R   0.190679 0.634809 0.612288 0.376686
C10   C     C_R   0.809321 0.365192 0.387711 0.376686
C11   C     C_R   0.146162 0.509810 0.496815 -0.190771
C12   C     C_R   0.853838 0.490191 0.503185 -0.190771
C13   C     C_R   0.174070 0.381054 0.384877 0.374377
C14   C     C_R   0.825930 0.618946 0.615123 0.374377
C15   C     C_R   0.247269 0.377973 0.384591 -0.154664
C16   C     C_R   0.752731 0.622027 0.615410 -0.154664
C17   C     C_R   0.291718 0.501720 0.502929 -0.311389
C18   C     C_R   0.708282 0.498280 0.497071 -0.311389
C19   C     C_R   0.929905 0.493128 0.501221 0.460845
C20   C     C_R   0.070095 0.506873 0.498778 0.460845
Cu1   Cu    Cu3+1 0.507710 0.517380 0.684380 1.111998
Cu2   Cu    Cu3+1 0.492290 0.482620 0.315620 1.111998
N1    N     N_R   0.027896 0.478970 0.337820 -0.130629
N2    N     N_R   0.972104 0.521031 0.662180 -0.130629
N3    N     N_R   0.958907 0.472723 0.339018 -0.191995
N4    N     N_R   0.041093 0.527278 0.660981 -0.191995
N5    N     N_2   0.480680 0.456420 0.038530 0.152266
N6    N     N_2   0.519320 0.543580 0.961470 0.152266
O1    O     O_R   0.505010 0.286130 0.619770 -0.484721
O2    O     O_R   0.494990 0.713870 0.380230 -0.484721
O3    O     O_R   0.491990 0.256780 0.308370 -0.632226
O4    O     O_R   0.508010 0.743220 0.691630 -0.632226
O5    O     O_R   0.406650 0.514660 0.655750 -0.529579
O6    O     O_R   0.593350 0.485340 0.344250 -0.529578
O7    O     O_R   0.393640 0.485310 0.344340 -0.591759
O8    O     O_R   0.606360 0.514690 0.655660 -0.591758
O9    O     O_3   0.303438 0.758624 0.728211 -0.633329
H1    H     H_    0.350545 0.764911 0.686391 0.313939
O10   O     O_3   0.696562 0.241378 0.271787 -0.633329
H2    H     H_    0.649455 0.235090 0.313608 0.313939
O11   O     O_3   0.165869 0.766706 0.719662 -0.618916
H3    H     H_    0.117625 0.777615 0.670857 0.340255
O12   O     O_3   0.834131 0.233296 0.280336 -0.618917
H4    H     H_    0.882375 0.222386 0.329141 0.340255
O13   O     O_3   0.128024 0.257933 0.283242 -0.655126
H5    H     H_    0.151957 0.159993 0.256082 0.358209
O14   O     O_3   0.871976 0.742066 0.716759 -0.655126
H6    H     H_    0.848043 0.840007 0.743921 0.358209
C21   C     C_2   0.277106 0.245304 0.261378 0.879311
O15   O     O_2   0.257493 0.208262 0.095805 -0.525832
O16   O     O_R   0.327225 0.162485 0.335180 -0.757448
H7    H     H_    0.342430 0.073187 0.237971 0.346387
C22   C     C_2   0.722894 0.754695 0.738624 0.879312
O17   O     O_2   0.742506 0.791736 0.904198 -0.525833
O18   O     O_R   0.672775 0.837514 0.664824 -0.757448
H8    H     H_    0.657570 0.926812 0.762033 0.346387
O19   O     O_3   0.471382 0.934855 0.251587 -0.709399
H9    H     H_    0.461346 0.998027 0.160297 0.344609
O20   O     O_3   0.528618 0.065144 0.748413 -0.709399
H10   H     H_    0.538654 0.001973 0.839703 0.344609
O21   O     O_3   0.432379 0.355916 0.923934 -0.555163
H11   H     H_    0.407936 0.300726 0.004818 0.349294
O22   O     O_3   0.567621 0.644084 0.076066 -0.555164
H12   H     H_    0.592063 0.699274 0.995182 0.349294

loop_
_geom_bond_atom_site_label_1
_geom_bond_atom_site_label_2
_ccdc_geom_bond_type
C7    C17   A    
C2    C4    S    
O18   H8    S    
C15   C17   A    
O9    H1    S    
C8    O10   S    
C11   C13   A    
O11   H3    S    
C22   O18   S    
C9    O11   S    
O14   H6    S    
C20   N1    A    
C2    O2    A    
N5    N6    D    
Cu1   Cu2   S    
C15   C21   S    
C19   N2    A    
C7    O9    S    
O20   H10   S    
Cu1   O8    S    
C22   O17   D    
C13   O13   S    
Cu2   O7    S    
C9    C11   A    
N2    N4    A    
C5    O5    A    
O19   H9    S    
C14   O14   S    
C20   N4    A    
C19   N3    A    
C5    O7    A    
C12   C19   S    
C8    C10   A    
Cu1   O4    S    
Cu1   N6    S    
C6    O8    A    
C10   C12   A    
Cu2   N5    S    
C13   C15   A    
O12   H4    S    
O21   H11   S    
Cu2   O6    S    
C6    C18   S    
C14   C16   A    
C11   C20   S    
Cu1   O5    S    
Cu2   O3    S    
C1    O1    A    
O16   H7    S    
N6    O22   S    
C3    O19   S    
C1    O3    A    
N1    N3    A    
C5    C17   S    
C4    O20   S    
C2    O4    A    
C21   O15   D    
O10   H2    S    
C7    C9    A    
C16   C22   S    
Cu2   O2    S    
C1    C3    S    
C10   O12   S    
O13   H5    S    
Cu1   O1    S    
C16   C18   A    
C8    C18   A    
C3    C4    D    
C6    O6    A    
C12   C14   A    
O22   H12   S    
C21   O16   S    
N5    O21   S    
