data_mof_unit_22672.cif
_audit_creation_date              2012-10-26T18:27:09-0400
_audit_creation_method            fapswitch 2.2
_symmetry_space_group_name_H-M    P1
_symmetry_Int_Tables_number       1
_space_group_crystal_system       triclinic
_cell_length_a                    15.066554
_cell_length_b                    10.923696
_cell_length_c                    9.707839
_cell_angle_alpha                 88.978008
_cell_angle_beta                  89.369385
_cell_angle_gamma                 90.43594
_cell_volume                      1597.34038506

loop_
_atom_site_label
_atom_site_type_symbol
_atom_type_description
_atom_site_fract_x
_atom_site_fract_y
_atom_site_fract_z
_atom_type_partial_charge
C1    C     C_R   0.502584 0.265381 0.501195 0.553330
C2    C     C_R   0.186490 0.449552 0.389681 -0.136529
C3    C     C_R   0.232082 0.496824 0.501706 -0.015450
C4    C     C_R   0.328790 0.499180 0.500622 0.548509
C5    C     C_R   0.185441 0.541371 0.614549 -0.143768
C6    C     C_2   0.534837 0.937024 0.390714 -0.027961
C7    C     C_2   0.499581 0.867499 0.494676 -0.095209
C8    C     C_2   0.523392 0.070501 0.389986 -0.144337
C9    C     C_2   0.512257 0.133660 0.505712 -0.137896
C10   C     C_2   0.445372 0.433507 0.926849 0.093395
C11   C     C_2   0.456558 0.420632 0.080738 -0.005700
C12   C     C_R   0.906790 0.556139 0.613024 0.045651
C13   C     C_R   0.501899 0.734798 0.498440 0.551680
C14   C     C_R   0.671118 0.503405 0.499339 0.546799
C15   C     C_R   0.814049 0.573788 0.600706 -0.008484
C16   C     C_R   0.768005 0.509787 0.498601 -0.005231
C17   C     C_R   0.813930 0.450481 0.394471 -0.152797
C18   C     C_R   0.906634 0.452944 0.388072 0.006314
C19   C     C_R   0.953222 0.501314 0.500980 0.011492
C20   C     C_3   0.766855 0.676050 0.675021 -0.376370
C21   C     C_3   0.365760 0.367915 0.870173 -0.318275
C22   C     C_3   0.903015 0.372648 0.143389 -0.409447
C23   C     C_R   0.953005 0.404647 0.273237 0.022120
C24   C     C_3   0.096304 0.320688 0.170139 -0.407749
C25   C     C_3   0.912058 0.615636 0.870032 -0.408284
C26   C     C_3   0.585500 0.883745 0.270776 -0.366500
C27   C     C_R   0.046518 0.393441 0.277968 0.019809
C28   C     C_R   0.093232 0.445879 0.388629 0.016324
C29   C     C_R   0.046359 0.496761 0.500968 0.034855
C30   C     C_R   0.093140 0.542469 0.614517 0.000548
C31   C     C_R   0.047676 0.585891 0.729002 -0.120021
C32   C     C_R   0.955177 0.590074 0.732253 0.005673
Cu1   Cu    Cu3+1 0.500020 0.500020 0.638630 0.918813
Cu2   Cu    Cu3+1 0.499980 0.499980 0.361370 0.919045
H1    H     H_    0.525352 0.574529 0.103019 0.198595
H2    H     H_    0.383728 0.309101 0.783181 0.176085
H3    H     H_    0.554309 0.535843 0.891726 0.194087
H4    H     H_    0.421871 0.346614 0.135078 0.139533
H5    H     H_    0.775954 0.401877 0.318549 0.132131
H6    H     H_    0.850757 0.441213 0.121962 0.122357
H7    H     H_    0.945679 0.376566 0.049723 0.134071
H8    H     H_    0.872407 0.280263 0.155153 0.129846
H9    H     H_    0.144946 0.259088 0.220507 0.123055
H10   H     H_    0.052961 0.257859 0.112455 0.133704
H11   H     H_    0.131400 0.383975 0.096818 0.123246
H12   H     H_    0.711422 0.713223 0.612905 0.134908
H13   H     H_    0.224880 0.416406 0.303455 0.127030
H14   H     H_    0.221094 0.577750 0.701419 0.116775
H15   H     H_    0.084776 0.614448 0.818247 0.106553
H16   H     H_    0.855256 0.552230 0.889377 0.133550
H17   H     H_    0.958907 0.599843 0.956061 0.127863
H18   H     H_    0.891054 0.712388 0.875674 0.128029
H19   H     H_    0.618439 0.956892 0.207305 0.110576
H20   H     H_    0.638200 0.821590 0.308932 0.140029
H21   H     H_    0.539637 0.833527 0.202743 0.152705
H22   H     H_    0.739219 0.643113 0.775453 0.136683
H23   H     H_    0.812122 0.755379 0.688188 0.122796
H24   H     H_    0.464429 0.908301 0.580106 0.082924
H25   H     H_    0.526636 0.118200 0.290793 0.148339
H26   H     H_    0.515142 0.090044 0.606761 0.098307
H27   H     H_    0.333902 0.306899 0.949293 0.057933
H28   H     H_    0.314789 0.435473 0.840035 0.142815
N1    N     N_2   0.499020 0.498660 0.846910 -0.334417
N2    N     N_2   0.499000 0.498630 0.153040 -0.360660
O1    O     O_R   0.500020 0.321960 0.617040 -0.502711
O2    O     O_R   0.499980 0.321920 0.382900 -0.498133
O3    O     O_R   0.370270 0.499990 0.617090 -0.508518
O4    O     O_R   0.370240 0.499950 0.382940 -0.493806
O5    O     O_R   0.500020 0.678080 0.617100 -0.498280
O6    O     O_R   0.499980 0.678040 0.382960 -0.493559
O7    O     O_R   0.629760 0.500050 0.617060 -0.496286
O8    O     O_R   0.629730 0.500010 0.382910 -0.502502

loop_
_geom_bond_atom_site_label_1
_geom_bond_atom_site_label_2
_ccdc_geom_bond_type
C22   H8    S    
C11   H4    S    
C1    O1    A    
C24   C27   S    
C6    C7    D    
C23   C27   A    
C2    H13   S    
C4    O3    A    
C18   C19   A    
C14   O7    A    
Cu2   O6    S    
C7    H24   S    
C21   H27   S    
C31   C32   A    
C12   C15   A    
Cu1   O5    S    
Cu1   N1    S    
C9    H26   S    
C22   H6    S    
C26   H21   S    
Cu2   O2    S    
C25   C32   S    
Cu2   N2    S    
C2    C3    A    
C8    C9    D    
C25   H18   S    
Cu1   O1    S    
C8    H25   S    
C21   H2    S    
C6    C26   S    
C12   C32   A    
H1    N2    S    
C21   H28   S    
C29   C30   A    
C13   O5    A    
C31   H15   S    
C18   C23   A    
C6    C8    S    
C24   H11   S    
C26   H20   S    
C12   C19   A    
C28   C29   A    
H3    N1    S    
Cu1   Cu2   S    
C20   H22   S    
C10   C21   S    
C17   H5    S    
C30   C31   A    
C24   H10   S    
C5    H14   S    
C14   C16   S    
C25   H17   S    
C22   H7    S    
C10   C11   S    
Cu1   O7    S    
C3    C4    S    
C19   C29   A    
C26   H19   S    
Cu2   O8    S    
C7    C13   S    
C1    C9    S    
Cu1   O3    S    
C17   C18   A    
C5    C30   A    
C13   O6    A    
Cu2   O4    S    
C27   C28   A    
C4    O4    A    
C24   H9    S    
C25   H16   S    
C16   C17   A    
C2    C28   A    
C3    C5    A    
C20   H23   S    
C22   C23   S    
C14   O8    A    
C15   C16   A    
C20   H12   S    
C10   N1    D    
C15   C20   S    
C11   N2    D    
C1    O2    A    
