data_mof_unit_29239.cif
_audit_creation_date              2013-03-05T15:44:27-0500
_audit_creation_method            fapswitch 2.2
_symmetry_space_group_name_H-M    P1
_symmetry_Int_Tables_number       1
_space_group_crystal_system       triclinic
_cell_length_a                    19.660872
_cell_length_b                    7.19157
_cell_length_c                    20.228765
_cell_angle_alpha                 89.47389
_cell_angle_beta                  98.222861
_cell_angle_gamma                 87.632118
_cell_volume                      2828.04495956

loop_
_atom_site_label
_atom_site_type_symbol
_atom_site_description
_atom_site_fract_x
_atom_site_fract_y
_atom_site_fract_z
_atom_type_partial_charge
O1    O     O_R   0.673210 0.377390 0.686390 -0.510087
O2    O     O_R   0.326790 0.622610 0.313610 -0.499208
O3    O     O_R   0.826790 0.877390 0.813610 -0.556707
O4    O     O_R   0.173210 0.122610 0.186390 -0.514909
O5    O     O_R   0.810750 0.706450 0.681250 -0.548192
O6    O     O_R   0.189250 0.293550 0.318750 -0.536914
O7    O     O_R   0.689250 0.206450 0.818750 -0.524525
O8    O     O_R   0.310750 0.793550 0.181250 -0.547113
C1    C     C_R   0.830537 0.536491 0.664826 0.804725
C2    C     C_R   0.169241 0.463977 0.334832 0.837997
C3    C     C_R   0.668270 0.040847 0.834264 0.820309
C4    C     C_R   0.330781 0.960728 0.164922 0.829037
O9    O     O_R   0.672750 0.707060 0.678240 -0.547885
O10   O     O_R   0.327250 0.292940 0.321760 -0.546910
O11   O     O_R   0.827250 0.207060 0.821760 -0.491690
O12   O     O_R   0.172750 0.792940 0.178240 -0.511373
O13   O     O_R   0.687800 0.877990 0.810580 -0.538414
O14   O     O_R   0.312200 0.122010 0.189420 -0.521357
O15   O     O_R   0.812200 0.377990 0.689420 -0.541091
O16   O     O_R   0.187800 0.622010 0.310580 -0.526673
C5    C     C_R   0.648194 0.541920 0.661115 0.899859
C6    C     C_R   0.351906 0.457471 0.338990 0.910121
C7    C     C_R   0.852232 0.034490 0.838164 0.892322
C8    C     C_R   0.147922 0.965086 0.161721 0.885956
O17   O     O_3   0.755100 0.544060 0.793420 -0.246883
O18   O     O_3   0.244900 0.455940 0.206580 -0.241123
O19   O     O_3   0.744900 0.044060 0.706580 -0.243560
O20   O     O_3   0.255100 0.955940 0.293420 -0.244746
V1    V     V_3+5 0.749050 0.818670 0.741950 1.304107
V2    V     V_3+5 0.250950 0.181330 0.258050 1.330793
V3    V     V_3+5 0.750950 0.318670 0.758050 1.337751
V4    V     V_3+5 0.249050 0.681330 0.241950 1.343636
C9    C     C_R   0.085038 0.986011 0.110125 -0.183070
C10   C     C_R   0.913647 0.008715 0.891541 -0.150109
C11   C     C_R   0.413541 0.452006 0.392969 -0.137522
C12   C     C_R   0.586420 0.544432 0.607662 -0.180033
C13   C     C_R   0.015818 0.817849 0.938638 -0.046657
C14   C     C_R   0.972413 0.141787 0.071336 -0.049398
C15   C     C_R   0.477869 0.696625 0.554842 -0.038271
C16   C     C_R   0.522200 0.299199 0.446115 -0.052545
C17   C     C_R   0.964618 0.868886 0.884722 -0.114794
C18   C     C_R   0.027330 0.096197 0.122946 -0.150233
C19   C     C_R   0.532983 0.681116 0.608082 -0.124031
C20   C     C_R   0.465880 0.310503 0.393841 -0.127747
C21   C     C_R   0.917100 0.106108 0.952202 0.354440
C22   C     C_R   0.082975 0.900697 0.047297 0.332250
C23   C     C_R   0.583388 0.418074 0.554387 0.329999
C24   C     C_R   0.416751 0.578178 0.446394 0.358439
C25   C     C_R   0.970684 0.061159 0.006902 -0.060897
C26   C     C_R   0.023314 0.924944 0.997757 -0.039025
C27   C     C_R   0.526834 0.427126 0.500363 -0.037974
C28   C     C_R   0.473306 0.569066 0.500400 -0.041102
C29   C     C_R   0.561936 0.162128 0.880797 -0.004579
C30   C     C_R   0.445507 0.870025 0.127847 -0.067914
C31   C     C_R   0.937272 0.395782 0.624403 -0.054138
C32   C     C_R   0.064104 0.609898 0.375081 -0.026415
C33   C     C_R   0.621344 0.040335 0.886857 -0.163059
C34   C     C_R   0.381692 0.972723 0.116454 -0.201411
C35   C     C_R   0.880438 0.525633 0.615418 -0.197059
C36   C     C_R   0.121893 0.483115 0.386292 -0.194225
C37   C     C_R   0.636613 0.921453 0.943836 0.000611
C38   C     C_R   0.368543 0.097841 0.060956 -0.101061
C39   C     C_R   0.872040 0.650341 0.559906 -0.121915
C40   C     C_R   0.134558 0.377358 0.446528 0.004673
C41   C     C_R   0.594606 0.930037 0.996094 -0.017845
C42   C     C_R   0.422118 0.138464 0.022854 -0.052537
C43   C     C_R   0.923834 0.658625 0.517161 -0.051751
C44   C     C_R   0.091227 0.404505 0.496910 -0.021545
C45   C     C_R   0.532916 0.042939 0.987035 0.035860
C46   C     C_R   0.484448 0.028935 0.032813 0.048686
C47   C     C_R   0.982561 0.533641 0.529199 0.059485
C48   C     C_R   0.031830 0.526141 0.483854 0.034649
C49   C     C_R   0.519429 0.169787 0.932334 -0.007186
C50   C     C_R   0.498255 0.904568 0.088135 -0.015825
C51   C     C_R   0.991457 0.411850 0.585550 0.001539
C52   C     C_R   0.021470 0.639853 0.425498 -0.008112
C53   C     C_R   0.613871 0.837140 0.058941 -0.096577
C54   C     C_R   0.416326 0.290857 0.976612 -0.130417
C55   C     C_R   0.920605 0.792432 0.464180 -0.125525
C56   C     C_R   0.106732 0.319102 0.561290 -0.094976
C57   C     C_R   0.566339 0.827066 0.104907 0.294902
C58   C     C_R   0.465078 0.306949 0.932116 0.306397
C59   C     C_R   0.969358 0.784023 0.419644 0.300582
C60   C     C_R   0.056114 0.315950 0.603932 0.280158
N1    N     N_R   0.144760 0.810164 0.030656 0.051292
O21   O     O_R   0.168142 0.652976 0.059230 -0.300008
O22   O     O_R   0.171929 0.871116 0.980122 -0.292668
N2    N     N_R   0.866291 0.252159 0.956863 0.074692
O23   O     O_R   0.802559 0.211839 0.958024 -0.340087
O24   O     O_R   0.881414 0.424479 0.948571 -0.306362
N3    N     N_R   0.358585 0.704314 0.447726 0.058044
O25   O     O_R   0.303442 0.645003 0.468195 -0.335625
O26   O     O_R   0.356130 0.865666 0.417665 -0.291809
N4    N     N_R   0.640364 0.286705 0.554729 0.076039
O27   O     O_R   0.639204 0.124728 0.583551 -0.277042
O28   O     O_R   0.698025 0.341647 0.538490 -0.343704
C61   C     C_2   0.019743 0.149169 0.192190 0.949933
O29   O     O_2   0.973030 0.086223 0.218128 -0.498533
O30   O     O_R   0.062650 0.276628 0.226301 -0.714060
H1    H     H_    0.051739 0.296055 0.273222 0.324867
C62   C     C_2   0.966025 0.777096 0.819970 0.924892
O31   O     O_2   0.991762 0.854583 0.776242 -0.521194
O32   O     O_R   0.940531 0.599944 0.810139 -0.688860
H2    H     H_    0.946171 0.552770 0.764268 0.325807
C63   C     C_2   0.462793 0.173179 0.338767 0.954002
O33   O     O_2   0.467892 0.006170 0.351457 -0.510747
O34   O     O_R   0.453572 0.235448 0.272548 -0.753664
H3    H     H_    0.454451 0.129632 0.239953 0.320980
C64   C     C_2   0.534996 0.811967 0.664793 0.928807
O35   O     O_2   0.537650 0.752178 0.721935 -0.539402
O36   O     O_R   0.536149 0.003025 0.652489 -0.695866
H4    H     H_    0.546072 0.076262 0.694905 0.309541
C65   C     C_2   0.053962 0.635346 0.936164 1.028507
O37   O     O_2   0.088391 0.603325 0.891429 -0.472336
O38   O     O_R   0.049345 0.499567 0.985069 -0.701286
H5    H     H_    0.076754 0.380560 0.978140 0.344525
C66   C     C_2   0.915988 0.267491 0.088472 0.997354
O39   O     O_2   0.925994 0.432386 0.098127 -0.547299
O40   O     O_R   0.852822 0.195002 0.096606 -0.660591
H6    H     H_    0.818770 0.293680 0.109081 0.375949
C67   C     C_2   0.425717 0.849395 0.558740 0.992711
O41   O     O_2   0.432423 0.001151 0.533239 -0.526301
O42   O     O_R   0.370648 0.821022 0.593813 -0.675345
H7    H     H_    0.338766 0.935649 0.593373 0.352929
C68   C     C_2   0.576572 0.153327 0.440582 1.018547
O43   O     O_2   0.624807 0.188007 0.411131 -0.493745
O44   O     O_R   0.570879 0.975026 0.466839 -0.676631
H8    H     H_    0.610569 0.886890 0.459397 0.362289
C69   C     C_2   0.536487 0.253622 0.815292 0.901771
O45   O     O_2   0.568467 0.376718 0.793427 -0.534068
O46   O     O_R   0.473228 0.204577 0.780566 -0.695096
H9    H     H_    0.459427 0.280804 0.737981 0.346390
C70   C     C_2   0.453523 0.706641 0.173895 0.985773
O47   O     O_2   0.447012 0.723719 0.232776 -0.554157
O48   O     O_R   0.471272 0.533268 0.149154 -0.694719
H10   H     H_    0.481383 0.434000 0.185145 0.366389
C71   C     C_2   0.934478 0.224045 0.665206 0.994472
O49   O     O_2   0.939183 0.230799 0.726010 -0.566582
O50   O     O_R   0.927499 0.053350 0.633094 -0.685380
H11   H     H_    0.922866 0.946375 0.664768 0.338025
C72   C     C_2   0.040629 0.683065 0.306245 0.929273
O51   O     O_2   0.071948 0.804103 0.282378 -0.564350
O52   O     O_R   0.980254 0.619063 0.270305 -0.691684
H12   H     H_    0.968963 0.679447 0.224339 0.361805
C73   C     C_2   0.691610 0.773341 0.944406 0.908980
O53   O     O_2   0.751186 0.814163 0.943070 -0.550399
O54   O     O_R   0.674616 0.586818 0.946462 -0.687283
H13   H     H_    0.715966 0.498417 0.946004 0.369996
C74   C     C_2   0.295706 0.155181 0.034061 0.910694
O55   O     O_2   0.258404 0.233392 0.069370 -0.499357
O56   O     O_R   0.269747 0.126062 0.967083 -0.622998
H14   H     H_    0.302953 0.052253 0.942407 0.310916
C75   C     C_2   0.802870 0.743236 0.539997 0.904482
O57   O     O_2   0.787155 0.887548 0.566491 -0.470939
O58   O     O_R   0.756270 0.670695 0.489104 -0.659283
H15   H     H_    0.775539 0.554844 0.469008 0.315825
C76   C     C_2   0.188056 0.223283 0.452942 0.902471
O59   O     O_2   0.248342 0.256445 0.451418 -0.545966
O60   O     O_R   0.168946 0.040276 0.461051 -0.700873
H16   H     H_    0.209553 0.947390 0.464855 0.366947
C77   C     C_2   0.686781 0.779785 0.082579 0.954229
O61   O     O_2   0.702926 0.616960 0.097145 -0.507016
O62   O     O_R   0.737036 0.912710 0.086784 -0.676305
H17   H     H_    0.784873 0.856993 0.102614 0.368242
C78   C     C_2   0.365537 0.448517 0.980721 0.953837
O63   O     O_2   0.327410 0.504203 0.930783 -0.461914
O64   O     O_R   0.360214 0.529646 0.042365 -0.726475
H18   H     H_    0.323477 0.633837 0.039033 0.336026
C79   C     C_2   0.872197 0.957505 0.457781 0.994504
O65   O     O_2   0.819893 0.958817 0.416952 -0.478185
O66   O     O_R   0.888126 0.113780 0.496461 -0.709165
H19   H     H_    0.851720 0.218402 0.487254 0.330413
C80   C     C_2   0.178759 0.262796 0.589625 0.945307
O67   O     O_2   0.192896 0.106233 0.612964 -0.496442
O68   O     O_R   0.230493 0.390168 0.588773 -0.678190
H20   H     H_    0.277513 0.336151 0.608620 0.349789
N5    N     N_R   0.591008 0.768100 0.172594 0.085805
O69   O     O_R   0.614267 0.597972 0.186147 -0.248746
O70   O     O_R   0.589213 0.885114 0.221070 -0.287342
N6    N     N_R   0.465832 0.477889 0.894815 0.085072
O71   O     O_R   0.417834 0.519976 0.845098 -0.239214
O72   O     O_R   0.516365 0.588561 0.909153 -0.328787
N7    N     N_R   0.970275 0.936502 0.373385 0.085214
O73   O     O_R   0.917240 0.975229 0.328416 -0.239350
O74   O     O_R   0.020972 0.048675 0.381114 -0.336541
N8    N     N_R   0.074798 0.240629 0.670383 0.091707
O75   O     O_R   0.083908 0.061712 0.680218 -0.222305
O76   O     O_R   0.081712 0.351335 0.721201 -0.256234

loop_
_geom_bond_atom_site_label_1
_geom_bond_atom_site_label_2
_geom_bond_distance
_ccdc_geom_bond_type
C34   C38   1.419876 A    
C55   C59   1.406144 A    
O66   H19   1.013873 S    
C44   C56   1.422147 A    
C76   O59   1.223262 D    
C32   C52   1.422243 A    
C38   C74   1.496988 S    
C31   C35   1.416426 A    
O19   V1    1.759831 S    
O13   V1    2.001544 S    
C79   O65   1.223036 D    
O12   C8    1.333567 A    
C63   O33   1.222911 D    
O3    C7    1.326382 A    
O54   H13   1.012297 S    
C56   C60   1.407871 A    
O15   V3    2.017260 S    
C61   O29   1.221277 D    
O48   H10   1.008238 S    
C5    C12   1.505578 S    
C42   C46   1.417567 A    
N1    O21   1.300907 A    
O1    C5    1.331249 A    
C6    C11   1.509666 S    
C63   O34   1.393033 S    
C62   O31   1.221187 D    
C33   C37   1.418197 A    
C9    C18   1.412846 A    
C40   C44   1.428583 A    
O9    V1    2.030033 S    
C56   C80   1.487972 S    
C14   C18   1.416060 A    
C74   O56   1.398676 S    
C30   C34   1.417864 A    
O4    C8    1.328718 A    
C51   C60   1.420399 A    
C13   C65   1.489335 S    
O38   H5    1.014000 S    
O1    V3    1.979245 S    
C12   C23   1.412383 A    
O2    V4    1.979247 S    
C62   O32   1.393829 S    
O3    V1    2.011610 S    
C37   C73   1.484894 S    
C64   O36   1.395802 S    
C61   O30   1.391749 S    
C30   C50   1.427763 A    
C14   C66   1.483584 S    
C60   N8    1.436738 S    
C1    O15   1.323495 A    
O36   H4    1.010219 S    
C2    O16   1.319360 A    
N5    O70   1.301380 A    
C24   N3    1.433504 S    
C40   C76   1.487596 S    
C46   C50   1.414444 A    
O56   H14   1.013204 S    
C77   O62   1.397436 S    
C45   C49   1.415778 A    
O14   V2    2.001544 S    
C21   C25   1.438942 A    
C75   O58   1.396781 S    
C16   C20   1.416664 A    
C44   C48   1.421913 A    
C22   N1    1.438216 S    
C4    C34   1.502299 S    
O11   C7    1.336791 A    
C15   C28   1.435118 A    
C76   O60   1.398123 S    
O10   C6    1.327841 A    
C9    C22   1.412430 A    
C79   O66   1.395895 S    
C45   C46   1.426318 A    
C10   C17   1.411856 A    
O10   V2    2.030031 S    
C11   C24   1.413683 A    
C52   C59   1.419157 A    
C73   O54   1.397386 S    
N6    O72   1.300704 A    
C77   O61   1.222671 D    
O5    V1    1.998487 S    
C80   O68   1.398428 S    
C53   C77   1.484948 S    
C42   C54   1.424605 A    
C39   C43   1.429736 A    
O58   H15   1.013470 S    
C41   C53   1.425414 A    
C38   C42   1.429127 A    
N1    O22   1.299907 A    
C59   N7    1.437379 S    
C27   C28   1.435617 A    
O8    V4    2.029614 S    
O42   H7    1.013967 S    
C21   N2    1.432492 S    
O7    V3    2.029615 S    
C39   C75   1.490393 S    
C65   O37   1.223229 D    
C64   O35   1.222916 D    
C18   C61   1.481320 S    
O64   H18   1.013955 S    
C14   C25   1.427974 A    
C29   C33   1.420901 A    
O18   V4    1.778048 S    
C23   C27   1.442209 A    
C80   O67   1.222584 D    
C30   C70   1.481797 S    
C32   C36   1.417942 A    
C1    C35   1.497713 S    
C72   O52   1.397805 S    
O7    C3    1.325800 A    
N7    O73   1.300906 A    
O5    C1    1.326957 A    
N3    O26   1.301000 A    
N7    O74   1.301106 A    
C71   O50   1.396703 S    
C54   C58   1.412912 A    
O60   H16   1.013389 S    
C53   C57   1.412822 A    
O8    C4    1.333682 A    
C7    C10   1.504350 S    
O9    C5    1.330643 A    
C48   C52   1.415449 A    
C10   C21   1.413107 A    
O40   H6    1.013839 S    
N4    O28   1.300150 A    
C11   C20   1.415189 A    
C67   O41   1.222931 D    
C32   C72   1.487118 S    
O6    V2    1.998485 S    
N2    O24   1.301222 A    
N5    O69   1.301132 A    
C72   O51   1.221290 D    
C70   O47   1.222766 D    
C29   C69   1.485348 S    
O34   H3    1.012690 S    
C4    O14   1.323511 A    
O44   H8    1.013812 S    
C49   C58   1.423497 A    
N3    O25   1.300823 A    
N6    O71   1.301123 A    
C20   C63   1.491970 S    
C68   O44   1.398288 S    
C69   O45   1.221878 D    
O16   V4    2.017260 S    
C2    C36   1.496113 S    
C3    O13   1.332080 A    
C54   C78   1.490470 S    
O17   V3    1.778048 S    
C29   C49   1.426490 A    
C73   O53   1.223206 D    
C31   C71   1.486449 S    
O6    C2    1.329240 A    
C15   C19   1.414366 A    
O50   H11   1.011980 S    
O11   V3    1.970799 S    
O12   V4    1.970799 S    
C16   C27   1.433793 A    
C19   C64   1.487636 S    
C71   O49   1.221758 D    
C22   C26   1.433264 A    
C35   C39   1.417323 A    
C8    C9    1.501071 S    
C15   C67   1.481969 S    
O30   H1    1.012258 S    
C36   C40   1.416240 A    
O2    C6    1.336289 A    
C66   O40   1.396958 S    
O52   H12   1.013913 S    
N8    O75   1.301268 A    
C31   C51   1.419158 A    
C47   C48   1.425948 A    
O68   H20   1.013918 S    
C3    C33   1.504685 S    
C74   O55   1.219643 D    
C47   C51   1.417432 A    
C13   C26   1.421603 A    
C55   C79   1.483398 S    
C68   O43   1.222684 D    
C41   C45   1.419943 A    
C16   C68   1.483067 S    
O20   V2    1.759829 S    
C23   N4    1.434454 S    
C17   C62   1.475469 S    
C43   C47   1.424842 A    
C13   C17   1.409121 A    
N4    O27   1.300347 A    
C67   O42   1.397351 S    
O62   H17   1.013912 S    
C57   N5    1.439526 S    
C37   C41   1.431832 A    
C78   O63   1.222279 D    
C24   C28   1.441993 A    
N2    O23   1.301164 A    
C78   O64   1.397129 S    
C25   C26   1.427900 A    
C58   N6    1.438226 S    
O32   H2    1.010210 S    
C70   O48   1.397243 S    
C12   C19   1.409778 A    
C50   C57   1.422170 A    
C65   O38   1.398457 S    
C75   O57   1.221016 D    
C66   O39   1.222960 D    
N8    O76   1.301186 A    
C43   C55   1.426603 A    
O4    V2    2.011610 S    
O46   H9    1.014101 S    
C69   O46   1.398428 S    
