data_mof_unit_41548.cif
_audit_creation_date              2012-10-26T18:30:10-0400
_audit_creation_method            fapswitch 2.2
_symmetry_space_group_name_H-M    P1
_symmetry_Int_Tables_number       1
_space_group_crystal_system       triclinic
_cell_length_a                    10.649589
_cell_length_b                    12.966639
_cell_length_c                    11.651325
_cell_angle_alpha                 101.026746
_cell_angle_beta                  92.427076
_cell_angle_gamma                 90.726817
_cell_volume                      1577.4491514

loop_
_atom_site_label
_atom_site_type_symbol
_atom_type_description
_atom_site_fract_x
_atom_site_fract_y
_atom_site_fract_z
_atom_type_partial_charge
C1    C     C_R   0.486210 0.298885 0.477696 0.526199
C2    C     C_R   0.604683 0.591498 0.856107 0.038910
C3    C     C_R   0.548844 0.544625 0.157287 0.041276
C4    C     C_R   0.449104 0.456951 0.842809 0.040950
C5    C     C_R   0.540931 0.537774 0.034376 0.007292
C6    C     C_R   0.456346 0.464639 0.965719 0.008192
C7    C     C_R   0.259580 0.498826 0.501617 0.573949
C8    C     C_R   0.740725 0.500632 0.498402 0.576251
C9    C     C_3   0.041173 0.496347 0.609995 0.009212
C10   C     C_3   0.960384 0.502767 0.390327 -0.001424
C11   C     C_3   0.956379 0.413033 0.530749 0.276486
C12   C     C_R   0.491350 0.701013 0.523223 0.550213
C13   C     C_3   0.045211 0.585798 0.469815 0.270045
C14   C     C_3   0.877194 0.500837 0.495571 0.009992
C15   C     C_3   0.123735 0.498111 0.504842 0.010934
C16   C     C_3   0.961658 0.585570 0.575593 -0.174554
C17   C     C_3   0.040023 0.413455 0.425283 -0.188767
C18   C     C_R   0.472629 0.815105 0.539506 -0.019973
C19   C     C_R   0.465225 0.184215 0.463569 -0.031933
C20   C     C_R   0.448657 0.009160 0.342551 0.042272
C21   C     C_R   0.454619 0.989273 0.660495 0.038387
C22   C     C_R   0.426698 0.118440 0.355297 0.017287
C23   C     C_R   0.482474 0.140233 0.563323 -0.152250
C24   C     C_R   0.438324 0.878437 0.647258 0.011476
C25   C     C_3   0.913744 0.231642 0.495363 0.000672
C26   C     C_3   0.818198 0.219854 0.391045 -0.255868
C27   C     C_3   0.811629 0.107572 0.321134 -0.491783
C28   C     C_3   0.050386 0.766673 0.485813 -0.001567
C29   C     C_3   0.107114 0.856570 0.435953 -0.250531
C30   C     C_3   0.051777 0.961910 0.489534 -0.495635
C31   C     C_3   0.090199 0.491843 0.734251 -0.247257
C32   C     C_3   0.983846 0.498748 0.819031 -0.419435
C33   C     C_3   0.918901 0.501632 0.262736 -0.246930
C34   C     C_R   0.486864 0.860601 0.441478 -0.163556
C35   C     C_3   0.878316 0.609322 0.242879 -0.418743
C36   C     C_3   0.381481 0.828901 0.743773 -0.253156
C37   C     C_3   0.257259 0.876732 0.787226 -0.459237
C38   C     C_3   0.356243 0.163990 0.259725 -0.260800
C39   C     C_3   0.233631 0.105356 0.211723 -0.464881
C40   C     C_3   0.455898 0.940543 0.220769 -0.268599
C41   C     C_3   0.346073 0.860849 0.188400 -0.437488
C42   C     C_3   0.459974 0.059578 0.782062 -0.262291
C43   C     C_3   0.344202 0.128770 0.804731 -0.439568
C44   C     C_R   0.466754 0.032666 0.557807 0.017598
C45   C     C_R   0.466770 0.966837 0.446095 0.010891
C46   C     C_R   0.380262 0.402249 0.021719 -0.180008
C47   C     C_R   0.614521 0.602317 0.978538 -0.183134
C48   C     C_R   0.391389 0.411997 0.143939 0.044923
Cu1   Cu    Cu3+1 0.509400 0.507730 0.615930 0.921510
Cu2   Cu    Cu3+1 0.490600 0.492270 0.384070 0.927023
H1    H     H_    0.926063 0.654332 0.636588 0.082063
H2    H     H_    0.678786 0.660923 0.028814 0.073826
H3    H     H_    0.893963 0.168685 0.545128 0.155049
H4    H     H_    0.011550 0.219251 0.466391 0.114830
H5    H     H_    0.724054 0.241076 0.423730 0.195664
H6    H     H_    0.843762 0.273830 0.332058 0.148742
H7    H     H_    0.905713 0.083251 0.289448 0.140453
H8    H     H_    0.744741 0.102973 0.244476 0.146659
H9    H     H_    0.777588 0.052822 0.376172 0.147139
H10   H     H_    0.071563 0.781677 0.581926 0.130222
H11   H     H_    0.946636 0.764275 0.467888 0.122451
H12   H     H_    0.076513 0.345653 0.363416 0.084774
H13   H     H_    0.210475 0.860326 0.453841 0.191285
H14   H     H_    0.087968 0.841562 0.339659 0.155065
H15   H     H_    0.948815 0.960658 0.469809 0.138731
H16   H     H_    0.095806 0.025446 0.452336 0.139865
H17   H     H_    0.069915 0.979477 0.585825 0.139587
H18   H     H_    0.933565 0.573765 0.822904 0.139482
H19   H     H_    0.915984 0.432027 0.791677 0.207705
H20   H     H_    0.023397 0.495784 0.908045 0.121587
H21   H     H_    0.140606 0.417186 0.732969 0.147656
H22   H     H_    0.157404 0.558556 0.765299 0.147693
H23   H     H_    0.512177 0.811583 0.360638 0.132746
H24   H     H_    0.810225 0.643845 0.308324 0.146746
H25   H     H_    0.960994 0.663154 0.248470 0.183308
H26   H     H_    0.834226 0.601160 0.153663 0.112981
H27   H     H_    0.998514 0.475873 0.206209 0.142641
H28   H     H_    0.840332 0.443681 0.236492 0.148729
H29   H     H_    0.273466 0.941818 0.863355 0.146485
H30   H     H_    0.203267 0.904510 0.716087 0.152227
H31   H     H_    0.198562 0.816698 0.817811 0.122276
H32   H     H_    0.354600 0.745694 0.711206 0.190004
H33   H     H_    0.450845 0.831856 0.818315 0.128828
H34   H     H_    0.507134 0.191234 0.645759 0.143356
H35   H     H_    0.250686 0.041496 0.136595 0.150288
H36   H     H_    0.186268 0.074064 0.281295 0.151585
H37   H     H_    0.168324 0.159975 0.177958 0.118524
H38   H     H_    0.323207 0.243042 0.297344 0.162672
H39   H     H_    0.418796 0.170404 0.187393 0.135870
H40   H     H_    0.364662 0.786850 0.219803 0.161153
H41   H     H_    0.257584 0.893200 0.225548 0.150320
H42   H     H_    0.332118 0.840256 0.091643 0.130462
H43   H     H_    0.459451 0.989611 0.152753 0.138165
H44   H     H_    0.546391 0.898624 0.214339 0.118577
H45   H     H_    0.383833 0.401417 0.789120 0.103536
H46   H     H_    0.355745 0.203328 0.772852 0.133572
H47   H     H_    0.257744 0.088033 0.761218 0.154977
H48   H     H_    0.330831 0.149182 0.900365 0.125061
H49   H     H_    0.470452 0.012624 0.851781 0.136511
H50   H     H_    0.546677 0.109658 0.794369 0.127659
H51   H     H_    0.611611 0.601783 0.211193 0.109881
H52   H     H_    0.661835 0.641413 0.813768 0.118401
H53   H     H_    0.330107 0.365523 0.185996 0.108953
H54   H     H_    0.311940 0.347050 0.971717 0.079108
N1    N     N_R   0.523540 0.519360 0.790140 -0.228569
N2    N     N_R   0.476460 0.480640 0.209860 -0.226130
O1    O     O_R   0.506670 0.354460 0.582000 -0.500012
O2    O     O_3   0.104020 0.671504 0.432858 -0.559646
O3    O     O_R   0.493330 0.645540 0.418000 -0.504117
O4    O     O_R   0.490800 0.341410 0.386200 -0.519392
O5    O     O_R   0.509200 0.658590 0.613800 -0.525447
O6    O     O_R   0.324790 0.506500 0.597880 -0.531402
O7    O     O_R   0.675210 0.493500 0.402120 -0.515604
O8    O     O_R   0.308910 0.493440 0.402080 -0.482884
O9    O     O_R   0.691090 0.506560 0.597920 -0.476861
O10   O     O_3   0.901010 0.328510 0.572967 -0.568635

loop_
_geom_bond_atom_site_label_1
_geom_bond_atom_site_label_2
_ccdc_geom_bond_type
C29   H13   S    
C35   H24   S    
C43   H48   S    
C39   H37   S    
C40   H43   S    
C26   H5    S    
Cu1   O1    S    
C37   H29   S    
C38   H39   S    
C35   H25   S    
C26   C27   S    
C24   C36   S    
C18   C24   A    
C7    O8    A    
C36   C37   S    
C9    C16   S    
C25   H3    S    
C38   C39   S    
C20   C40   S    
C11   C14   S    
C33   H28   S    
C2    H52   S    
C10   C17   S    
C4    H45   S    
Cu2   O4    S    
C7    O6    A    
C8    O9    A    
C48   N2    A    
C36   H32   S    
C16   H1    S    
C31   H22   S    
C30   H17   S    
Cu1   O5    S    
C28   H11   S    
C3    H51   S    
C31   H21   S    
C41   H40   S    
C29   H14   S    
C37   H31   S    
C13   O2    S    
C12   O3    A    
C28   H10   S    
C3    N2    A    
C37   H30   S    
C46   C48   A    
C35   H26   S    
C1    C19   S    
C23   H34   S    
C5    C47   A    
C43   H47   S    
C19   C22   A    
C25   H4    S    
C4    C6    A    
C10   C14   S    
C25   O10   S    
C32   H20   S    
C25   C26   S    
C48   H53   S    
C46   H54   S    
C10   C13   S    
Cu2   O3    S    
C23   C44   A    
C38   H38   S    
Cu2   O8    S    
C47   H2    S    
C19   C23   A    
C29   C30   S    
C42   H50   S    
C17   H12   S    
C21   C44   A    
C18   C34   A    
C31   C32   S    
C43   H46   S    
C34   C45   A    
C11   O10   S    
C9    C11   S    
C30   H16   S    
C8    O7    A    
C1    O1    A    
Cu1   O6    S    
C40   C41   S    
C41   H41   S    
C20   C22   A    
C13   C15   S    
C27   H7    S    
C14   C16   S    
C21   C24   A    
C42   C43   S    
C39   H35   S    
C44   C45   A    
C15   C17   S    
C28   C29   S    
C8    C14   S    
C6    C46   A    
Cu1   O9    S    
C11   C17   S    
C1    O4    A    
C20   C45   A    
C40   H44   S    
C3    C5    A    
C27   H8    S    
C26   H6    S    
Cu1   N1    S    
C32   H19   S    
C2    C47   A    
C4    N1    A    
C2    N1    A    
C32   H18   S    
Cu2   O7    S    
C9    C15   S    
C27   H9    S    
C42   H49   S    
C33   H27   S    
C5    C6    A    
C28   O2    S    
C7    C15   S    
C33   C35   S    
C10   C33   S    
C30   H15   S    
C9    C31   S    
C34   H23   S    
C21   C42   S    
C41   H42   S    
Cu1   Cu2   S    
C13   C16   S    
C12   C18   S    
Cu2   N2    S    
C36   H33   S    
C39   H36   S    
C12   O5    A    
C22   C38   S    
