data_mof_unit_52397.cif
_audit_creation_date              2012-12-11T15:20:05-0500
_audit_creation_method            fapswitch 2.2
_symmetry_space_group_name_H-M    P1
_symmetry_Int_Tables_number       1
_space_group_crystal_system       triclinic
_cell_length_a                    16.64037
_cell_length_b                    16.640282
_cell_length_c                    43.300252
_cell_angle_alpha                 89.999782
_cell_angle_beta                  90.000097
_cell_angle_gamma                 120.000223
_cell_volume                      10383.4993543

loop_
_atom_site_label
_atom_site_type_symbol
_atom_type_description
_atom_site_fract_x
_atom_site_fract_y
_atom_site_fract_z
_atom_type_partial_charge
C1    C     C_R   0.584158 0.426103 0.794459 0.587419
C2    C     C_R   0.841959 0.415851 0.705545 0.587440
C3    C     C_R   0.573894 0.158049 0.794457 0.587452
C4    C     C_R   0.584155 0.426105 0.705542 0.587418
C5    C     C_R   0.841955 0.415848 0.794456 0.587431
C6    C     C_R   0.573893 0.158046 0.705544 0.587441
C7    C     C_R   0.426104 0.584155 0.294457 0.587427
C8    C     C_R   0.415844 0.841949 0.205542 0.587436
C9    C     C_R   0.158062 0.573900 0.294461 0.587400
C10   C     C_R   0.426106 0.584153 0.205544 0.587422
C11   C     C_R   0.415842 0.841946 0.294458 0.587446
C12   C     C_R   0.158057 0.573898 0.205541 0.587414
C13   C     C_R   0.148832 0.542833 0.119987 0.257265
C14   C     C_R   0.394039 0.851100 0.380015 0.257281
C15   C     C_R   0.457108 0.605850 0.119987 0.257296
C16   C     C_R   0.148804 0.542748 0.380011 0.257253
C17   C     C_R   0.394081 0.851155 0.119986 0.257272
C18   C     C_R   0.457107 0.605890 0.380014 0.257275
C19   C     C_R   0.542920 0.148784 0.619987 0.257281
C20   C     C_R   0.851278 0.394173 0.880013 0.257297
C21   C     C_R   0.605918 0.457156 0.619988 0.257262
C22   C     C_R   0.542947 0.148836 0.880014 0.257270
C23   C     C_R   0.851270 0.394206 0.619987 0.257304
C24   C     C_R   0.605991 0.457198 0.880011 0.257259
C25   C     C_R   0.174657 0.549946 0.150818 -0.157156
C26   C     C_R   0.375342 0.825256 0.349185 -0.157153
C27   C     C_R   0.449942 0.624586 0.150811 -0.157137
C28   C     C_R   0.174604 0.549833 0.349179 -0.157128
C29   C     C_R   0.375374 0.825284 0.150813 -0.157154
C30   C     C_R   0.449961 0.624619 0.349187 -0.157134
C31   C     C_R   0.550123 0.174698 0.650810 -0.157160
C32   C     C_R   0.825359 0.375437 0.849190 -0.157135
C33   C     C_R   0.624637 0.449996 0.650814 -0.157162
C34   C     C_R   0.550125 0.174724 0.849188 -0.157157
C35   C     C_R   0.825329 0.375476 0.650808 -0.157156
C36   C     C_R   0.624708 0.450083 0.849181 -0.157149
C37   C     C_R   0.045068 0.569792 0.165891 0.239977
C38   C     C_R   0.524647 0.955030 0.334101 0.239990
C39   C     C_R   0.430418 0.475307 0.165926 0.239987
C40   C     C_R   0.045165 0.569944 0.334120 0.239961
C41   C     C_R   0.524651 0.955077 0.165910 0.239998
C42   C     C_R   0.430356 0.475299 0.334086 0.239968
C43   C     C_R   0.569464 0.044833 0.665927 0.240023
C44   C     C_R   0.955152 0.524682 0.834068 0.239991
C45   C     C_R   0.475303 0.430360 0.665913 0.240000
C46   C     C_R   0.569510 0.044877 0.834083 0.240008
C47   C     C_R   0.955227 0.524640 0.665941 0.240011
C48   C     C_R   0.475262 0.430203 0.834104 0.239981
C49   C     C_R   0.017245 0.560089 0.134856 0.462991
C50   C     C_R   0.542752 0.982863 0.365136 0.462992
C51   C     C_R   0.440167 0.457164 0.134898 0.463005
C52   C     C_R   0.017358 0.560260 0.365156 0.462987
C53   C     C_R   0.542766 0.982935 0.134878 0.462998
C54   C     C_R   0.440087 0.457163 0.365117 0.463006
C55   C     C_R   0.559689 0.016937 0.634898 0.463006
C56   C     C_R   0.983061 0.542825 0.865095 0.463008
C57   C     C_R   0.457176 0.440106 0.634882 0.462999
C58   C     C_R   0.559755 0.017006 0.865114 0.462999
C59   C     C_R   0.983154 0.542777 0.634915 0.463010
C60   C     C_R   0.457140 0.439919 0.865138 0.462984
C61   C     C_R   0.068896 0.546521 0.111758 0.197747
C62   C     C_R   0.477592 0.931130 0.388238 0.197752
C63   C     C_R   0.453597 0.522291 0.111782 0.197720
C64   C     C_R   0.068946 0.546572 0.388248 0.197773
C65   C     C_R   0.477624 0.931206 0.111770 0.197720
C66   C     C_R   0.453551 0.522315 0.388227 0.197751
C67   C     C_R   0.546333 0.068683 0.611783 0.197686
C68   C     C_R   0.931354 0.477715 0.888214 0.197686
C69   C     C_R   0.522339 0.453589 0.611773 0.197686
C70   C     C_R   0.546388 0.068755 0.888225 0.197719
C71   C     C_R   0.931404 0.477706 0.611792 0.197645
C72   C     C_R   0.522360 0.453504 0.888238 0.197706
C73   C     C_R   0.876684 0.439816 0.826103 -0.077874
C74   C     C_R   0.563133 0.123336 0.673894 -0.077821
C75   C     C_R   0.560219 0.436848 0.826113 -0.077909
C76   C     C_R   0.876694 0.439819 0.673899 -0.077844
C77   C     C_R   0.563143 0.123356 0.826109 -0.077825
C78   C     C_R   0.560205 0.436861 0.673891 -0.077878
C79   C     C_R   0.439769 0.876611 0.326114 -0.077849
C80   C     C_R   0.123385 0.563159 0.173885 -0.077904
C81   C     C_R   0.436852 0.560200 0.326109 -0.077896
C82   C     C_R   0.439783 0.876634 0.173889 -0.077843
C83   C     C_R   0.123393 0.563162 0.326117 -0.077939
C84   C     C_R   0.436862 0.560190 0.173895 -0.077880
C85   C     C_R   0.018712 0.599311 0.032266 -0.001346
C86   C     C_R   0.580598 0.981408 0.467725 -0.001331
C87   C     C_R   0.400911 0.419175 0.032311 -0.001327
C88   C     C_R   0.018903 0.599414 0.467753 -0.001357
C89   C     C_R   0.580682 0.981570 0.032290 -0.001321
C90   C     C_R   0.400826 0.419268 0.467709 -0.001336
C91   C     C_R   0.598985 0.018207 0.532314 -0.001306
C92   C     C_R   0.981900 0.580893 0.967677 -0.001337
C93   C     C_R   0.419236 0.400881 0.532299 -0.001328
C94   C     C_R   0.599074 0.018364 0.967701 -0.001308
C95   C     C_R   0.982085 0.580972 0.532341 -0.001325
C96   C     C_R   0.419317 0.400761 0.967722 -0.001352
C97   C     C_R   0.041584 0.607865 0.064104 0.534334
C98   C     C_R   0.566293 0.958547 0.435885 0.534303
C99   C     C_R   0.392346 0.433508 0.064147 0.534292
C100  C     C_R   0.041768 0.607970 0.435914 0.534362
C101  C     C_R   0.566366 0.958691 0.064128 0.534282
C102  C     C_R   0.392271 0.433579 0.435870 0.534312
C103  C     C_R   0.607555 0.041110 0.564150 0.534242
C104  C     C_R   0.958983 0.566552 0.935842 0.534281
C105  C     C_R   0.433573 0.392316 0.564135 0.534284
C106  C     C_R   0.607634 0.041244 0.935863 0.534261
C107  C     C_R   0.959155 0.566619 0.564174 0.534250
C108  C     C_R   0.433650 0.392193 0.935886 0.534326
C109  C     C_R   0.016625 0.453093 0.065128 0.515249
C110  C     C_R   0.436353 0.983307 0.434871 0.515269
C111  C     C_R   0.547018 0.563497 0.065151 0.515258
C112  C     C_R   0.016567 0.453109 0.434867 0.515240
C113  C     C_R   0.436381 0.983379 0.065136 0.515268
C114  C     C_R   0.546975 0.563514 0.434857 0.515254
C115  C     C_R   0.452915 0.016514 0.565149 0.515277
C116  C     C_R   0.983513 0.436468 0.934850 0.515255
C117  C     C_R   0.563553 0.546991 0.565136 0.515254
C118  C     C_R   0.452970 0.016582 0.934858 0.515276
C119  C     C_R   0.983463 0.436393 0.565146 0.515267
C120  C     C_R   0.563546 0.546915 0.934873 0.515240
C121  C     C_R   0.008874 0.446686 0.032621 0.007213
C122  C     C_R   0.437721 0.991087 0.467378 0.007182
C123  C     C_R   0.553418 0.562110 0.032644 0.007218
C124  C     C_R   0.008809 0.446674 0.467374 0.007212
C125  C     C_R   0.437756 0.991158 0.032629 0.007187
C126  C     C_R   0.553379 0.562149 0.467364 0.007218
C127  C     C_R   0.446512 0.008710 0.532642 0.007182
C128  C     C_R   0.991286 0.437858 0.967357 0.007216
C129  C     C_R   0.562186 0.553370 0.532628 0.007222
C130  C     C_R   0.446561 0.008781 0.967365 0.007182
C131  C     C_R   0.991222 0.437801 0.532638 0.007217
C132  C     C_R   0.562200 0.553301 0.967380 0.007223
C133  C     C_R   0.007042 0.519661 0.016212 -0.117569
C134  C     C_R   0.512575 0.993001 0.483783 -0.117563
C135  C     C_R   0.480497 0.487219 0.016247 -0.117565
C136  C     C_R   0.007106 0.519698 0.483794 -0.117571
C137  C     C_R   0.512638 0.993118 0.016229 -0.117561
C138  C     C_R   0.480438 0.487293 0.483767 -0.117561
C139  C     C_R   0.519417 0.006702 0.516247 -0.117556
C140  C     C_R   0.993348 0.512802 0.983748 -0.117572
C141  C     C_R   0.487289 0.480455 0.516232 -0.117567
C142  C     C_R   0.519485 0.006818 0.983764 -0.117554
C143  C     C_R   0.993410 0.512822 0.516259 -0.117573
C144  C     C_R   0.487341 0.480366 0.983782 -0.117582
C145  C     C_R   0.009713 0.668419 0.015893 0.263347
C146  C     C_R   0.658735 0.990469 0.484094 0.263368
C147  C     C_R   0.331870 0.340994 0.015949 0.263349
C148  C     C_R   0.010029 0.668579 0.484137 0.263333
C149  C     C_R   0.658851 0.990691 0.015926 0.263370
C150  C     C_R   0.331753 0.341126 0.484077 0.263326
C151  C     C_R   0.668006 0.009022 0.515957 0.263401
C152  C     C_R   0.991148 0.659131 0.984030 0.263375
C153  C     C_R   0.341038 0.331852 0.515941 0.263344
C154  C     C_R   0.668123 0.009239 0.984063 0.263381
C155  C     C_R   0.991461 0.659280 0.516000 0.263385
C156  C     C_R   0.341153 0.331709 0.984086 0.263341
C157  C     C_R   0.003918 0.370544 0.016138 0.262128
C158  C     C_R   0.366512 0.995988 0.483865 0.262111
C159  C     C_R   0.629499 0.633332 0.016150 0.262130
C160  C     C_R   0.003718 0.370454 0.483846 0.262132
C161  C     C_R   0.366527 0.996011 0.016138 0.262106
C162  C     C_R   0.629485 0.633360 0.483853 0.262136
C163  C     C_R   0.370447 0.003881 0.516146 0.262092
C164  C     C_R   0.996032 0.366584 0.983858 0.262140
C165  C     C_R   0.633438 0.629421 0.516133 0.262128
C166  C     C_R   0.370471 0.003907 0.983858 0.262090
C167  C     C_R   0.995832 0.366470 0.516126 0.262141
C168  C     C_R   0.633436 0.629380 0.983869 0.262142
Cr1   Cr    Cr6+3 0.530290 0.262330 0.750000 1.159087
Cr2   Cr    Cr6+3 0.732040 0.469710 0.750000 1.158919
Cr3   Cr    Cr6+3 0.737670 0.267960 0.750000 1.158975
Cr4   Cr    Cr6+3 0.262330 0.530290 0.250000 1.158955
Cr5   Cr    Cr6+3 0.469710 0.732040 0.250000 1.158999
Cr6   Cr    Cr6+3 0.267960 0.737670 0.250000 1.159134
H1    H     H_    0.236504 0.547157 0.156795 0.160826
H2    H     H_    0.310759 0.763340 0.343212 0.160677
H3    H     H_    0.452601 0.689174 0.156771 0.160719
H4    H     H_    0.236393 0.546939 0.343197 0.160925
H5    H     H_    0.310798 0.763353 0.156781 0.160670
H6    H     H_    0.452657 0.689220 0.343222 0.160746
H7    H     H_    0.547536 0.236666 0.656770 0.160635
H8    H     H_    0.763412 0.310861 0.843234 0.160702
H9    H     H_    0.689241 0.452699 0.656780 0.160768
H10   H     H_    0.547518 0.236678 0.843224 0.160637
H11   H     H_    0.763340 0.310933 0.656761 0.160632
H12   H     H_    0.689353 0.452886 0.843206 0.160853
N1    N     N_R   0.039820 0.535134 0.079855 -0.367522
N2    N     N_R   0.495266 0.960211 0.420140 -0.367519
N3    N     N_R   0.465018 0.504576 0.079885 -0.367529
N4    N     N_R   0.039881 0.535195 0.420152 -0.367522
N5    N     N_R   0.495311 0.960310 0.079870 -0.367524
N6    N     N_R   0.464963 0.504612 0.420126 -0.367524
N7    N     N_R   0.534901 0.039549 0.579886 -0.367525
N8    N     N_R   0.960504 0.495432 0.920109 -0.367543
N9    N     N_R   0.504633 0.464996 0.579874 -0.367533
N10   N     N_R   0.534965 0.039641 0.920124 -0.367518
N11   N     N_R   0.960563 0.495424 0.579897 -0.367549
N12   N     N_R   0.504665 0.464896 0.920141 -0.367540
O1    O     O_R   0.509640 0.171340 0.784000 -0.465897
O2    O     O_R   0.661700 0.490360 0.716000 -0.465969
O3    O     O_R   0.828660 0.338300 0.784000 -0.465927
O4    O     O_R   0.509640 0.171340 0.716000 -0.465908
O5    O     O_R   0.661700 0.490360 0.784000 -0.465990
O6    O     O_R   0.828660 0.338300 0.716000 -0.465914
O7    O     O_R   0.171340 0.509640 0.284000 -0.466000
O8    O     O_R   0.490360 0.661700 0.216000 -0.465927
O9    O     O_R   0.338300 0.828660 0.284000 -0.465898
O10   O     O_R   0.171340 0.509640 0.216000 -0.465973
O11   O     O_R   0.490360 0.661700 0.284000 -0.465927
O12   O     O_R   0.338300 0.828660 0.216000 -0.465905
O13   O     O_R   0.539230 0.345420 0.781810 -0.471934
O14   O     O_R   0.806190 0.460770 0.718190 -0.472035
O15   O     O_R   0.654580 0.193810 0.781810 -0.472020
O16   O     O_R   0.539230 0.345420 0.718190 -0.471959
O17   O     O_R   0.806190 0.460770 0.781810 -0.472030
O18   O     O_R   0.654580 0.193810 0.718190 -0.472012
O19   O     O_R   0.345420 0.539230 0.281810 -0.472015
O20   O     O_R   0.460770 0.806190 0.218190 -0.472004
O21   O     O_R   0.193810 0.654580 0.281810 -0.471906
O22   O     O_R   0.345420 0.539230 0.218190 -0.472010
O23   O     O_R   0.460770 0.806190 0.281810 -0.472006
O24   O     O_R   0.193810 0.654580 0.218190 -0.471934
O25   O     O_3   0.666667 0.333333 0.750000 -0.327566
O26   O     O_3   0.333333 0.666667 0.250000 -0.327587
O27   O     O_2   0.065057 0.680306 0.077850 -0.331853
O28   O     O_2   0.615328 0.935174 0.422132 -0.331926
O29   O     O_2   0.319943 0.384463 0.077902 -0.331920
O30   O     O_2   0.065344 0.680446 0.422177 -0.331778
O31   O     O_2   0.615415 0.935336 0.077883 -0.331969
O32   O     O_2   0.319862 0.384546 0.422116 -0.331861
O33   O     O_2   0.679948 0.064438 0.577907 -0.332054
O34   O     O_2   0.935676 0.615633 0.922085 -0.331915
O35   O     O_2   0.384541 0.319906 0.577888 -0.331951
O36   O     O_2   0.680032 0.064587 0.922107 -0.332020
O37   O     O_2   0.935936 0.615757 0.577940 -0.331996
O38   O     O_2   0.384655 0.319762 0.922139 -0.331848
O39   O     O_2   0.003564 0.386324 0.080624 -0.354977
O40   O     O_2   0.382564 0.996254 0.419379 -0.354924
O41   O     O_2   0.613752 0.617313 0.080639 -0.354955
O42   O     O_2   0.003405 0.386322 0.419362 -0.354984
O43   O     O_2   0.382570 0.996299 0.080626 -0.354931
O44   O     O_2   0.613718 0.617294 0.419365 -0.354957
O45   O     O_2   0.386197 0.003650 0.580636 -0.354929
O46   O     O_2   0.996382 0.382610 0.919367 -0.354939
O47   O     O_2   0.617346 0.613743 0.580622 -0.354971
O48   O     O_2   0.386247 0.003692 0.919369 -0.354931
O49   O     O_2   0.996246 0.382463 0.580619 -0.354925
O50   O     O_2   0.617284 0.613683 0.919382 -0.354970
Cl1   Cl    Cl    0.985791 0.266618 0.965194 -0.231549
Cl2   Cl    Cl    0.280658 0.014001 0.534815 -0.231441
Cl3   Cl    Cl    0.733341 0.719140 0.965190 -0.231632
Cl4   Cl    Cl    0.985400 0.266404 0.534776 -0.231585
Cl5   Cl    Cl    0.280651 0.013964 0.965185 -0.231445
Cl6   Cl    Cl    0.733379 0.719162 0.534804 -0.231699
Cl7   Cl    Cl    0.266662 0.985969 0.465184 -0.231346
Cl8   Cl    Cl    0.013885 0.280690 0.034825 -0.231546
Cl9   Cl    Cl    0.719304 0.733224 0.465174 -0.231583
Cl10  Cl    Cl    0.266638 0.985915 0.034815 -0.231419
Cl11  Cl    Cl    0.013508 0.280517 0.465144 -0.231495
Cl12  Cl    Cl    0.719302 0.733224 0.034821 -0.231590
Cl13  Cl    Cl    0.020549 0.607374 0.805593 -0.312574
Cl14  Cl    Cl    0.586680 0.979378 0.694399 -0.312592
Cl15  Cl    Cl    0.392421 0.412658 0.805656 -0.312627
Cl16  Cl    Cl    0.020681 0.607279 0.694422 -0.312555
Cl17  Cl    Cl    0.586746 0.979422 0.805616 -0.312603
Cl18  Cl    Cl    0.392545 0.412962 0.694374 -0.312621
Cl19  Cl    Cl    0.607400 0.020459 0.305647 -0.312648
Cl20  Cl    Cl    0.979746 0.587301 0.194338 -0.312675
Cl21  Cl    Cl    0.412982 0.392553 0.305622 -0.312630
Cl22  Cl    Cl    0.607378 0.020503 0.194371 -0.312647
Cl23  Cl    Cl    0.979930 0.587617 0.305682 -0.312693
Cl24  Cl    Cl    0.413089 0.392594 0.194397 -0.312623
Cl25  Cl    Cl    0.985095 0.750896 0.965165 -0.211575
Cl26  Cl    Cl    0.765860 0.015139 0.534817 -0.211567
Cl27  Cl    Cl    0.249460 0.233802 0.965234 -0.211621
Cl28  Cl    Cl    0.985570 0.751113 0.534879 -0.211609
Cl29  Cl    Cl    0.766022 0.015435 0.965211 -0.211609
Cl30  Cl    Cl    0.249311 0.233992 0.534801 -0.211699
Cl31  Cl    Cl    0.750398 0.984173 0.465253 -0.211540
Cl32  Cl    Cl    0.016081 0.766414 0.034731 -0.211553
Cl33  Cl    Cl    0.233795 0.249463 0.465236 -0.211672
Cl34  Cl    Cl    0.750553 0.984488 0.034777 -0.211601
Cl35  Cl    Cl    0.016557 0.766665 0.465313 -0.211542
Cl36  Cl    Cl    0.233968 0.249295 0.034801 -0.211641
F1    F     F_    0.060902 0.623114 0.872789 -0.491848
F2    F     F_    0.562075 0.939066 0.627199 -0.491881
F3    F     F_    0.376759 0.437242 0.872858 -0.491837
F4    F     F_    0.061055 0.623019 0.627227 -0.491848
F5    F     F_    0.562173 0.939157 0.872820 -0.491888
F6    F     F_    0.376851 0.437563 0.627174 -0.491857
F7    F     F_    0.623055 0.060655 0.372854 -0.491869
F8    F     F_    0.939539 0.562756 0.127133 -0.491856
F9    F     F_    0.437548 0.376839 0.372824 -0.491858
F10   F     F_    0.623058 0.060749 0.127167 -0.491869
F11   F     F_    0.939730 0.563066 0.372887 -0.491844
F12   F     F_    0.437677 0.376858 0.127198 -0.491863
Cl37  Cl    Cl    0.219502 0.531314 0.092093 -0.419447
Cl38  Cl    Cl    0.311929 0.780348 0.407916 -0.419632
Cl39  Cl    Cl    0.468482 0.687928 0.092070 -0.419404
Cl40  Cl    Cl    0.219416 0.531110 0.407899 -0.419519
Cl41  Cl    Cl    0.311992 0.780412 0.092078 -0.419534
Cl42  Cl    Cl    0.468508 0.687993 0.407924 -0.419542
Cl43  Cl    Cl    0.531609 0.219525 0.592070 -0.419369
Cl44  Cl    Cl    0.780560 0.312115 0.907932 -0.419332
Cl45  Cl    Cl    0.688044 0.468591 0.592081 -0.419316
Cl46  Cl    Cl    0.531637 0.219590 0.907926 -0.419531
Cl47  Cl    Cl    0.780512 0.312189 0.592064 -0.419238
Cl48  Cl    Cl    0.688181 0.468722 0.907906 -0.419376

loop_
_geom_bond_atom_site_label_1
_geom_bond_atom_site_label_2
_ccdc_geom_bond_type
C132  C144  A    
Cr6   O24   S    
C93   C141  A    
C45   C57   A    
C47   C76   A    
C112  C124  A    
C33   C78   A    
C21   C33   A    
C60   C72   A    
Cr1   O13   S    
C165  Cl6   S    
C86   C134  A    
C71   N11   S    
C45   C78   A    
C96   C108  A    
C19   C31   A    
C31   H7    S    
C28   C83   A    
C40   C83   A    
C4    O16   A    
C44   Cl13  S    
C58   C70   A    
C106  N10   Am   
Cr2   O17   S    
C55   F2    S    
C153  Cl30  S    
C4    C78   S    
C46   C77   A    
C162  C165  A    
C15   C27   A    
C13   Cl37  S    
C122  C158  A    
Cr6   O26   S    
C14   C26   A    
C11   C79   S    
C9    C83   S    
Cr3   O18   S    
C111  N3    Am   
C3    C77   S    
C131  C143  A    
C62   N2    S    
C97   N1    Am   
C168  Cl3   S    
C89   C101  A    
C20   C68   A    
C100  N4    Am   
C91   C103  A    
C155  Cl28  S    
C101  N5    Am   
C138  C141  A    
C43   Cl14  S    
Cr3   O25   S    
C118  O48   D    
C3    O15   A    
C22   Cl46  S    
C93   C153  A    
C29   C82   A    
C63   N3    S    
C147  Cl36  S    
C109  C121  A    
C96   C156  A    
C123  C159  A    
C46   Cl17  S    
C41   C82   A    
C124  C160  A    
C151  Cl26  S    
C85   C97   A    
C92   C104  A    
C47   C59   A    
C96   C144  A    
Cr2   O14   S    
C29   H5    S    
C123  C135  A    
C102  O32   D    
C30   H6    S    
C50   F7    S    
Cr5   O26   S    
C150  Cl33  S    
C42   C54   A    
C57   F6    S    
C39   C51   A    
C137  C142  A    
C116  O46   D    
C24   Cl48  S    
C90   C150  A    
C11   O23   A    
C109  N1    Am   
C110  N2    Am   
C20   Cl44  S    
Cr4   O7    S    
C85   C145  A    
C39   C84   A    
C136  C143  A    
C126  C162  A    
C5    O3    A    
C114  C126  A    
C89   C137  A    
C14   C62   A    
C128  C164  A    
Cr3   O6    S    
C119  O49   D    
C122  C134  A    
Cr1   O4    S    
C58   F5    S    
C65   N5    S    
C112  O42   D    
C66   N6    S    
C119  C131  A    
Cr5   O8    S    
C148  C155  A    
C117  C129  A    
Cr4   O22   S    
C35   H11   S    
C116  N8    Am   
C131  C167  A    
C46   C58   A    
C42   C81   A    
C11   O9    A    
C8    O12   A    
C90   C138  A    
C103  O33   D    
C22   C34   A    
C37   C80   A    
C35   C76   A    
C94   C142  A    
C134  C139  A    
C31   C74   A    
C56   C68   A    
C160  Cl11  S    
C167  Cl4   S    
C21   C69   A    
C37   Cl20  S    
C38   Cl19  S    
C117  N9    Am   
C36   C75   A    
C25   H1    S    
C102  N6    Am   
C26   H2    S    
C12   O24   A    
Cr5   O20   S    
C157  C164  A    
C41   C53   A    
C51   F12   S    
C158  C163  A    
C43   C55   A    
C7    C81   S    
C53   F10   S    
C24   C72   A    
C20   C32   A    
C106  O36   D    
C114  O44   D    
C163  Cl2   S    
Cr5   O11   S    
C110  O40   D    
C54   C66   A    
C47   Cl16  S    
C18   C66   A    
C16   Cl40  S    
C48   Cl15  S    
C14   Cl38  S    
C128  C140  A    
C5    C73   S    
C130  C142  A    
C145  C152  A    
C15   Cl39  S    
C146  C151  A    
C4    O2    A    
C6    O18   A    
C70   N10   S    
C104  N8    Am   
C49   F8    S    
C68   N8    S    
C120  O50   D    
C22   C70   A    
C99   O29   D    
C161  Cl10  S    
C97   O27   D    
C108  O38   D    
C95   C143  A    
C148  Cl35  S    
C1    O13   A    
C25   C80   A    
C17   C29   A    
C23   Cl47  S    
Cr5   O23   S    
C87   C147  A    
C8    C82   S    
C152  Cl25  S    
C34   C77   A    
C129  C141  A    
C38   C79   A    
C61   N1    S    
C166  Cl5   S    
C100  O30   D    
C98   N2    Am   
C126  C138  A    
C150  C153  A    
C120  N12   Am   
C19   C67   A    
C118  N10   Am   
Cr1   O1    S    
C9    O21   A    
C89   C149  A    
C120  C132  A    
C86   C146  A    
C7    O11   A    
C6    C74   S    
C154  Cl29  S    
C49   C61   A    
C124  C136  A    
C111  C123  A    
C87   C135  A    
C51   C63   A    
C88   C136  A    
C52   C64   A    
C157  Cl8   S    
C107  N11   Am   
C125  C137  A    
C149  C154  A    
Cr4   O26   S    
C23   C71   A    
C37   C49   A    
C44   C56   A    
C64   N4    S    
C24   C36   A    
C147  C156  A    
Cr2   O5    S    
C88   C100  A    
C95   C107  A    
C91   C139  A    
C45   Cl18  S    
C17   Cl41  S    
C23   C35   A    
Cr6   O9    S    
C19   Cl43  S    
C1    O5    A    
C2    C76   S    
C27   C84   A    
C127  C163  A    
C119  N11   Am   
C125  C161  A    
C27   H3    S    
C117  O47   D    
C59   F4    S    
C2    O14   A    
C26   C79   A    
C60   F3    S    
C129  C165  A    
C30   C81   A    
C164  Cl1   S    
C110  C122  A    
C52   F11   S    
C108  N12   Am   
C44   C73   A    
C86   C98   A    
C8    O20   A    
C72   N12   S    
Cr2   O25   S    
Cr3   O15   S    
C133  C140  A    
C10   O8    A    
C101  O31   D    
Cr6   O21   S    
C103  N7    Am   
Cr4   O19   S    
C85   C133  A    
C5    O17   A    
C16   C28   A    
C159  Cl12  S    
C69   N9    S    
Cr2   O2    S    
C10   O22   A    
Cr1   O16   S    
C118  C130  A    
C12   O10   A    
C32   H8    S    
C6    O4    A    
C104  O34   D    
C113  C125  A    
C18   Cl42  S    
C115  C127  A    
C159  C168  A    
C160  C167  A    
C130  C166  A    
C158  Cl7   S    
C156  Cl27  S    
C93   C105  A    
C90   C102  A    
C162  Cl9   S    
C92   C152  A    
C3    O1    A    
C149  Cl34  S    
C34   H10   S    
C56   F1    S    
C18   C30   A    
C36   H12   S    
C161  C166  A    
C43   C74   A    
C115  N7    Am   
C121  C157  A    
C48   C75   A    
C13   C25   A    
C127  C139  A    
C48   C60   A    
C87   C99   A    
C88   C148  A    
C113  N5    Am   
C114  N6    Am   
C1    C75   S    
Cr4   O10   S    
C2    O6    A    
C32   C73   A    
C99   N3    Am   
C40   C52   A    
C112  N4    Am   
C111  O41   D    
Cr3   O3    S    
C33   H9    S    
C94   C154  A    
C21   Cl45  S    
C41   Cl22  S    
C115  O45   D    
C135  C144  A    
C113  O43   D    
C50   C62   A    
C145  Cl32  S    
C146  Cl31  S    
C53   C65   A    
C39   Cl24  S    
C40   Cl23  S    
C105  N9    Am   
C107  O37   D    
C94   C106  A    
Cr6   O12   S    
C105  O35   D    
C132  C168  A    
C55   C67   A    
C38   C50   A    
C109  O39   D    
C17   C65   A    
C57   C69   A    
C42   Cl21  S    
C9    O7    A    
C91   C151  A    
Cr1   O25   S    
C12   C80   S    
C10   C84   S    
C95   C155  A    
C54   F9    S    
C7    O19   A    
C13   C61   A    
C116  C128  A    
C15   C63   A    
C16   C64   A    
C121  C133  A    
C67   N7    S    
C28   H4    S    
C59   C71   A    
C98   O28   D    
C92   C140  A    
