data_mof_unit_68241.cif
_audit_creation_date              2012-12-11T14:04:22-0500
_audit_creation_method            fapswitch 2.2
_symmetry_space_group_name_H-M    P1
_symmetry_Int_Tables_number       1
_space_group_crystal_system       triclinic
_cell_length_a                    20.325622
_cell_length_b                    21.998144
_cell_length_c                    8.370578
_cell_angle_alpha                 90.000132
_cell_angle_beta                  103.542083
_cell_angle_gamma                 89.863792
_cell_volume                      3638.63795858

loop_
_atom_site_label
_atom_site_type_symbol
_atom_type_description
_atom_site_fract_x
_atom_site_fract_y
_atom_site_fract_z
_atom_type_partial_charge
Ba1   Ba    Ba6+2 0.999900 0.456810 0.844860 1.676200
Ba2   Ba    Ba6+2 0.999900 0.543190 0.344860 1.684492
Ba3   Ba    Ba6+2 0.499900 0.956810 0.844860 1.677550
Ba4   Ba    Ba6+2 0.499900 0.043190 0.344860 1.674554
C1    C     C_3   0.068740 0.194273 0.625878 -0.176246
C2    C     C_R   0.191028 0.272108 0.385381 -0.130061
C3    C     C_R   0.683709 0.233072 0.891842 -0.102373
C4    C     C_R   0.692556 0.773446 0.383754 -0.132520
C5    C     C_R   0.224506 0.725953 0.054741 0.017606
C6    C     C_R   0.228342 0.276575 0.551506 0.022427
C7    C     C_R   0.722340 0.227599 0.056525 0.019432
C8    C     C_R   0.728878 0.777083 0.550841 0.019124
C9    C     C_R   0.206781 0.677556 0.149884 -0.148970
C10   C     C_R   0.210823 0.325195 0.646361 -0.143291
C11   C     C_R   0.705761 0.178309 0.150412 -0.151713
C12   C     C_3   0.071782 0.800059 0.133601 -0.171022
C13   C     C_R   0.710537 0.825009 0.646534 -0.149328
C14   C     C_R   0.156510 0.635117 0.081160 -0.006931
C15   C     C_R   0.159134 0.366584 0.578813 -0.009825
C16   C     C_R   0.655129 0.136100 0.082238 -0.015763
C17   C     C_R   0.659594 0.866997 0.578310 -0.012867
C18   C     C_R   0.819178 0.265398 0.291560 -0.138140
C19   C     C_R   0.823147 0.737245 0.788517 -0.130157
C20   C     C_R   0.319774 0.764982 0.291313 -0.132681
C21   C     C_R   0.323426 0.237317 0.788273 -0.127535
C22   C     C_R   0.870559 0.306860 0.358250 -0.002760
C23   C     C_3   0.572397 0.705339 0.616489 -0.169836
C24   C     C_R   0.872337 0.694099 0.857835 -0.002692
C25   C     C_R   0.370178 0.807174 0.358980 0.000879
C26   C     C_R   0.373227 0.194594 0.856975 0.011402
C27   C     C_R   0.847634 0.362870 0.102882 0.061443
C28   C     C_R   0.848623 0.637451 0.603144 0.058690
C29   C     C_R   0.347473 0.862995 0.103277 0.058529
C30   C     C_R   0.349009 0.137610 0.602867 0.059903
C31   C     C_R   0.795126 0.322110 0.036011 -0.069104
C32   C     C_R   0.797774 0.679661 0.534477 -0.077129
C33   C     C_R   0.295615 0.821696 0.035705 -0.075943
C34   C     C_3   0.562095 0.322159 0.172314 -0.190847
C35   C     C_R   0.297896 0.179610 0.534551 -0.076072
C36   C     C_R   0.779698 0.271714 0.127938 0.013523
C37   C     C_R   0.784184 0.731325 0.624459 0.014043
C38   C     C_R   0.280755 0.770931 0.127207 0.014588
C39   C     C_R   0.284211 0.231231 0.624532 0.006259
C40   C     C_3   0.979549 0.239337 0.051788 0.381664
C41   C     C_3   0.976445 0.759770 0.559671 0.393597
C42   C     C_3   0.478673 0.740416 0.052454 0.383519
C43   C     C_3   0.476501 0.262984 0.567895 0.365242
C44   C     C_R   0.886156 0.353742 0.261885 -0.287221
C45   C     C_R   0.135582 0.688996 0.822559 0.006070
C46   C     C_R   0.886679 0.646015 0.763024 -0.286128
C47   C     C_R   0.385436 0.854333 0.263017 -0.286078
C48   C     C_R   0.387662 0.146581 0.762030 -0.301949
C49   C     C_3   0.946211 0.177882 0.012829 -0.329004
C50   C     C_3   0.941951 0.821314 0.534613 -0.350344
C51   C     C_3   0.445240 0.678535 0.029208 -0.357436
C52   C     C_3   0.440320 0.322619 0.514030 -0.356960
C53   C     C_3   0.253451 0.511886 0.162429 0.488653
C54   C     C_3   0.246788 0.495237 0.662552 0.489956
C55   C     C_3   0.754296 0.013503 0.168905 0.495283
C56   C     C_R   0.138352 0.312785 0.320155 0.007594
C57   C     C_3   0.750437 0.992597 0.671377 0.489833
C58   C     C_3   0.317579 0.544863 0.256051 -0.045787
C59   C     C_3   0.313966 0.468920 0.762248 -0.059064
C60   C     C_3   0.815919 0.046120 0.275084 -0.021371
C61   C     C_3   0.814252 0.962576 0.776801 -0.099152
C62   C     C_3   0.805237 0.538577 0.904410 0.239063
C63   C     C_3   0.804546 0.461694 0.405563 0.261843
C64   C     C_3   0.305592 0.038814 0.904432 0.241875
C65   C     C_3   0.304104 0.962174 0.402819 0.241158
C66   C     C_3   0.740886 0.577207 0.858790 -0.307065
C67   C     C_R   0.631450 0.192197 0.826415 0.011851
C68   C     C_3   0.740242 0.423086 0.363993 -0.318844
C69   C     C_3   0.241432 0.077765 0.858721 -0.310821
C70   C     C_3   0.239235 0.924482 0.356470 -0.315441
C71   C     C_3   0.005134 0.226338 0.529210 0.245103
C72   C     C_3   0.003704 0.777169 0.032988 0.256816
C73   C     C_3   0.501629 0.723711 0.520810 0.259668
C74   C     C_3   0.525285 0.262339 0.121360 0.256678
C75   C     C_R   0.120481 0.641967 0.919056 -0.232800
C76   C     C_R   0.122803 0.359556 0.417009 -0.234151
C77   C     C_R   0.617007 0.144575 0.922434 -0.254470
C78   C     C_R   0.640082 0.814340 0.318413 0.010530
C79   C     C_R   0.624280 0.860849 0.415493 -0.233800
C80   C     C_3   0.437862 0.534875 0.255446 -0.154249
C81   C     C_3   0.420805 0.502547 0.702036 -0.264723
C82   C     C_3   0.921242 0.019642 0.195509 -0.235195
C83   C     C_3   0.934372 0.964535 0.773624 -0.217595
C84   C     C_2   0.695187 0.556652 0.699168 0.928753
C85   C     C_2   0.692567 0.444226 0.207629 0.908917
C86   C     C_2   0.195214 0.056938 0.700081 0.934966
C87   C     C_2   0.193648 0.945939 0.197396 0.932573
C88   C     C_2   0.052880 0.132222 0.680339 0.924516
C89   C     C_R   0.187457 0.730187 0.888363 -0.137105
C90   C     C_2   0.064627 0.856472 0.228799 0.917688
C91   C     C_2   0.570957 0.651752 0.726294 0.923354
C92   C     C_2   0.535694 0.371746 0.051452 0.940245
C93   C     C_3   0.289466 0.406867 0.261776 -0.188878
C94   C     C_3   0.270402 0.604169 0.745820 -0.192330
C95   C     C_3   0.792289 0.907777 0.257635 -0.242512
C96   C     C_3   0.765927 0.101123 0.760298 -0.167197
H1    H     H_    0.022273 0.269476 0.482049 -0.033534
H2    H     H_    0.333945 0.496908 0.872806 0.133678
H3    H     H_    0.951502 0.018073 0.324292 0.154881
H4    H     H_    0.858396 0.917245 0.611128 0.189286
H5    H     H_    0.969036 0.957819 0.690546 0.126575
H6    H     H_    0.947378 0.931058 0.875641 0.164072
H7    H     H_    0.941253 0.011676 0.822698 0.139682
H8    H     H_    0.666084 0.479893 0.795883 0.332866
H9    H     H_    0.659700 0.516926 0.314227 0.340769
H10   H     H_    0.164690 0.981642 0.800274 0.340727
H11   H     H_    0.165637 0.022872 0.295853 0.336626
H12   H     H_    0.017721 0.048292 0.613653 0.315694
H13   H     H_    0.839817 0.018448 0.383857 0.102522
H14   H     H_    0.035951 0.944088 0.223115 0.318596
H15   H     H_    0.545575 0.564346 0.745755 0.314217
H16   H     H_    0.532433 0.407556 0.828564 0.309814
H17   H     H_    0.241471 0.431153 0.024166 0.212725
H18   H     H_    0.248490 0.403205 0.328270 0.100362
H19   H     H_    0.337491 0.420219 0.346827 0.113541
H20   H     H_    0.297529 0.361247 0.212655 0.101412
H21   H     H_    0.278068 0.565586 0.526435 0.172868
H22   H     H_    0.259407 0.649911 0.689837 0.112381
H23   H     H_    0.325045 0.602233 0.805370 0.063740
H24   H     H_    0.833145 0.990835 0.887473 0.130936
H25   H     H_    0.239960 0.598467 0.837985 0.101808
H26   H     H_    0.740531 0.934648 0.026696 0.217723
H27   H     H_    0.754561 0.905613 0.333982 0.112494
H28   H     H_    0.843177 0.918132 0.334017 0.101398
H29   H     H_    0.795412 0.862119 0.202989 0.108072
H30   H     H_    0.806209 0.060020 0.585828 0.176183
H31   H     H_    0.810068 0.094315 0.865178 0.090857
H32   H     H_    0.718667 0.099866 0.803431 0.114404
H33   H     H_    0.769994 0.146893 0.707466 0.099220
H34   H     H_    0.828232 0.534690 0.797380 -0.003266
H35   H     H_    0.826530 0.465030 0.296805 -0.004584
H36   H     H_    0.328694 0.034956 0.797591 -0.000773
H37   H     H_    0.326913 0.966213 0.295531 -0.001771
H38   H     H_    0.841332 0.561260 0.007197 0.068432
H39   H     H_    0.841384 0.439258 0.507695 0.062466
H40   H     H_    0.341727 0.061326 0.007460 0.070459
H41   H     H_    0.015042 0.736644 0.964035 -0.050396
H42   H     H_    0.340101 0.938719 0.504627 0.064915
H43   H     H_    0.755017 0.625427 0.847803 0.044113
H44   H     H_    0.754294 0.375016 0.350113 0.033959
H45   H     H_    0.255871 0.125800 0.846226 0.033772
H46   H     H_    0.252736 0.876124 0.344357 0.038940
H47   H     H_    0.713106 0.574882 0.958260 0.139867
H48   H     H_    0.714135 0.424653 0.466646 0.116956
H49   H     H_    0.213927 0.076199 0.958779 0.141039
H50   H     H_    0.211559 0.926877 0.456118 0.144560
H51   H     H_    0.980371 0.198184 0.421656 0.037077
H52   H     H_    0.508416 0.763471 0.443827 -0.058718
H53   H     H_    0.980247 0.812190 0.941474 0.034605
H54   H     H_    0.479256 0.686391 0.436176 0.039848
H55   H     H_    0.527857 0.250806 0.993496 -0.029564
H56   H     H_    0.105222 0.189564 0.546531 0.052885
H57   H     H_    0.104911 0.810438 0.048965 0.051126
H58   H     H_    0.603348 0.693329 0.527910 0.051236
H59   H     H_    0.616981 0.315897 0.179744 0.041352
H60   H     H_    0.092925 0.222485 0.733759 0.108081
H61   H     H_    0.096496 0.763494 0.218345 0.099957
H62   H     H_    0.596691 0.744741 0.690125 0.090952
H63   H     H_    0.552415 0.226890 0.206470 0.092565
H64   H     H_    0.556340 0.335288 0.296503 0.112974
H65   H     H_    0.891454 0.181890 0.009613 0.037908
H66   H     H_    0.886935 0.815753 0.525765 0.044114
H67   H     H_    0.389631 0.684004 0.010248 0.050072
H68   H     H_    0.387443 0.319884 0.528217 0.045457
H69   H     H_    0.810601 0.229697 0.372062 0.069378
H70   H     H_    0.816161 0.774281 0.866883 0.066295
H71   H     H_    0.311872 0.728716 0.370947 0.066697
H72   H     H_    0.315949 0.273985 0.867223 0.075393
H73   H     H_    0.197569 0.764761 0.806421 0.092521
H74   H     H_    0.305998 0.592651 0.280826 0.007077
H75   H     H_    0.201362 0.237595 0.303413 0.088208
H76   H     H_    0.693391 0.267945 0.810226 0.086282
H77   H     H_    0.703101 0.739066 0.301652 0.094734
H78   H     H_    0.766016 0.332226 0.914096 0.097948
H79   H     H_    0.768426 0.669802 0.412670 0.103178
H80   H     H_    0.266598 0.831581 0.913529 0.100854
H81   H     H_    0.268390 0.169532 0.413073 0.100960
H82   H     H_    0.230935 0.671412 0.277532 0.074037
H83   H     H_    0.235991 0.332245 0.772966 0.062190
H84   H     H_    0.731137 0.171350 0.276730 0.076399
H85   H     H_    0.304215 0.423202 0.808081 0.040902
H86   H     H_    0.734103 0.830674 0.774639 0.067139
H87   H     H_    0.925693 0.385654 0.314850 0.064438
H88   H     H_    0.924914 0.613009 0.817559 0.065959
H89   H     H_    0.424526 0.886582 0.316470 0.065131
H90   H     H_    0.426144 0.113745 0.816273 0.069366
H91   H     H_    0.081352 0.609659 0.866262 0.075366
H92   H     H_    0.082619 0.391198 0.365194 0.073597
H93   H     H_    0.577776 0.112345 0.869782 0.078297
H94   H     H_    0.584221 0.892600 0.363572 0.074741
H95   H     H_    0.957380 0.270200 0.948281 0.104239
H96   H     H_    0.798112 0.088701 0.321783 0.019452
H97   H     H_    0.953122 0.730791 0.453129 0.098807
H98   H     H_    0.459518 0.767082 0.938746 0.108309
H99   H     H_    0.448987 0.227173 0.485049 0.074327
H100  H     H_    0.968215 0.256715 0.167091 -0.090004
H101  H     H_    0.967558 0.739642 0.674284 -0.091125
H102  H     H_    0.464214 0.763174 0.157434 -0.071874
H103  H     H_    0.474121 0.253564 0.696924 -0.032162
H104  H     H_    0.951611 0.161702 0.891071 0.166127
H105  H     H_    0.949154 0.842638 0.419770 0.154542
H106  H     H_    0.456362 0.655291 0.920750 0.151765
H107  H     H_    0.802107 0.917154 0.819385 0.042212
H108  H     H_    0.439261 0.331943 0.383247 0.158252
H109  H     H_    0.970646 0.144694 0.108185 0.138051
H110  H     H_    0.963871 0.851026 0.640369 0.118320
H111  H     H_    0.464646 0.650500 0.140178 0.113819
H112  H     H_    0.466766 0.360503 0.589486 0.137028
H113  H     H_    0.234749 0.535444 0.043705 -0.019381
H114  H     H_    0.231370 0.468907 0.546634 -0.003356
H115  H     H_    0.737782 0.039223 0.052103 -0.017008
H116  H     H_    0.735472 0.968069 0.552526 -0.002162
H117  H     H_    0.363716 0.578212 0.076539 0.180572
H118  H     H_    0.336713 0.522046 0.375634 0.109661
H119  H     H_    0.472733 0.535906 0.171352 0.159724
H120  H     H_    0.442862 0.489753 0.316928 0.148974
H121  H     H_    0.452376 0.571393 0.348883 0.125422
H122  H     H_    0.375001 0.418449 0.643672 0.200639
H123  H     H_    0.454892 0.492540 0.619372 0.132136
H124  H     H_    0.449130 0.495156 0.831156 0.159016
H125  H     H_    0.404664 0.550767 0.684495 0.135934
H126  H     H_    0.880604 0.105838 0.198725 0.203287
H127  H     H_    0.954350 0.035003 0.115434 0.137259
H128  H     H_    0.903185 0.973275 0.156375 0.139432
N1    N     N_2   0.369030 0.543828 0.162119 -0.444185
N2    N     N_2   0.362667 0.462925 0.661587 -0.462729
N3    N     N_2   0.864979 0.061369 0.180958 -0.456564
N4    N     N_2   0.865220 0.955828 0.682943 -0.466784
N5    N     N_2   0.271484 0.449887 0.127468 -0.412788
N6    N     N_2   0.253560 0.558605 0.618292 -0.382725
N7    N     N_2   0.772992 0.952465 0.127797 -0.435081
N8    N     N_2   0.764860 0.055450 0.635234 -0.395731
O1    O     O_2   0.866180 0.413660 0.823810 -0.466365
O2    O     O_3   0.046019 0.766895 0.570638 -0.558274
O3    O     O_3   0.549175 0.733288 0.083191 -0.561117
O4    O     O_3   0.544169 0.267238 0.555694 -0.588715
O5    O     O_3   0.077880 0.530130 0.092320 -0.461734
O6    O     O_3   0.077880 0.469870 0.592320 -0.452689
O7    O     O_3   0.577880 0.030130 0.092320 -0.460300
O8    O     O_3   0.577880 0.969870 0.592320 -0.451028
O9    O     O_3   0.922050 0.469730 0.097400 -0.498694
O10   O     O_3   0.922050 0.530270 0.597400 -0.499947
O11   O     O_3   0.422050 0.969730 0.097400 -0.498260
O12   O     O_2   0.866180 0.586340 0.323810 -0.464836
O13   O     O_3   0.422050 0.030270 0.597400 -0.497642
O14   O     O_3   0.976760 0.360270 0.628090 -0.471116
O15   O     O_3   0.976760 0.639730 0.128090 -0.472774
O16   O     O_3   0.476760 0.860270 0.628090 -0.471728
O17   O     O_3   0.476760 0.139730 0.128090 -0.495741
O18   O     O_2   0.867385 0.308728 0.692933 -0.497810
O19   O     O_2   0.866763 0.690844 0.190418 -0.494667
O20   O     O_2   0.367600 0.808578 0.694047 -0.497302
O21   O     O_2   0.366477 0.190980 0.187045 -0.488326
O22   O     O_3   0.788364 0.481102 0.953079 -0.616692
O23   O     O_2   0.366180 0.913660 0.823810 -0.463864
O24   O     O_3   0.788015 0.519513 0.453197 -0.616751
O25   O     O_3   0.288468 0.981311 0.952554 -0.619079
O26   O     O_3   0.288031 0.019613 0.453812 -0.618125
O27   O     O_3   0.959502 0.235014 0.631001 -0.605200
O28   O     O_3   0.959726 0.765311 0.137212 -0.601516
O29   O     O_3   0.459418 0.734833 0.629962 -0.605794
O30   O     O_3   0.457705 0.267229 0.134632 -0.610744
O31   O     O_2   0.133470 0.412980 0.865660 -0.451795
O32   O     O_2   0.133470 0.587020 0.365660 -0.425752
O33   O     O_2   0.633470 0.912980 0.865660 -0.456783
O34   O     O_2   0.366180 0.086340 0.323810 -0.464460
O35   O     O_2   0.633470 0.087020 0.365660 -0.423644
O36   O     O_3   0.022720 0.360150 0.061220 -0.498937
O37   O     O_3   0.022720 0.639850 0.561220 -0.498065
O38   O     O_3   0.522720 0.860150 0.061220 -0.502146
O39   O     O_3   0.522720 0.139850 0.561220 -0.494220
O40   O     O_2   0.131014 0.309823 0.981768 -0.474984
O41   O     O_2   0.130262 0.691483 0.484337 -0.472098
O42   O     O_2   0.628905 0.807592 0.977376 -0.467045
O43   O     O_2   0.632166 0.190135 0.493468 -0.486173
O44   O     O_2   0.687237 0.589313 0.578344 -0.600535
O45   O     O_3   0.198713 0.491810 0.758246 -0.640290
O46   O     O_R   0.660371 0.501492 0.686776 -0.717449
O47   O     O_2   0.686824 0.414266 0.082557 -0.591114
O48   O     O_R   0.654009 0.497152 0.202739 -0.698239
O49   O     O_2   0.187978 0.088709 0.577742 -0.604918
O50   O     O_R   0.159173 0.002513 0.690248 -0.701391
O51   O     O_2   0.185247 0.913658 0.075828 -0.599908
O52   O     O_R   0.159479 0.001546 0.186309 -0.695701
O53   O     O_2   0.066058 0.119429 0.826542 -0.593008
O54   O     O_R   0.024500 0.088845 0.562692 -0.750282
O55   O     O_2   0.086153 0.857343 0.377777 -0.578660
O56   O     O_3   0.203525 0.510623 0.255631 -0.641812
O57   O     O_R   0.035473 0.908501 0.146118 -0.763911
O58   O     O_2   0.597585 0.655176 0.872879 -0.579689
O59   O     O_R   0.540955 0.597535 0.659843 -0.762865
O60   O     O_2   0.504039 0.414210 0.091003 -0.617695
O61   O     O_R   0.549069 0.369841 0.895364 -0.736966
O62   O     O_3   0.698851 0.991849 0.757935 -0.637788
O63   O     O_3   0.702219 0.009756 0.254616 -0.633088
O64   O     O_3   0.049713 0.233169 0.070080 -0.574661
P1    P     P_3+3 0.859590 0.433890 0.993820 1.007245
P2    P     P_3+3 0.085310 0.695787 0.609619 0.996649
P3    P     P_3+3 0.586905 0.805242 0.109327 0.996620
P4    P     P_3+3 0.583847 0.196996 0.610254 0.965423
P5    P     P_3+3 0.916463 0.697354 0.076833 0.949126
P6    P     P_3+3 0.915951 0.303252 0.576144 0.943910
P7    P     P_3+3 0.417114 0.197887 0.075930 0.937689
P8    P     P_3+3 0.415902 0.803279 0.576572 0.946666
P9    P     P_3+3 0.859590 0.566110 0.493820 1.006335
P10   P     P_3+3 0.359590 0.933890 0.993820 1.006565
P11   P     P_3+3 0.359590 0.066110 0.493820 1.007457
P12   P     P_3+3 0.140130 0.433190 0.695710 0.996672
P13   P     P_3+3 0.140130 0.566810 0.195710 1.010550
P14   P     P_3+3 0.640130 0.933190 0.695710 0.997156
P15   P     P_3+3 0.640130 0.066810 0.195710 1.011949
P16   P     P_3+3 0.086851 0.305043 0.108563 0.978773

loop_
_geom_bond_atom_site_label_1
_geom_bond_atom_site_label_2
_ccdc_geom_bond_type
C14   P13   S    
C23   C91   S    
Ba1   O36   S    
C23   H58   S    
C9    C14   A    
C82   N3    S    
C74   O30   S    
C45   P2    S    
C34   H59   S    
C80   H121  S    
C23   H62   S    
C55   H115  S    
C74   H55   S    
C42   H98   S    
C72   H53   S    
C33   C38   A    
C51   H106  S    
C20   H71   S    
C5    C9    A    
C87   O51   D    
C40   C49   S    
C17   C79   A    
C42   C51   S    
C57   H116  S    
Ba4   O7    S    
C63   O24   S    
C31   H78   S    
C17   P14   S    
C75   H91   S    
C65   H37   S    
C76   H92   S    
C32   H79   S    
C11   C16   A    
C71   O27   S    
C85   O47   D    
C95   H29   S    
Ba3   P14   S    
C67   P4    S    
O33   P14   D    
C34   C74   S    
C65   H42   S    
C13   C17   A    
H10   O50   S    
C13   H86   S    
C50   H105  S    
Ba2   O32   S    
C11   H84   S    
C65   C70   S    
C59   N2    S    
C54   H114  S    
C27   C44   A    
C6    C10   A    
C64   H40   S    
Ba3   O38   S    
O41   P2    D    
C68   H44   S    
C33   H80   S    
O43   P4    D    
C61   N4    S    
C10   C15   A    
C55   N7    S    
C84   O46   S    
C60   N3    S    
C96   H32   S    
C95   H28   S    
C12   C90   S    
C19   C37   A    
C31   C36   A    
Ba2   O15   S    
C62   C66   S    
O64   P16   S    
Ba3   O23   S    
C89   H73   S    
C92   O61   S    
C15   C76   A    
C81   H124  S    
C77   H93   S    
O19   P5    D    
C57   C61   S    
C83   H7    S    
H14   O57   S    
H21   N6    S    
C88   O54   S    
C71   H1    S    
C45   C89   A    
O28   P5    S    
O7    P15   S    
O45   P12   S    
C46   H88   S    
C21   C39   A    
C56   P16   S    
C66   H43   S    
C28   C32   A    
C90   O57   S    
Ba2   O9    S    
C69   C86   S    
Ba4   P11   S    
O1    P1    D    
C41   H97   S    
C95   N7    S    
C63   C68   S    
C61   H24   S    
C80   H120  S    
C62   H34   S    
C94   H25   S    
C71   H51   S    
C94   N6    S    
O17   P7    S    
H11   O52   S    
C40   O64   S    
C63   H39   S    
C4    C8    A    
O42   P3    D    
C72   O28   S    
C93   N5    S    
C74   H63   S    
C82   H127  S    
C43   H99   S    
C7    C11   A    
C59   H2    S    
C73   H52   S    
H15   O59   S    
C30   C35   A    
C91   O58   D    
O37   P2    S    
C27   P1    S    
O39   P4    S    
Ba1   O1    S    
C19   C24   A    
C69   H45   S    
C93   H19   S    
Ba4   O11   S    
C62   H38   S    
H17   N5    S    
O15   P5    S    
C1    H60   S    
O5    P13   S    
C3    H76   S    
C42   O3    S    
Ba2   O6    S    
C53   O56   S    
O3    P3    S    
O4    P4    S    
Ba1   P12   S    
C53   H113  S    
H16   O61   S    
C40   H100  S    
C22   P6    S    
Ba3   P10   S    
C81   H125  S    
Ba3   Ba4   S    
C25   C47   A    
O9    P1    S    
C94   H22   S    
C26   C48   A    
C56   C76   A    
C85   O48   S    
C12   C72   S    
Ba4   O39   S    
C90   O55   D    
Ba3   O13   S    
C62   O22   S    
C61   H107  S    
O12   P9    D    
Ba3   O33   S    
O6    P12   S    
C60   H96   S    
H30   N8    S    
O18   P6    D    
Ba3   O8    S    
C7    C36   S    
Ba1   O6    S    
C50   H110  S    
H122  N2    S    
O8    P14   S    
Ba4   O8    S    
C43   C52   S    
C67   C77   A    
C20   C38   A    
C51   H67   S    
O38   P3    S    
O62   P14   S    
C10   H83   S    
C32   C37   A    
C78   P3    S    
C4    C78   A    
O23   P10   D    
C2    H75   S    
C83   N4    S    
H12   O54   S    
Ba2   O12   S    
C20   C25   A    
C4    H77   S    
C14   C75   A    
C59   H85   S    
Ba2   P9    S    
C8    C13   A    
C57   O62   S    
C47   H89   S    
C22   C44   A    
C72   H41   S    
Ba4   O35   S    
O34   P11   D    
C87   O52   S    
O29   P8    S    
C50   H66   S    
O30   P7    S    
Ba4   P15   S    
O2    P2    S    
O25   P10   S    
C44   H87   S    
C95   H27   S    
C29   C33   A    
C45   C75   A    
C25   P8    S    
C91   O59   S    
C70   C87   S    
C1    C71   S    
C63   H35   S    
C26   P7    S    
C8    C37   S    
C52   H108  S    
C55   C60   S    
Ba2   P13   S    
C43   H103  S    
C48   H90   S    
C80   N1    S    
C84   O44   D    
C55   O63   S    
O32   P13   D    
C21   H72   S    
C49   H65   S    
C27   C31   A    
C21   C26   A    
O14   P6    S    
C40   H95   S    
C69   H49   S    
C12   H57   S    
C70   H46   S    
C81   N2    S    
O27   P6    S    
C54   N6    S    
C2    C6    A    
C65   O26   S    
O20   P8    D    
C54   O45   S    
C12   H61   S    
C29   C47   A    
C1    H56   S    
C30   C48   A    
Ba2   O37   S    
C93   H20   S    
C73   O29   S    
C18   H69   S    
C42   H102  S    
C49   H109  S    
C78   C79   A    
C18   C22   A    
C34   C92   S    
C66   H47   S    
O31   P12   D    
O11   P10   S    
C15   P12   S    
O24   P9    S    
C82   H128  S    
C24   P5    S    
O26   P11   S    
C66   C84   S    
C96   H31   S    
C53   C58   S    
C16   P15   S    
C3    C7    A    
C83   H6    S    
C5    C38   S    
C58   H118  S    
C52   H112  S    
Ba1   O10   S    
C3    C67   A    
H4    N4    S    
H126  N3    S    
C58   H74   S    
C28   P9    S    
C93   H18   S    
Ba1   Ba2   S    
O36   P16   S    
C29   P10   S    
C41   O2    S    
H117  N1    S    
C24   C46   A    
Ba1   O31   S    
C88   O53   D    
O40   P16   D    
C83   H5    S    
O63   P15   S    
O13   P11   S    
C34   H64   S    
C16   C77   A    
Ba1   P1    S    
Ba4   O17   S    
C82   H3    S    
C64   O25   S    
O22   P1    S    
Ba4   O34   S    
C94   H23   S    
O16   P8    S    
C49   H104  S    
C2    C56   A    
C64   H36   S    
Ba3   O16   S    
O56   P13   S    
H9    O48   S    
Ba1   O14   S    
C35   C39   A    
C64   C69   S    
C68   H48   S    
C92   O60   D    
C86   O50   S    
C80   H119  S    
C73   H54   S    
O21   P7    D    
C58   N1    S    
C18   C36   A    
C52   H68   S    
C86   O49   D    
Ba3   O7    S    
H26   N7    S    
C28   C46   A    
C35   H81   S    
Ba1   O5    S    
C41   C50   S    
C5    C89   A    
H8    O46   S    
C96   H33   S    
O10   P9    S    
C54   C59   S    
C60   H13   S    
C6    C39   S    
O35   P15   D    
C23   C73   S    
C53   N5    S    
C79   H94   S    
C30   P11   S    
C68   C85   S    
C19   H70   S    
C81   H123  S    
Ba2   O5    S    
C1    C88   S    
C96   N8    S    
C51   H111  S    
C43   O4    S    
C41   H101  S    
C9    H82   S    
C57   N8    S    
C70   H50   S    
