data_mof_unit_20048.cif
_audit_creation_date              2013-03-05T16:48:14-0500
_audit_creation_method            fapswitch 2.2
_symmetry_space_group_name_H-M    P1
_symmetry_Int_Tables_number       1
_space_group_crystal_system       triclinic
_cell_length_a                    23.535094
_cell_length_b                    8.929385
_cell_length_c                    8.08768
_cell_angle_alpha                 90.072594
_cell_angle_beta                  89.999658
_cell_angle_gamma                 89.999818
_cell_volume                      1699.65625373

loop_
_atom_site_label
_atom_site_type_symbol
_atom_site_description
_atom_site_fract_x
_atom_site_fract_y
_atom_site_fract_z
_atom_type_partial_charge
O1    O     O_R   0.500000 0.285350 0.636850 -0.612003
O2    O     O_R   0.500000 0.714650 0.363150 -0.612004
O3    O     O_R   0.500000 0.714650 0.636850 -0.612873
O4    O     O_R   0.500000 0.285350 0.363150 -0.612873
H1    H     H_    0.947814 0.126115 0.430017 0.190224
H2    H     H_    0.051004 0.874216 0.566419 0.190857
H3    H     H_    0.947810 0.873770 0.570032 0.190224
H4    H     H_    0.051008 0.125667 0.433669 0.190858
C1    C     C_R   0.500027 0.217929 0.499934 0.939590
C2    C     C_R   0.500027 0.782071 0.500066 0.939589
O5    O     O_R   0.416160 0.500000 0.636910 -0.611973
O6    O     O_R   0.583840 0.500000 0.363090 -0.613027
O7    O     O_R   0.583840 0.500000 0.636910 -0.613027
O8    O     O_R   0.416160 0.500000 0.363090 -0.611974
C3    C     C_R   0.207221 0.499949 0.500051 0.273411
C4    C     C_R   0.791825 0.499945 0.499998 0.273684
C5    C     C_R   0.388866 0.500005 0.500000 0.865330
C6    C     C_R   0.610929 0.499995 0.500000 0.867264
Zn1   Zn    Zn3+2 0.500000 0.500000 0.682780 1.025676
Zn2   Zn    Zn3+2 0.500000 0.500000 0.317220 1.025674
H5    H     H_    0.213109 0.592037 0.744812 0.155650
H6    H     H_    0.786094 0.364048 0.718263 0.156408
H7    H     H_    0.213100 0.407886 0.255280 0.155648
H8    H     H_    0.786104 0.635848 0.281737 0.156409
C7    C     C_R   0.295685 0.555025 0.638879 -0.053643
C8    C     C_R   0.703461 0.421579 0.624192 -0.055764
C9    C     C_R   0.295682 0.444966 0.361154 -0.053660
C10   C     C_R   0.703466 0.578357 0.375806 -0.055766
C11   C     C_R   0.326248 0.500002 0.500007 -0.137085
C12   C     C_R   0.673195 0.499977 0.500000 -0.130873
C13   C     C_R   0.880493 0.631895 0.526079 0.510809
C14   C     C_R   0.118297 0.367044 0.480873 0.508870
C15   C     C_R   0.880494 0.367992 0.473939 0.510812
C16   C     C_R   0.118296 0.632842 0.519233 0.508868
N1    N     N_R   0.852335 0.499944 0.500006 -0.354373
N2    N     N_R   0.146576 0.499943 0.500059 -0.353212
C17   C     C_R   0.939795 0.364978 0.474747 -0.013800
C18   C     C_R   0.058997 0.635234 0.522555 -0.013346
C19   C     C_R   0.939794 0.634907 0.525298 -0.013798
C20   C     C_R   0.058999 0.364648 0.477536 -0.013349
C21   C     C_R   0.969556 0.499942 0.500030 -0.021504
C22   C     C_R   0.029236 0.499941 0.500042 -0.021427
C23   C     C_R   0.969840 0.230968 0.450491 -0.161634
C24   C     C_R   0.028959 0.769186 0.547413 -0.161077
C25   C     C_R   0.969837 0.768916 0.549567 -0.161636
C26   C     C_R   0.028962 0.230697 0.452668 -0.161078
C27   C     C_1   0.500048 0.065183 0.499905 -0.170286
C28   C     C_1   0.500048 0.934817 0.500095 -0.170285
C29   C     C_R   0.236646 0.552086 0.638204 -0.129903
C30   C     C_R   0.762508 0.423220 0.623447 -0.127257
C31   C     C_R   0.236643 0.447847 0.361877 -0.129912
C32   C     C_R   0.762513 0.576682 0.376550 -0.127236
N3    N     N_1   0.500000 0.500000 0.073640 -0.016366
N4    N     N_1   0.500000 0.500000 0.926360 -0.016366
O9    O     O_2   0.851064 0.759269 0.553715 -0.534583
O10   O     O_2   0.147569 0.237642 0.466587 -0.533701
O11   O     O_2   0.851066 0.240621 0.446277 -0.534577
O12   O     O_2   0.147566 0.762247 0.533515 -0.533707
C33   C     C_1   0.323036 0.619614 0.782365 0.232702
N5    N     N_1   0.344783 0.671505 0.897339 -0.173663
C34   C     C_1   0.675408 0.334548 0.750850 0.222698
N6    N     N_1   0.653013 0.264844 0.852302 -0.169183
C35   C     C_1   0.323029 0.380442 0.217625 0.232693
N7    N     N_1   0.344771 0.328603 0.102613 -0.173669
C36   C     C_1   0.675420 0.665414 0.249158 0.222704
N8    N     N_1   0.653030 0.735139 0.147715 -0.169181

loop_
_geom_bond_atom_site_label_1
_geom_bond_atom_site_label_2
_geom_bond_distance
_ccdc_geom_bond_type
H8    C32   1.084620 S    
C18   C24   1.403658 A    
C6    C12   1.465427 S    
C3    C31   1.394078 A    
C9    C11   1.420828 A    
C5    C11   1.473711 S    
C21   C22   1.404572 A    
H7    C31   1.084813 S    
C27   C28   1.164096 T    
C19   C25   1.403491 A    
H6    C30   1.084610 S    
O3    Zn1   1.952818 S    
O6    Zn2   2.007756 S    
H5    C29   1.084781 S    
C10   C36   1.446085 S    
H1    C23   1.082755 S    
C33   N5    1.157684 T    
C19   C21   1.408602 A    
O3    C2    1.260138 A    
H2    C24   1.082592 S    
N3    N4    1.191153 T    
C3    C29   1.394080 A    
C20   C26   1.403659 A    
C10   C32   1.389784 A    
O8    C5    1.280123 A    
O5    Zn1   2.007759 S    
C9    C35   1.446367 S    
O7    C6    1.277704 A    
C17   C21   1.408604 A    
H3    C25   1.082765 S    
Zn1   N4    1.969997 S    
C10   C12   1.417067 A    
C15   N1    1.367944 A    
C8    C34   1.446082 S    
C9    C31   1.389739 A    
C18   C22   1.408079 A    
C13   N1    1.367946 A    
C8    C30   1.389786 A    
C4    N1    1.424116 S    
C2    C28   1.363927 S    
C34   N6    1.157473 T    
C4    C30   1.394267 A    
C23   C26   1.391555 A    
C7    C29   1.389731 A    
C17   C23   1.403493 A    
O1    Zn1   1.951895 S    
C1    C27   1.363927 S    
O7    Zn1   2.007752 S    
O2    Zn2   1.951894 S    
C35   N7    1.157686 T    
O4    Zn2   1.952819 S    
C14   N2    1.369248 A    
C3    N2    1.427283 S    
C14   C20   1.396013 A    
O1    C1    1.259735 A    
C24   C25   1.391548 A    
C16   N2    1.369247 A    
O8    Zn2   2.007754 S    
Zn2   N3    1.969997 S    
C36   N8    1.157464 T    
O6    C6    1.277709 A    
C16   O12   1.350090 S    
C20   C22   1.408081 A    
O5    C5    1.280124 A    
C15   O11   1.350060 S    
C7    C33   1.446376 S    
H4    C26   1.082602 S    
C13   O9    1.350058 S    
O4    C1    1.260138 A    
C16   C18   1.396010 A    
C14   O10   1.350090 S    
C15   C17   1.395932 A    
C4    C32   1.394266 A    
C13   C19   1.395923 A    
C7    C11   1.420871 A    
C8    C12   1.417082 A    
O2    C2    1.259735 A    
