data_mof_unit_12891.cif
_audit_creation_date              2012-10-26T19:45:32-0400
_audit_creation_method            fapswitch 2.2
_symmetry_space_group_name_H-M    P1
_symmetry_Int_Tables_number       1
_space_group_crystal_system       triclinic
_cell_length_a                    10.86961
_cell_length_b                    9.565012
_cell_length_c                    10.8597
_cell_angle_alpha                 90.499873
_cell_angle_beta                  91.901913
_cell_angle_gamma                 90.447319
_cell_volume                      1128.3587811

loop_
_atom_site_label
_atom_site_type_symbol
_atom_type_description
_atom_site_fract_x
_atom_site_fract_y
_atom_site_fract_z
_atom_type_partial_charge
C1    C     C_R   0.262685 0.499583 0.500283 0.564333
C2    C     C_R   0.415833 0.924797 0.429307 0.404656
C3    C     C_R   0.581790 0.927370 0.572895 0.017764
C4    C     C_R   0.582045 0.075768 0.572893 0.021005
C5    C     C_R   0.499679 0.499127 0.259663 0.550803
C6    C     C_R   0.738156 0.500153 0.501173 0.580612
C7    C     C_R   0.502245 0.500450 0.739540 0.527404
C8    C     C_3   0.410522 0.612682 0.064449 0.123420
C9    C     C_3   0.463577 0.347677 0.062653 0.128331
C10   C     C_3   0.399848 0.591842 0.922871 -0.236386
C11   C     C_3   0.487187 0.349376 0.923446 -0.230312
C12   C     C_3   0.636044 0.557747 0.931078 -0.063400
C13   C     C_3   0.640704 0.535057 0.077752 -0.084731
C14   C     C_3   0.503828 0.498200 0.120696 -0.036428
C15   C     C_3   0.507688 0.501185 0.877018 -0.076196
C16   C     C_1   0.286193 0.603853 0.115672 0.310922
C17   C     C_1   0.331692 0.314538 0.077252 0.298269
C18   C     C_1   0.695545 0.657516 0.145467 0.268753
C19   C     C_1   0.728101 0.423219 0.114026 0.238992
C20   C     C_1   0.651800 0.707163 0.898185 0.288630
C21   C     C_1   0.738360 0.485987 0.868996 0.201647
C22   C     C_R   0.063790 0.379813 0.464636 -0.075196
C23   C     C_R   0.068615 0.617471 0.541976 -0.066488
C24   C     C_R   0.936596 0.378552 0.463668 0.198917
C25   C     C_R   0.941472 0.618184 0.544855 0.215779
C26   C     C_R   0.872915 0.499340 0.502813 0.026643
C27   C     C_R   0.129733 0.499026 0.501778 -0.056213
C28   C     C_R   0.416939 0.072637 0.428375 0.405599
Cl1   Cl    Cl    0.455459 0.791814 0.094494 -0.455899
Cl2   Cl    Cl    0.541076 0.196293 0.125092 -0.430870
Cl3   Cl    Cl    0.865488 0.221306 0.410786 -0.445150
Cl4   Cl    Cl    0.876675 0.768640 0.609972 -0.540863
Cl5   Cl    Cl    0.308240 0.157563 0.333837 -0.448370
Cl6   Cl    Cl    0.299864 0.837914 0.341152 -0.409894
Cu1   Cu    Cu3+1 0.500020 0.640660 0.500000 1.099710
Cu2   Cu    Cu3+1 0.500020 0.359340 0.500000 1.103641
H1    H     H_    0.646001 0.873128 0.632531 0.203284
H2    H     H_    0.647756 0.132514 0.631713 0.169395
H3    H     H_    0.311373 0.539096 0.894467 0.102337
H4    H     H_    0.409484 0.297724 0.870303 0.148315
H5    H     H_    0.397207 0.694746 0.875898 0.198275
H6    H     H_    0.569488 0.286012 0.902556 0.192921
H7    H     H_    0.110871 0.287164 0.434785 0.229248
H8    H     H_    0.120005 0.709004 0.574256 0.196465
N1    N     N_R   0.500030 0.852070 0.500030 -0.268001
N2    N     N_R   0.500030 0.147930 0.500030 -0.255705
N3    N     N_1   0.188745 0.597351 0.155323 -0.190512
N4    N     N_1   0.228275 0.287675 0.085839 -0.167082
N5    N     N_1   0.739025 0.752240 0.198447 -0.126803
N6    N     N_1   0.798308 0.337631 0.141439 -0.114056
N7    N     N_1   0.664528 0.823699 0.873328 -0.197529
N8    N     N_1   0.817805 0.430195 0.820506 -0.242903
O1    O     O_R   0.319660 0.618740 0.499990 -0.474908
O2    O     O_R   0.319660 0.381260 0.499990 -0.482477
O3    O     O_R   0.499990 0.618790 0.317690 -0.442122
O4    O     O_R   0.499990 0.381210 0.317690 -0.422331
O5    O     O_R   0.680370 0.618830 0.500010 -0.465018
O6    O     O_R   0.680370 0.381170 0.500010 -0.460881
O7    O     O_R   0.500030 0.618780 0.682310 -0.519987
O8    O     O_R   0.500030 0.381220 0.682310 -0.529361

loop_
_geom_bond_atom_site_label_1
_geom_bond_atom_site_label_2
_ccdc_geom_bond_type
C2    C28   A    
C9    C14   S    
C17   N4    T    
Cu2   N2    S    
Cu2   O4    S    
C23   C27   A    
Cu1   O1    S    
C6    O6    A    
C5    O4    A    
Cu1   Cu2   S    
C6    O5    A    
C12   C15   S    
Cu1   O5    S    
C28   N2    A    
C2    Cl6   S    
C25   Cl4   S    
C7    C15   S    
C24   Cl3   S    
C8    C16   S    
C4    N2    A    
C13   C14   S    
C10   H5    S    
C9    C11   S    
C19   N6    T    
C12   C20   S    
C5    C14   S    
C6    C26   S    
C13   C18   S    
C1    O2    A    
C5    O3    A    
C8    Cl1   S    
C9    Cl2   S    
C16   N3    T    
C7    O7    A    
C4    H2    S    
C28   Cl5   S    
C22   H7    S    
C20   N7    T    
Cu2   O6    S    
C10   C15   S    
C23   C25   A    
C2    N1    A    
C22   C27   A    
C22   C24   A    
Cu2   O2    S    
C13   C19   S    
Cu1   O3    S    
C11   H4    S    
Cu1   N1    S    
C7    O8    A    
C21   N8    T    
C12   C13   S    
C3    H1    S    
C11   H6    S    
Cu1   O7    S    
C9    C17   S    
C1    C27   S    
C1    O1    A    
C8    C14   S    
C25   C26   A    
C11   C15   S    
C12   C21   S    
C3    N1    A    
C8    C10   S    
C23   H8    S    
C3    C4    A    
C18   N5    T    
C24   C26   A    
C10   H3    S    
Cu2   O8    S    
