data_mof_unit_59395.cif
_audit_creation_date              2012-12-10T18:06:45-0500
_audit_creation_method            fapswitch 2.2
_symmetry_space_group_name_H-M    P1
_symmetry_Int_Tables_number       1
_space_group_crystal_system       triclinic
_cell_length_a                    12.602156
_cell_length_b                    13.114769
_cell_length_c                    15.231893
_cell_angle_alpha                 83.153274
_cell_angle_beta                  98.423849
_cell_angle_gamma                 97.075741
_cell_volume                      2458.15782266

loop_
_atom_site_label
_atom_site_type_symbol
_atom_type_description
_atom_site_fract_x
_atom_site_fract_y
_atom_site_fract_z
_atom_type_partial_charge
C1    C     C_R   0.443505 0.307949 0.511142 0.914337
C2    C     C_R   0.468495 0.593359 0.094496 0.025200
C3    C     C_R   0.363613 0.618680 0.058357 0.006627
C4    C     C_R   0.549984 0.600329 0.038923 0.073116
C5    C     C_R   0.520303 0.614304 0.945933 -0.109455
C6    C     C_R   0.422635 0.657644 0.911288 -0.159876
C7    C     C_R   0.341487 0.653250 0.967094 0.508980
C8    C     C_R   0.659603 0.590152 0.072484 -0.190494
C9    C     C_R   0.732401 0.575200 0.015996 -0.236835
C10   C     C_R   0.695403 0.562141 0.926845 0.195011
C11   C     C_R   0.587780 0.578963 0.892012 0.110179
C12   C     C_R   0.436701 0.515763 0.335106 0.847518
C13   C     C_R   0.762136 0.527162 0.873320 -0.212131
C14   C     C_R   0.720320 0.501985 0.787684 -0.206389
C15   C     C_R   0.545687 0.546408 0.808819 -0.283076
C16   C     C_R   0.724180 0.925060 0.574858 -0.201763
C17   C     C_R   0.596245 0.798683 0.502076 -0.053978
C18   C     C_R   0.298747 0.164393 0.482410 0.439041
C19   C     C_R   0.265812 0.058914 0.480321 0.488711
C20   C     C_R   0.343888 0.989629 0.495563 -0.386171
C21   C     C_R   0.453785 0.023607 0.521675 0.024157
C22   C     C_R   0.481599 0.125234 0.544067 0.013660
C23   C     C_R   0.557536 0.691537 0.492086 0.863006
C24   C     C_R   0.537157 0.959853 0.526137 0.136128
C25   C     C_R   0.642573 0.990582 0.567907 0.167538
C26   C     C_R   0.664191 0.085465 0.602927 -0.246892
C27   C     C_R   0.584802 0.152394 0.590917 -0.135397
C28   C     C_R   0.518788 0.867247 0.487775 -0.252030
C29   C     C_R   0.700433 0.828073 0.543488 -0.202634
C30   C     C_R   0.406477 0.197697 0.516440 -0.315622
C31   C     C_R   0.138840 0.643193 0.622568 -0.312602
C32   C     C_R   0.757278 0.378639 0.396357 0.015800
C33   C     C_R   0.852485 0.351707 0.374837 -0.247820
C34   C     C_R   0.565601 0.491308 0.664270 0.844129
C35   C     C_R   0.950257 0.397396 0.414615 -0.180583
C36   C     C_R   0.952739 0.470666 0.476256 0.012759
C37   C     C_R   0.853482 0.494954 0.496095 0.238546
C38   C     C_R   0.049038 0.520556 0.518759 -0.010441
C39   C     C_R   0.044334 0.593033 0.580301 0.182718
C40   C     C_R   0.945446 0.614842 0.598857 -0.304951
C41   C     C_R   0.851309 0.566360 0.557088 -0.218955
C42   C     C_R   0.150713 0.501865 0.502564 -0.037838
C43   C     C_R   0.236902 0.621143 0.603430 0.018825
C44   C     C_R   0.406809 0.544559 0.239455 -0.061033
C45   C     C_R   0.610949 0.509523 0.755884 -0.050239
C46   C     C_R   0.282872 0.609841 0.114635 -0.153559
C47   C     C_R   0.304540 0.573577 0.204604 -0.218122
C48   C     C_R   0.486831 0.553215 0.183942 -0.213227
H1    H     H_    0.845523 0.516759 0.898473 0.133236
H2    H     H_    0.761268 0.774748 0.555557 0.148571
H3    H     H_    0.743192 0.109084 0.637575 0.149269
H4    H     H_    0.804701 0.947142 0.607468 0.138417
H5    H     H_    0.442622 0.844276 0.449012 0.153809
H6    H     H_    0.316219 0.909669 0.487666 0.177611
H7    H     H_    0.604986 0.225387 0.619036 0.163010
H8    H     H_    0.311489 0.658919 0.634957 0.160159
H9    H     H_    0.460364 0.546884 0.785875 0.157816
H10   H     H_    0.940742 0.669773 0.645665 0.153708
H11   H     H_    0.136758 0.698646 0.669504 0.185060
H12   H     H_    0.163035 0.448878 0.457221 0.151486
H13   H     H_    0.680590 0.343593 0.365957 0.142540
H14   H     H_    0.021741 0.373657 0.395854 0.152690
H15   H     H_    0.850600 0.295712 0.327690 0.157578
H16   H     H_    0.777864 0.586362 0.573801 0.210857
H17   H     H_    0.773047 0.475672 0.746997 0.164154
H18   H     H_    0.815245 0.565452 0.043639 0.143022
H19   H     H_    0.202763 0.630909 0.089494 0.175792
H20   H     H_    0.241643 0.568887 0.246806 0.156430
H21   H     H_    0.563270 0.525938 0.211234 0.155671
H22   H     H_    0.690922 0.594173 0.142017 0.144472
N1    N     N_R   0.239390 0.551900 0.544730 -0.110950
N2    N     N_R   0.759950 0.448600 0.455730 -0.131035
O1    O     O_R   0.374950 0.371210 0.521360 -0.553396
O2    O     O_R   0.542050 0.338030 0.492790 -0.622217
O3    O     O_R   0.368720 0.526070 0.390200 -0.611519
O4    O     O_R   0.535820 0.492890 0.361630 -0.619744
O5    O     O_R   0.457950 0.661970 0.507210 -0.614291
O6    O     O_R   0.625050 0.628790 0.478640 -0.628807
O7    O     O_R   0.464180 0.507110 0.638370 -0.615988
O8    O     O_R   0.631280 0.473930 0.609800 -0.640295
Zn1   Zn    Zn3+2 0.388420 0.522150 0.519080 0.953775
Zn2   Zn    Zn3+2 0.611580 0.477850 0.480920 0.918379
O9    O     O_3   0.241742 0.685941 0.933507 -0.563929
C49   C     C_3   0.175777 0.603027 0.895591 -0.276531
H23   H     H_    0.210267 0.578031 0.839421 0.177683
H24   H     H_    0.095943 0.629133 0.868274 0.187876
H25   H     H_    0.162264 0.536299 0.946620 0.130242
O10   O     O_3   0.224651 0.234582 0.452460 -0.578195
C50   C     C_3   0.224350 0.258816 0.359608 -0.261833
H26   H     H_    0.193456 0.190324 0.323071 0.187706
H27   H     H_    0.305913 0.290409 0.342827 0.126630
H28   H     H_    0.169808 0.319397 0.335830 0.161313
O11   O     O_3   0.159151 0.026358 0.451259 -0.588999
C51   C     C_3   0.112812 0.967582 0.522576 -0.261337
H29   H     H_    0.123048 0.010856 0.582452 0.163890
H30   H     H_    0.146450 0.892141 0.539832 0.160666
H31   H     H_    0.024894 0.950895 0.501571 0.189541
C52   C     C_2   0.412928 0.719837 0.822186 0.406096
H32   H     H_    0.481398 0.734905 0.785097 0.067847
O12   O     O_2   0.330580 0.758262 0.790276 -0.551809

loop_
_geom_bond_atom_site_label_1
_geom_bond_atom_site_label_2
_ccdc_geom_bond_type
C7    O9    S    
O11   C51   S    
C17   C29   A    
C35   C36   A    
C49   H25   S    
C48   H21   S    
C4    C8    A    
C32   N2    A    
C26   C27   A    
C17   C23   S    
C31   C43   A    
C1    O2    A    
C6    C52   S    
C36   C37   A    
C49   H24   S    
C32   H13   S    
C38   C42   A    
C3    C7    A    
C38   C39   A    
C27   H7    S    
C18   C19   A    
C31   H11   S    
C9    H18   S    
C42   N1    A    
C34   O8    A    
C11   C15   A    
C49   H23   S    
C19   C20   A    
C8    C9    A    
C18   C30   A    
C50   H27   S    
C9    C10   A    
C19   O11   S    
C44   C47   A    
C21   C22   A    
C15   H9    S    
O2    Zn2   S    
O1    Zn1   S    
C14   C45   A    
C29   H2    S    
C40   H10   S    
C16   H4    S    
C24   C25   A    
O8    Zn2   S    
O4    Zn2   S    
C39   C40   A    
O7    Zn1   S    
O3    Zn1   S    
C51   H31   S    
C2    C48   A    
C16   C29   A    
C18   O10   S    
C2    C4    A    
C34   O7    A    
O6    Zn2   S    
O9    C49   S    
O5    Zn1   S    
C33   H15   S    
C20   C21   A    
C34   C45   S    
C23   O5    A    
C50   H28   S    
C51   H30   S    
C13   H1    S    
C20   H6    S    
C40   C41   A    
C52   O12   D    
C22   C27   A    
C12   O4    A    
C21   C24   A    
C15   C45   A    
C42   H12   S    
C47   H20   S    
C16   C25   A    
C46   C47   A    
C43   N1    A    
C22   C30   A    
C17   C28   A    
C24   C28   A    
C4    C5    A    
C10   C13   A    
C28   H5    S    
C5    C11   A    
C6    C7    A    
C3    C46   A    
C8    H22   S    
C1    O1    A    
C32   C33   A    
C36   C38   A    
C2    C3    A    
C25   C26   A    
C46   H19   S    
C12   C44   S    
C26   H3    S    
C5    C6    A    
C1    C30   S    
C33   C35   A    
C14   H17   S    
C31   C39   A    
C35   H14   S    
C23   O6    A    
C37   C41   A    
C51   H29   S    
C10   C11   A    
C12   O3    A    
C43   H8    S    
O10   C50   S    
C52   H32   S    
C37   N2    A    
C41   H16   S    
C50   H26   S    
C13   C14   A    
N2    Zn2   S    
C44   C48   A    
N1    Zn1   S    
