data_mof_unit_16190.cif
_audit_creation_date              2013-03-05T16:13:16-0500
_audit_creation_method            fapswitch 2.2
_symmetry_space_group_name_H-M    P1
_symmetry_Int_Tables_number       1
_space_group_crystal_system       triclinic
_cell_length_a                    10.606074
_cell_length_b                    10.079093
_cell_length_c                    14.995154
_cell_angle_alpha                 92.583623
_cell_angle_beta                  92.915768
_cell_angle_gamma                 87.979454
_cell_volume                      1598.40029656

loop_
_atom_site_label
_atom_site_type_symbol
_atom_site_description
_atom_site_fract_x
_atom_site_fract_y
_atom_site_fract_z
_atom_type_partial_charge
O1    O     O_R   0.316770 0.614620 0.499990 -0.601119
O2    O     O_R   0.683230 0.385380 0.500010 -0.615206
O3    O     O_R   0.683230 0.614620 0.500010 -0.642904
O4    O     O_R   0.316770 0.385380 0.499990 -0.633870
N1    N     N_R   0.500000 0.857200 0.500000 -0.131898
N2    N     N_R   0.500000 0.142800 0.500000 -0.127972
C1    C     C_R   0.260812 0.502135 0.496442 1.032619
C2    C     C_R   0.738874 0.498116 0.501488 1.038835
O5    O     O_R   0.499990 0.614660 0.369060 -0.639807
O6    O     O_R   0.500010 0.385340 0.630940 -0.642346
O7    O     O_R   0.500010 0.614660 0.630940 -0.630581
O8    O     O_R   0.499990 0.385340 0.369060 -0.636141
C3    C     C_R   0.502049 0.497877 0.328133 0.952354
C4    C     C_R   0.500380 0.502188 0.671603 0.950086
Zn1   Zn    Zn3+2 0.500000 0.653120 0.500000 0.966318
Zn2   Zn    Zn3+2 0.500000 0.346880 0.500000 0.962671
C5    C     C_R   0.583258 0.072407 0.555559 0.111683
C6    C     C_R   0.415887 0.928336 0.446744 0.088465
C7    C     C_R   0.428379 0.067799 0.438153 0.136780
C8    C     C_R   0.579094 0.929492 0.558509 0.106366
C9    C     C_R   0.056415 0.490634 0.413590 0.138078
C10   C     C_R   0.941628 0.523192 0.580404 0.169637
C11   C     C_R   0.926236 0.479829 0.417524 0.211592
C12   C     C_R   0.071513 0.528043 0.577573 0.211699
C13   C     C_R   0.546079 0.614529 0.099914 -0.154985
C14   C     C_R   0.579524 0.401409 0.903128 -0.154225
C15   C     C_R   0.450757 0.605942 0.908684 -0.161610
C16   C     C_R   0.489695 0.382609 0.087683 -0.147833
H1    H     H_    0.570406 0.705105 0.069464 0.135518
H2    H     H_    0.632111 0.322075 0.936313 0.146965
H3    H     H_    0.400908 0.683848 0.946214 0.149443
H4    H     H_    0.467301 0.293652 0.047542 0.135441
C17   C     C_R   0.541171 0.612931 0.191612 -0.104813
C18   C     C_R   0.573468 0.401751 0.811044 -0.116887
C19   C     C_R   0.445203 0.606482 0.816447 -0.138469
C20   C     C_R   0.485343 0.380902 0.179522 -0.142651
H5    H     H_    0.562130 0.703215 0.230695 0.161510
H6    H     H_    0.621568 0.322244 0.773842 0.156475
H7    H     H_    0.391254 0.684657 0.783667 0.195953
H8    H     H_    0.460456 0.290528 0.208457 0.141682
C21   C     C_R   0.509699 0.496201 0.231919 0.037249
C22   C     C_R   0.506766 0.504650 0.767660 -0.009598
C23   C     C_R   0.519167 0.499722 0.047960 0.117431
C24   C     C_R   0.517690 0.503171 0.951891 0.102527
C25   C     C_R   0.871635 0.494050 0.500643 -0.365043
C26   C     C_R   0.127415 0.508843 0.495120 -0.360456
C27   C     C_3   0.695518 0.140952 0.602130 -0.376052
C28   C     C_3   0.813962 0.117509 0.547223 -0.363476
C29   C     C_3   0.933763 0.157536 0.600836 -0.793340
H9    H     H_    0.923942 0.261117 0.627996 0.298744
H10   H     H_    0.952868 0.090493 0.657098 0.267931
H11   H     H_    0.015211 0.150069 0.557009 0.239576
H12   H     H_    0.825273 0.011159 0.525704 0.210054
H13   H     H_    0.804372 0.174011 0.485331 0.267665
H14   H     H_    0.676897 0.246989 0.614458 0.270068
H15   H     H_    0.715212 0.106808 0.670605 0.182815
C30   C     C_3   0.298290 0.864843 0.405283 -0.355384
C31   C     C_3   0.188099 0.887895 0.467805 -0.341273
C32   C     C_3   0.061427 0.855988 0.420330 -0.799391
H16   H     H_    0.035251 0.931534 0.370335 0.260611
H17   H     H_    0.066061 0.756785 0.385749 0.301642
H18   H     H_    0.987139 0.856612 0.469863 0.243798
H19   H     H_    0.203197 0.826866 0.527288 0.278317
H20   H     H_    0.183088 0.993303 0.492775 0.204620
H21   H     H_    0.269206 0.904714 0.339881 0.196352
H22   H     H_    0.316191 0.759570 0.388357 0.279137
C33   C     C_3   0.399327 0.115944 0.345384 -0.414143
C34   C     C_3   0.267929 0.183742 0.333080 -0.298121
C35   C     C_3   0.205917 0.150612 0.240631 -0.787534
H23   H     H_    0.254862 0.199956 0.188158 0.263400
H24   H     H_    0.207744 0.041912 0.225230 0.238748
H25   H     H_    0.105377 0.184675 0.238652 0.298486
H26   H     H_    0.204230 0.153109 0.384372 0.218220
H27   H     H_    0.277274 0.292385 0.341105 0.271103
H28   H     H_    0.477001 0.175067 0.326605 0.223752
H29   H     H_    0.410173 0.031808 0.295491 0.170135
C36   C     C_3   0.653826 0.861264 0.633559 -0.347411
C37   C     C_3   0.590542 0.888219 0.722897 -0.411761
C38   C     C_3   0.670455 0.830904 0.800389 -0.751380
H30   H     H_    0.686914 0.722287 0.788827 0.304235
H31   H     H_    0.762885 0.879753 0.807764 0.276276
H32   H     H_    0.620630 0.848592 0.863405 0.231451
H33   H     H_    0.574310 0.996151 0.737497 0.213892
H34   H     H_    0.496281 0.843910 0.718682 0.246645
H35   H     H_    0.663115 0.754433 0.621172 0.275734
H36   H     H_    0.753254 0.892037 0.638903 0.201010
N3    N     N_R   0.114620 0.488533 0.328220 0.201352
O9    O     O_R   0.214128 0.556763 0.317880 -0.474164
O10   O     O_R   0.062810 0.428025 0.257967 -0.332772
N4    N     N_R   0.881095 0.552120 0.663160 0.220173
O11   O     O_R   0.914150 0.653862 0.714465 -0.354067
O12   O     O_R   0.795430 0.475061 0.688844 -0.475749
N5    N     N_R   0.847359 0.465662 0.337299 0.237116
O13   O     O_R   0.789052 0.355702 0.318591 -0.404680
O14   O     O_R   0.829110 0.565063 0.285223 -0.365980
N6    N     N_R   0.147221 0.551277 0.658388 0.229220
O15   O     O_R   0.143624 0.470920 0.723652 -0.351724
O16   O     O_R   0.206633 0.661708 0.670901 -0.422837

loop_
_geom_bond_atom_site_label_1
_geom_bond_atom_site_label_2
_geom_bond_distance
_ccdc_geom_bond_type
N3    O9    1.299332 A    
C9    N3    1.448210 S    
N5    O13   1.300812 A    
C11   C25   1.400307 A    
C18   C22   1.400570 A    
C30   H22   1.092118 S    
C13   C23   1.395271 A    
C3    C21   1.448452 S    
N4    O11   1.301206 A    
C14   C24   1.396600 A    
N1    C8    1.383826 A    
C36   C37   1.537777 S    
C28   H13   1.109045 S    
N2    C7    1.383532 A    
C8    C36   1.519278 S    
C12   N6    1.434157 S    
O7    C4    1.310973 A    
C34   H27   1.103603 S    
C5    C8    1.445418 A    
C6    C7    1.428720 A    
C35   H24   1.109131 S    
C19   C22   1.395928 A    
O5    C3    1.302691 A    
C2    C25   1.407910 S    
O7    Zn1   2.018428 S    
C37   H33   1.109120 S    
C14   C18   1.379199 A    
O8    Zn2   2.018431 S    
C34   C35   1.531945 S    
C29   H10   1.110763 S    
N6    O16   1.299902 A    
C7    C33   1.507396 S    
O1    Zn1   1.995077 S    
O2    Zn2   1.995077 S    
C4    C22   1.437667 S    
C36   H35   1.086259 S    
C32   H16   1.110969 S    
N5    O14   1.300945 A    
C18   H6    1.083249 S    
C31   H20   1.110820 S    
C20   C21   1.397412 A    
O4    C1    1.301179 A    
C15   C24   1.399475 A    
C13   H1    1.083820 S    
C28   H12   1.109587 S    
C32   H17   1.106090 S    
C15   H3    1.083503 S    
C33   C34   1.536624 S    
C1    C26   1.413220 S    
C20   H8    1.073259 S    
O3    C2    1.296071 A    
O6    C4    1.301605 A    
C38   H31   1.110748 S    
C37   C38   1.525824 S    
N1    C6    1.371747 A    
C15   C19   1.381612 A    
C34   H26   1.110095 S    
C17   H5    1.083453 S    
C11   N5    1.434564 S    
O4    Zn2   1.968246 S    
C35   H25   1.108012 S    
C19   H7    1.079052 S    
C23   C24   1.441836 S    
C6    C30   1.514333 S    
N4    O12   1.299769 A    
C27   C28   1.542262 S    
C16   H4    1.083717 S    
C29   H11   1.110182 S    
N6    O15   1.301002 A    
C10   N4    1.439572 S    
C28   C29   1.525287 S    
C36   H36   1.107657 S    
C14   H2    1.083640 S    
C9    C11   1.393240 A    
C10   C12   1.383029 A    
C33   H28   1.089227 S    
O3    Zn1   1.968246 S    
C27   H14   1.089229 S    
C9    C26   1.411118 A    
C31   H19   1.107964 S    
N2    C5    1.382571 A    
C32   H18   1.109635 S    
O1    C1    1.295863 A    
O2    C2    1.297535 A    
C5    C27   1.520694 S    
C30   H21   1.102026 S    
C38   H32   1.110374 S    
C16   C23   1.397927 A    
C12   C26   1.400912 A    
N3    O10   1.300174 A    
C31   C32   1.525686 S    
C17   C21   1.404729 A    
O6    Zn2   1.984142 S    
C30   C31   1.539959 S    
O5    Zn1   1.984145 S    
C35   H23   1.109509 S    
N1    Zn1   2.056941 S    
N2    Zn2   2.056941 S    
C38   H30   1.109739 S    
C37   H34   1.106985 S    
C10   C25   1.400433 A    
O8    C3    1.315124 A    
C16   C20   1.381155 A    
C29   H9    1.106779 S    
C33   H29   1.112109 S    
C13   C17   1.379503 A    
C27   H15   1.105142 S    
