data_mof_unit_26327.cif
_audit_creation_date              2013-03-05T16:12:45-0500
_audit_creation_method            fapswitch 2.2
_symmetry_space_group_name_H-M    P1
_symmetry_Int_Tables_number       1
_space_group_crystal_system       triclinic
_cell_length_a                    10.694407
_cell_length_b                    9.804482
_cell_length_c                    27.706248
_cell_angle_alpha                 90.763245
_cell_angle_beta                  90.054222
_cell_angle_gamma                 90.032343
_cell_volume                      2904.82703361

loop_
_atom_site_label
_atom_site_type_symbol
_atom_site_description
_atom_site_fract_x
_atom_site_fract_y
_atom_site_fract_z
_atom_type_partial_charge
O1    O     O_R   0.316770 0.614620 0.500000 -0.626822
O2    O     O_R   0.683230 0.385380 0.500000 -0.626824
O3    O     O_R   0.683230 0.614620 0.500000 -0.628358
O4    O     O_R   0.316770 0.385380 0.500000 -0.628357
C1    C     C_R   0.259799 0.499978 0.499988 0.876324
C2    C     C_R   0.740201 0.500022 0.500012 0.876327
O5    O     O_R   0.500030 0.614650 0.428760 -0.613197
O6    O     O_R   0.499970 0.385350 0.571240 -0.613198
O7    O     O_R   0.499970 0.614650 0.571240 -0.625435
O8    O     O_R   0.500030 0.385350 0.428760 -0.625443
C3    C     C_R   0.500482 0.499144 0.405711 0.894125
C4    C     C_R   0.499519 0.500856 0.594288 0.894120
Zn1   Zn    Zn3+2 0.500000 0.653120 0.500000 0.949399
Zn2   Zn    Zn3+2 0.500000 0.346880 0.500000 0.949396
C5    C     C_R   0.388348 0.462800 0.176661 0.505582
C6    C     C_R   0.611770 0.537143 0.823335 0.505566
O9    O     O_2   0.280372 0.471826 0.201734 -0.560426
O10   O     O_2   0.719740 0.528069 0.798260 -0.560448
N1    N     N_R   0.499299 0.454815 0.200537 -0.354344
N2    N     N_R   0.500819 0.545170 0.799462 -0.354340
C7    C     C_R   0.610519 0.440249 0.176922 0.506564
C8    C     C_R   0.389606 0.559771 0.823079 0.506577
C9    C     C_R   0.519388 0.594224 0.273246 -0.123372
C10   C     C_R   0.480566 0.405791 0.726752 -0.123358
C11   C     C_R   0.520408 0.610268 0.323464 0.155297
C12   C     C_R   0.479505 0.389754 0.676534 0.155269
C13   C     C_R   0.479988 0.365796 0.330127 -0.232154
C14   C     C_R   0.520191 0.634174 0.669871 -0.232153
C15   C     C_R   0.479973 0.351336 0.280256 0.150523
C16   C     C_R   0.520242 0.648630 0.719742 0.150524
C17   C     C_R   0.499397 0.466410 0.251854 0.245394
C18   C     C_R   0.500707 0.533577 0.748144 0.245378
C19   C     C_R   0.500164 0.459775 0.100768 -0.094568
C20   C     C_R   0.499966 0.540204 0.899230 -0.094569
C21   C     C_R   0.386567 0.463929 0.126380 -0.029472
C22   C     C_R   0.613558 0.536021 0.873616 -0.029463
C23   C     C_R   0.273414 0.464613 0.101436 -0.189381
C24   C     C_R   0.726715 0.535319 0.898558 -0.189377
C25   C     C_R   0.614041 0.439165 0.125928 -0.032739
C26   C     C_R   0.386089 0.560844 0.874073 -0.032746
C27   C     C_R   0.500015 0.493902 0.352512 -0.111561
C28   C     C_R   0.500014 0.506095 0.647486 -0.111546
H1    H     H_    0.464104 0.275373 0.351350 0.181571
H2    H     H_    0.536166 0.724575 0.648647 0.181546
H3    H     H_    0.185621 0.454324 0.120599 0.189639
H4    H     H_    0.814506 0.545588 0.879393 0.189638
C29   C     C_R   0.386338 0.526403 0.975499 0.017048
C30   C     C_R   0.613799 0.473579 0.024501 0.017047
C31   C     C_R   0.616205 0.505710 0.974671 0.060498
C32   C     C_R   0.383930 0.494258 0.025326 0.060497
C33   C     C_R   0.500802 0.523254 0.949941 0.023387
C34   C     C_R   0.499332 0.476722 0.050058 0.023387
C35   C     C_R   0.279162 0.572719 0.951121 -0.177460
C36   C     C_R   0.720977 0.427284 0.048882 -0.177465
C37   C     C_R   0.275414 0.584878 0.901014 0.181717
C38   C     C_R   0.724723 0.415146 0.098990 0.181706
O11   O     O_2   0.283929 0.570390 0.796855 -0.560080
O12   O     O_2   0.716196 0.429678 0.203149 -0.560083
C39   C     C_R   0.270905 0.471374 0.051313 0.073477
C40   C     C_R   0.729230 0.528574 0.948681 0.073480
H5    H     H_    0.465359 0.318858 0.749790 0.142547
H6    H     H_    0.534505 0.681175 0.250208 0.142540
H7    H     H_    0.197793 0.605688 0.970948 0.169784
H8    H     H_    0.802351 0.394314 0.029058 0.169790
C41   C     C_R   0.063894 0.378700 0.489469 -0.187559
C42   C     C_R   0.936106 0.621300 0.510532 -0.187557
C43   C     C_R   0.935928 0.378720 0.489485 -0.186491
C44   C     C_R   0.064072 0.621280 0.510515 -0.186493
H9    H     H_    0.112678 0.284580 0.480933 0.153944
H10   H     H_    0.887322 0.715420 0.519067 0.153943
H11   H     H_    0.887005 0.284590 0.480972 0.158919
H12   H     H_    0.112995 0.715410 0.519028 0.158920
C45   C     C_R   0.872562 0.500024 0.500009 -0.014528
C46   C     C_R   0.127438 0.499976 0.499991 -0.014533
C47   C     C_R   0.579563 0.073214 0.529336 -0.072984
C48   C     C_R   0.420436 0.926786 0.470665 -0.072963
C49   C     C_R   0.420479 0.070939 0.470645 -0.072074
C50   C     C_R   0.579521 0.929061 0.529355 -0.072071
H13   H     H_    0.643138 0.128998 0.552710 0.127434
H14   H     H_    0.356859 0.871002 0.447291 0.127419
H15   H     H_    0.357044 0.124921 0.447216 0.124202
H16   H     H_    0.642955 0.875079 0.552784 0.124193
N3    N     N_R   0.500000 0.857200 0.500000 -0.080172
N4    N     N_R   0.500000 0.142800 0.500000 -0.080173
N5    N     N_3   0.460940 0.218903 0.259058 -0.460590
H17   H     H_    0.538083 0.195651 0.237312 0.199046
H18   H     H_    0.381763 0.222586 0.236975 0.212544
N6    N     N_3   0.539417 0.781039 0.740940 -0.460572
H19   H     H_    0.618606 0.777266 0.763014 0.212607
H20   H     H_    0.462311 0.804380 0.762694 0.199000
C51   C     C_3   0.454768 0.249207 0.655795 -0.834427
H21   H     H_    0.371428 0.251362 0.631885 0.252208
H22   H     H_    0.537751 0.212609 0.635393 0.245530
H23   H     H_    0.435806 0.173745 0.684447 0.228021
C52   C     C_3   0.544963 0.750855 0.344202 -0.834457
H24   H     H_    0.628314 0.748833 0.368108 0.252236
H25   H     H_    0.563815 0.826346 0.315549 0.228025
H26   H     H_    0.461937 0.787319 0.364606 0.245506
C53   C     C_3   0.152861 0.627711 0.878508 -0.781829
H27   H     H_    0.114597 0.543409 0.855799 0.276884
H28   H     H_    0.080619 0.652515 0.906032 0.192374
H29   H     H_    0.166754 0.720704 0.856710 0.261254
C54   C     C_3   0.847281 0.372345 0.121500 -0.781814
H30   H     H_    0.885529 0.456663 0.144206 0.276892
H31   H     H_    0.833401 0.279358 0.143303 0.261248
H32   H     H_    0.919530 0.347545 0.093978 0.192370
N7    N     N_3   0.155054 0.440339 0.027436 -0.481130
H33   H     H_    0.127715 0.341910 0.037002 0.191952
H34   H     H_    0.086920 0.508276 0.040214 0.184000
N8    N     N_3   0.845087 0.559607 0.972554 -0.481139
H35   H     H_    0.913214 0.491659 0.959777 0.184008
H36   H     H_    0.872432 0.658029 0.962983 0.191950

loop_
_geom_bond_atom_site_label_1
_geom_bond_atom_site_label_2
_geom_bond_distance
_ccdc_geom_bond_type
O5    Zn1   2.004570 S    
C42   C44   1.368529 A    
C10   H5    1.083914 S    
C13   C15   1.387129 A    
C52   H24   1.110377 S    
Zn2   N4    2.000899 S    
O3    C2    1.278439 A    
N1    C17   1.424831 S    
C8    O11   1.347798 S    
C52   H26   1.109829 S    
N5    H17   1.045521 S    
C19   C34   1.417011 A    
C30   C36   1.408336 A    
C20   C33   1.417011 A    
C19   C25   1.418570 A    
C31   C40   1.426684 A    
O1    C1    1.278210 A    
C32   C39   1.426680 A    
C21   C23   1.393046 A    
C10   C12   1.398164 A    
C47   N4    1.365358 A    
C44   C46   1.396701 A    
C1    C46   1.415527 S    
C13   C27   1.409536 A    
N8    H35   1.046271 S    
O7    Zn1   2.014435 S    
C5    N1    1.360743 A    
C50   N3    1.365232 A    
C9    H6    1.083913 S    
C25   C38   1.418066 A    
C14   C16   1.387131 A    
C41   C43   1.368529 A    
C32   C34   1.422669 A    
N7    H33   1.045786 S    
C43   C45   1.396701 A    
C15   N5    1.432295 S    
O3    Zn1   1.995771 S    
C6    N2    1.360746 A    
C29   C35   1.408333 A    
N5    H18   1.045122 S    
N7    H34   1.046271 S    
O2    C2    1.278209 A    
C48   N3    1.365359 A    
C5    C21   1.393407 A    
O7    C4    1.292882 A    
C29   C32   1.420399 A    
C35   C37   1.395510 A    
C36   C38   1.395514 A    
C4    C28   1.474149 S    
C48   C49   1.413351 A    
O8    Zn2   2.014440 S    
C11   C27   1.421788 A    
C51   H21   1.110377 S    
C29   C33   1.414911 A    
C49   N4    1.365234 A    
C31   C33   1.422677 A    
C12   C51   1.509049 S    
C42   C45   1.396457 A    
C14   H2    1.083732 S    
C39   N7    1.434537 S    
C41   C46   1.396457 A    
C44   H12   1.083759 S    
C9    C17   1.395359 A    
O5    C3    1.292696 A    
C10   C18   1.395367 A    
C51   H22   1.109836 S    
C50   H16   1.081866 S    
C53   H27   1.109848 S    
C7    C25   1.413291 A    
C49   H15   1.081867 S    
O6    C4    1.292690 A    
C26   C37   1.418069 A    
C8    C26   1.413290 A    
C54   H31   1.110312 S    
C23   C39   1.391425 A    
C24   C40   1.391431 A    
C30   C31   1.420418 A    
C53   H28   1.110834 S    
N6    H20   1.045522 S    
C11   C52   1.509048 S    
C20   C26   1.418573 A    
O1    Zn1   1.995353 S    
C23   H3    1.084357 S    
C12   C28   1.421778 A    
C2    C45   1.415527 S    
N2    C18   1.424832 S    
C5    O9    1.350487 S    
O6    Zn2   2.004565 S    
N1    C7    1.364697 A    
C48   H14   1.081713 S    
C38   C54   1.512947 S    
N2    C8    1.364701 A    
O4    C1    1.278438 A    
C52   H25   1.111081 S    
Zn1   N3    2.000899 S    
C22   C24   1.393044 A    
C7    O12   1.347798 S    
C15   C17   1.399643 A    
C47   H13   1.081714 S    
C6    C22   1.393407 A    
C51   H23   1.111084 S    
C16   C18   1.399652 A    
C35   H7    1.077029 S    
C42   H10   1.083809 S    
C36   H8    1.077023 S    
C41   H9    1.083809 S    
C14   C28   1.409527 A    
C19   C21   1.407830 A    
C20   C22   1.407827 A    
C3    C27   1.474174 S    
C54   H32   1.110836 S    
C43   H11   1.083759 S    
C9    C11   1.398167 A    
O4    Zn2   1.995771 S    
O2    Zn2   1.995353 S    
C47   C50   1.413352 A    
N8    H36   1.045784 S    
C24   H4    1.084357 S    
C40   N8    1.434534 S    
O8    C3    1.292888 A    
C13   H1    1.083730 S    
C30   C34   1.414917 A    
C53   H29   1.110314 S    
N6    H19   1.045119 S    
C6    O10   1.350487 S    
C37   C53   1.512948 S    
C54   H30   1.109846 S    
C16   N6    1.432297 S    
