data_mof_unit_54720.cif
_audit_creation_date              2012-12-10T18:44:21-0500
_audit_creation_method            fapswitch 2.2
_symmetry_space_group_name_H-M    P1
_symmetry_Int_Tables_number       1
_space_group_crystal_system       triclinic
_cell_length_a                    12.86574
_cell_length_b                    10.795754
_cell_length_c                    9.85987
_cell_angle_alpha                 90.215595
_cell_angle_beta                  96.372477
_cell_angle_gamma                 89.0971
_cell_volume                      1360.85684802

loop_
_atom_site_label
_atom_site_type_symbol
_atom_type_description
_atom_site_fract_x
_atom_site_fract_y
_atom_site_fract_z
_atom_type_partial_charge
C1    C     C_R   0.496207 0.260037 0.498768 0.978457
C2    C     C_R   0.495108 0.740094 0.499611 0.993335
C3    C     C_R   0.484654 0.872759 0.497814 -0.442152
C4    C     C_R   0.486675 0.127848 0.495877 -0.447131
C5    C     C_R   0.584118 0.454932 0.083637 -0.003831
C6    C     C_R   0.416225 0.545433 0.916629 0.020106
C7    C     C_R   0.584352 0.455615 0.940024 -0.026212
C8    C     C_R   0.416235 0.545824 0.060122 -0.049071
C9    C     C_R   0.297719 0.500464 0.474089 0.972082
C10   C     C_R   0.701681 0.499964 0.525811 0.903574
C11   C     C_R   0.812848 0.513643 0.539085 -0.250271
C12   C     C_R   0.184805 0.509932 0.458222 -0.237159
C13   C     C_R   0.021785 0.512188 0.310408 0.441525
C14   C     C_R   0.968896 0.598074 0.659390 0.470539
C15   C     C_R   0.130337 0.509782 0.327025 -0.308635
C16   C     C_R   0.862297 0.577364 0.651262 -0.376354
C17   C     C_R   0.130914 0.527915 0.573295 0.505740
C18   C     C_R   0.866990 0.480198 0.428556 0.492966
C19   C     C_R   0.024004 0.552554 0.553722 -0.204613
C20   C     C_R   0.969332 0.518055 0.427949 -0.225860
C21   C     C_R   0.471356 0.062447 0.370886 0.317498
C22   C     C_R   0.469480 0.939278 0.617380 0.322554
C23   C     C_R   0.492779 0.936778 0.375096 0.350244
C24   C     C_R   0.493827 0.063020 0.620262 0.336138
H1    H     H_    0.817391 0.613568 0.729630 0.230972
H2    H     H_    0.171929 0.507764 0.237248 0.216761
H3    H     H_    0.651202 0.418068 0.147020 0.201440
H4    H     H_    0.348522 0.580120 0.853505 0.206395
H5    H     H_    0.651955 0.420214 0.895397 0.145483
H6    H     H_    0.348916 0.582225 0.104644 0.160834
N1    N     N_R   0.499970 0.499970 0.857200 -0.092660
N2    N     N_R   0.500030 0.500030 0.142800 -0.100004
O1    O     O_R   0.499990 0.316750 0.614620 -0.586528
O2    O     O_R   0.500010 0.683250 0.385380 -0.578028
O3    O     O_R   0.499990 0.316780 0.385290 -0.561060
O4    O     O_R   0.500010 0.683220 0.614710 -0.556070
O5    O     O_R   0.346360 0.499970 0.595710 -0.574331
O6    O     O_R   0.653640 0.500030 0.404290 -0.595710
O7    O     O_R   0.346360 0.499990 0.366380 -0.638304
O8    O     O_R   0.653640 0.500010 0.633620 -0.646977
Zn1   Zn    Zn3+2 0.500000 0.499980 0.653120 1.029576
Zn2   Zn    Zn3+2 0.500000 0.500020 0.346880 1.017496
O9    O     O_3   0.822623 0.401515 0.327905 -0.561204
C25   C     C_3   0.847581 0.278175 0.367651 0.105820
H7    H     H_    0.814034 0.255246 0.463804 0.106847
H8    H     H_    0.933917 0.262246 0.382130 0.147966
C26   C     C_3   0.801326 0.191238 0.256273 -0.814691
H9    H     H_    0.822227 0.093876 0.284821 0.199452
H10   H     H_    0.714856 0.202065 0.242556 0.261153
H11   H     H_    0.832641 0.212872 0.158691 0.278983
O10   O     O_3   0.179353 0.503569 0.703263 -0.575490
C27   C     C_3   0.153572 0.381860 0.739799 0.106338
H12   H     H_    0.169754 0.313134 0.659667 0.132680
H13   H     H_    0.069562 0.377493 0.756557 0.162116
C28   C     C_3   0.218427 0.343969 0.871857 -0.685835
H14   H     H_    0.209492 0.414031 0.952675 0.253839
H15   H     H_    0.191752 0.253158 0.906299 0.242155
H16   H     H_    0.302046 0.334401 0.855033 0.254271
S1    S     S_3+6 0.960133 0.550033 0.145969 0.070890
O11   O     O_2   0.994055 0.458944 0.043374 -0.270215
O12   O     O_2   0.842802 0.554947 0.135636 -0.294401
O13   O     O_3   0.001977 0.691580 0.110613 -0.431102
H17   H     H_    0.974417 0.747144 0.178850 0.343812
S2    S     S_3+6 0.024056 0.709770 0.776615 0.100304
O14   O     O_2   0.099968 0.649507 0.883971 -0.174198
O15   O     O_2   0.081299 0.802876 0.701083 -0.303364
O16   O     O_3   0.929752 0.783830 0.852156 -0.492331
H18   H     H_    0.893012 0.837435 0.780213 0.330727
S3    S     S_3+6 0.418047 0.127519 0.212075 0.084477
O17   O     O_2   0.503422 0.187516 0.144790 -0.349082
O18   O     O_2   0.369687 0.027926 0.119914 -0.162443
O19   O     O_3   0.324798 0.233447 0.237777 -0.546395
H19   H     H_    0.319055 0.287385 0.156192 0.369979
S4    S     S_3+6 0.413413 0.878351 0.759024 0.096662
O20   O     O_2   0.496183 0.813552 0.853520 -0.310346
O21   O     O_2   0.365453 0.981693 0.834915 -0.188980
O22   O     O_3   0.319331 0.778351 0.703209 -0.526784
H20   H     H_    0.277032 0.770129 0.780506 0.414627
O23   O     O_3   0.521415 0.877530 0.259757 -0.505317
C29   C     C_3   0.631144 0.887266 0.261345 0.073142
H21   H     H_    0.673649 0.866639 0.364003 0.097013
H22   H     H_    0.650866 0.982133 0.230445 0.151067
C30   C     C_3   0.670663 0.794861 0.161555 -0.648641
H23   H     H_    0.633587 0.813771 0.056853 0.279687
H24   H     H_    0.756712 0.802879 0.162832 0.210210
H25   H     H_    0.652488 0.699182 0.191033 0.270534
O24   O     O_3   0.523609 0.118747 0.744890 -0.512126
C31   C     C_3   0.632602 0.098603 0.777473 0.119685
H26   H     H_    0.659787 0.004984 0.746168 0.108419
H27   H     H_    0.676168 0.170116 0.726880 0.121060
C32   C     C_3   0.660357 0.107956 0.930800 -0.693267
H28   H     H_    0.744994 0.087476 0.957270 0.186121
H29   H     H_    0.642801 0.202497 0.966622 0.252662
H30   H     H_    0.614600 0.039975 0.982759 0.300759

loop_
_geom_bond_atom_site_label_1
_geom_bond_atom_site_label_2
_ccdc_geom_bond_type
C28   H14   S    
C11   C18   A    
C7    H5    S    
C3    C23   A    
C19   C20   A    
O2    Zn2   S    
O24   C31   S    
C17   O10   S    
C1    O1    A    
C26   H10   S    
O22   H20   S    
C25   H7    S    
S4    O21   D    
O6    Zn2   S    
C4    C24   A    
C9    O7    A    
C10   O8    A    
S3    O18   D    
O3    Zn2   S    
C5    H3    S    
C6    H4    S    
C26   H9    S    
C25   H8    S    
S4    O22   S    
C12   C17   A    
C31   C32   S    
O7    Zn2   S    
C18   C20   A    
C27   C28   S    
C5    N2    A    
C2    O2    A    
C6    N1    A    
S1    O11   D    
O4    Zn1   S    
C29   C30   S    
C24   O24   S    
C27   H13   S    
C26   H11   S    
C21   C23   A    
S1    O12   D    
C7    N1    A    
S4    O20   D    
O16   H18   S    
C8    N2    A    
S2    O16   S    
C29   H22   S    
C32   H28   S    
C5    C7    A    
O19   H19   S    
C15   H2    S    
C6    C8    A    
O10   C27   S    
C21   S3    S    
S2    O15   D    
S3    O19   S    
O9    C25   S    
O13   H17   S    
C32   H29   S    
C11   C16   A    
C30   H23   S    
C12   C15   A    
C14   S2    S    
C9    O5    A    
O8    Zn1   S    
C30   H24   S    
C31   H27   S    
C28   H15   S    
C14   C16   A    
C22   S4    S    
C27   H12   S    
C1    O3    A    
C2    O4    A    
C16   H1    S    
S1    O13   S    
N1    Zn1   S    
C13   C20   A    
C14   C19   A    
C29   H21   S    
C25   C26   S    
C13   S1    S    
C10   O6    A    
C1    C4    S    
C8    H6    S    
S2    O14   D    
C13   C15   A    
C2    C3    S    
O1    Zn1   S    
C18   O9    S    
C32   H30   S    
C4    C21   A    
C17   C19   A    
C22   C24   A    
O5    Zn1   S    
S3    O17   D    
C9    C12   S    
C10   C11   S    
O23   C29   S    
C30   H25   S    
C31   H26   S    
C28   H16   S    
N2    Zn2   S    
C3    C22   A    
C23   O23   S    
