data_mof_unit_62452.cif
_audit_creation_date              2012-12-10T19:58:44-0500
_audit_creation_method            fapswitch 2.2
_symmetry_space_group_name_H-M    P1
_symmetry_Int_Tables_number       1
_space_group_crystal_system       triclinic
_cell_length_a                    38.354831
_cell_length_b                    32.070784
_cell_length_c                    21.66411
_cell_angle_alpha                 90.000064
_cell_angle_beta                  123.249955
_cell_angle_gamma                 89.999824
_cell_volume                      22285.6668251

loop_
_atom_site_label
_atom_site_type_symbol
_atom_type_description
_atom_site_fract_x
_atom_site_fract_y
_atom_site_fract_z
_atom_type_partial_charge
C1    C     C_R   0.919315 0.000011 0.418125 0.959118
C2    C     C_R   0.998523 0.036571 0.280582 -0.177300
C3    C     C_1   0.500000 0.337834 0.000000 0.002530
C4    C     C_1   0.000000 0.875119 0.000000 -0.191323
C5    C     C_1   0.500000 0.375119 0.000000 -0.191335
C6    C     C_1   0.500000 0.124810 0.000000 -0.141740
C7    C     C_1   0.000001 0.624810 0.000000 -0.141729
C8    C     C_R   0.503932 0.772215 0.948231 -0.166868
C9    C     C_R   0.496069 0.772215 0.051771 -0.166881
C10   C     C_R   0.003986 0.272215 0.948291 -0.166861
C11   C     C_R   0.996016 0.272215 0.051711 -0.166873
C12   C     C_R   0.960374 0.926976 0.658666 0.484244
C13   C     C_R   0.501475 0.536571 0.719416 -0.177296
C14   C     C_R   0.039637 0.926983 0.341344 0.484242
C15   C     C_R   0.460365 0.426981 0.658658 0.484255
C16   C     C_R   0.539646 0.426988 0.341353 0.484248
C17   C     C_R   0.500001 0.793676 0.000001 -0.042109
C18   C     C_R   0.000001 0.293676 0.000001 -0.042105
C19   C     C_R   0.995947 0.228793 0.052609 0.435686
C20   C     C_R   0.004055 0.228793 0.947393 0.435688
C21   C     C_R   0.496000 0.728793 0.052670 0.435684
C22   C     C_R   0.504001 0.728793 0.947331 0.435684
C23   C     C_R   0.000001 0.206708 0.000001 -0.102472
C24   C     C_R   0.498516 0.536570 0.280576 -0.177318
C25   C     C_R   0.500001 0.706708 0.000001 -0.102475
C26   C     C_1   0.500001 0.838060 0.000001 0.007008
C27   C     C_1   0.000001 0.338060 0.000001 0.007019
C28   C     C_1   0.000000 0.162110 0.000000 -0.056857
C29   C     C_1   0.500000 0.662110 0.000000 -0.056865
C30   C     C_R   0.962724 0.889038 0.692839 -0.172970
C31   C     C_R   0.037294 0.889045 0.307178 -0.172965
C32   C     C_R   0.462709 0.389043 0.692825 -0.172983
C33   C     C_R   0.537308 0.389049 0.307192 -0.172975
C34   C     C_R   0.980179 0.887224 0.768318 -0.217581
C35   C     C_R   0.005516 0.037598 0.786551 0.433555
C36   C     C_R   0.019839 0.887227 0.231699 -0.217588
C37   C     C_R   0.480163 0.387227 0.768304 -0.217569
C38   C     C_R   0.519854 0.387230 0.231713 -0.217577
C39   C     C_R   0.992989 0.923744 0.809467 -0.131779
C40   C     C_R   0.007022 0.923745 0.190544 -0.131761
C41   C     C_R   0.492979 0.423745 0.809458 -0.131763
C42   C     C_R   0.507033 0.423746 0.190553 -0.131746
C43   C     C_R   0.992252 0.962136 0.776664 0.007976
C44   C     C_R   0.007753 0.962137 0.223341 0.007975
C45   C     C_R   0.492247 0.462137 0.776660 0.007961
C46   C     C_R   0.994476 0.037597 0.213442 0.433561
C47   C     C_R   0.507758 0.462138 0.223345 0.007960
C48   C     C_R   0.981060 0.962883 0.702950 -0.037881
C49   C     C_R   0.018945 0.962886 0.297054 -0.037895
C50   C     C_R   0.481056 0.462886 0.702947 -0.037884
C51   C     C_R   0.518949 0.462889 0.297058 -0.037897
C52   C     C_R   0.505522 0.537597 0.786557 0.433547
C53   C     C_R   0.494470 0.537596 0.213436 0.433552
C54   C     C_R   0.001409 0.999995 0.815478 -0.184928
C55   C     C_R   0.998590 0.999995 0.184521 -0.184912
C56   C     C_R   0.501409 0.499995 0.815479 -0.184930
C57   C     C_R   0.080685 0.000010 0.581877 0.959118
C58   C     C_R   0.498590 0.499995 0.184521 -0.184916
C59   C     C_R   0.728861 0.022162 0.181524 -0.165803
C60   C     C_R   0.271122 0.020997 0.819674 -0.165787
C61   C     C_R   0.228866 0.521787 0.181128 -0.165797
C62   C     C_R   0.771117 0.520718 0.819947 -0.165784
C63   C     C_R   0.706617 0.999418 0.204103 0.159528
C64   C     C_R   0.293383 0.999411 0.795877 0.159516
C65   C     C_R   0.206617 0.499415 0.204109 0.159519
C66   C     C_R   0.793383 0.499409 0.795872 0.159510
C67   C     C_R   0.727652 0.976704 0.270022 -0.174124
C68   C     C_R   0.419315 0.500011 0.418123 0.959125
C69   C     C_R   0.272366 0.977850 0.728743 -0.174140
C70   C     C_R   0.227646 0.477071 0.270429 -0.174138
C71   C     C_R   0.772370 0.478123 0.728463 -0.174151
C72   C     C_R   0.771090 0.976784 0.313581 -0.148726
C73   C     C_R   0.228928 0.977927 0.685192 -0.149067
C74   C     C_R   0.271084 0.477151 0.313985 -0.148827
C75   C     C_R   0.728932 0.478200 0.684913 -0.149155
C76   C     C_R   0.793324 0.999585 0.291051 0.154388
C77   C     C_R   0.206676 0.999576 0.708940 0.154359
C78   C     C_R   0.293324 0.499582 0.291053 0.154377
C79   C     C_R   0.580685 0.500010 0.581878 0.959126
C80   C     C_R   0.706676 0.499573 0.708938 0.154357
C81   C     C_R   0.772299 0.022241 0.225080 -0.178099
C82   C     C_R   0.227683 0.021076 0.776123 -0.178198
C83   C     C_R   0.272305 0.521867 0.224682 -0.178133
C84   C     C_R   0.727678 0.520797 0.776397 -0.178218
C85   C     C_R   0.996057 0.999838 0.616613 0.949412
C86   C     C_R   0.003942 0.999838 0.383386 0.949475
C87   C     C_R   0.496057 0.499838 0.616614 0.949421
C88   C     C_R   0.503942 0.499838 0.383385 0.949481
C89   C     C_1   0.662170 0.999603 0.159889 -0.055770
C90   C     C_R   0.990801 0.999660 0.678314 -0.179841
C91   C     C_1   0.337830 0.999599 0.840102 -0.055817
C92   C     C_1   0.162169 0.499601 0.159892 -0.055793
C93   C     C_1   0.837830 0.499598 0.840101 -0.055836
C94   C     C_1   0.837749 0.999806 0.335760 -0.047406
C95   C     C_1   0.162251 0.999801 0.664239 -0.047454
C96   C     C_1   0.337749 0.499805 0.335759 -0.047422
C97   C     C_1   0.662251 0.499800 0.664239 -0.047469
C98   C     C_1   0.875057 0.999962 0.373376 -0.106439
C99   C     C_1   0.124943 0.999960 0.626626 -0.106402
C100  C     C_1   0.375057 0.499962 0.373374 -0.106416
C101  C     C_R   0.009197 0.999662 0.321684 -0.179830
C102  C     C_1   0.624943 0.499960 0.626627 -0.106383
C103  C     C_1   0.624839 0.999783 0.123104 -0.160569
C104  C     C_1   0.375161 0.999781 0.876894 -0.160578
C105  C     C_1   0.124839 0.499782 0.123104 -0.160581
C106  C     C_1   0.875161 0.499781 0.876894 -0.160591
C107  C     C_1   0.500000 0.875344 0.000000 -0.164749
C108  C     C_1   0.000000 0.375344 0.000000 -0.164742
C109  C     C_R   0.000000 0.919319 0.000000 0.877784
C110  C     C_R   0.500000 0.419319 0.000000 0.877790
C111  C     C_R   0.000488 0.000990 0.880400 0.859495
C112  C     C_R   0.490802 0.499661 0.678315 -0.179836
C113  C     C_R   0.999512 0.000989 0.119600 0.859483
C114  C     C_R   0.500488 0.500990 0.880400 0.859499
C115  C     C_R   0.499512 0.500989 0.119600 0.859487
C116  C     C_R   1.000000 0.080654 1.000000 0.884200
C117  C     C_R   0.500000 0.580654 1.000000 0.884208
C118  C     C_R   0.500000 0.919544 0.000000 0.893987
C119  C     C_R   0.000000 0.419544 0.000000 0.894004
C120  C     C_R   0.580553 0.999967 0.079961 0.899625
C121  C     C_R   0.419447 0.999968 0.920039 0.899689
C122  C     C_R   0.080553 0.499968 0.079961 0.899638
C123  C     C_R   0.509196 0.499662 0.321683 -0.179824
C124  C     C_R   0.919447 0.499968 0.920039 0.899694
C125  C     C_1   1.000000 0.124825 1.000000 -0.142925
C126  C     C_1   0.500000 0.624825 1.000000 -0.142936
C127  C     C_R   0.500000 0.080575 0.000000 0.887854
C128  C     C_R   0.000000 0.580575 0.000000 0.887842
C129  C     C_R   0.505830 0.228206 0.061478 0.391963
C130  C     C_R   0.494172 0.228206 0.938523 0.391959
C131  C     C_R   0.005395 0.728206 0.061151 0.391986
C132  C     C_R   0.994608 0.728206 0.938851 0.391980
C133  C     C_R   0.500001 0.206669 0.000001 0.036055
C134  C     C_R   0.001468 0.036572 0.719410 -0.177279
C135  C     C_R   0.000002 0.706669 0.000001 0.036053
C136  C     C_R   0.994654 0.771944 0.939363 -0.294325
C137  C     C_R   0.005349 0.771944 0.060639 -0.294323
C138  C     C_R   0.494222 0.271944 0.939039 -0.294337
C139  C     C_R   0.505780 0.271944 0.060963 -0.294336
C140  C     C_R   0.000001 0.793440 0.000001 0.081388
C141  C     C_R   0.500001 0.293440 0.000000 0.081354
C142  C     C_1   0.500001 0.162117 0.000000 0.137187
C143  C     C_1   0.000001 0.662117 0.000001 0.137197
C144  C     C_1   0.000001 0.837834 0.000000 0.002544
H1    H     H_    0.007636 0.065095 0.700156 0.198740
H2    H     H_    0.990543 0.789186 0.892752 0.145901
H3    H     H_    0.510222 0.289186 0.107823 0.145945
H4    H     H_    0.489780 0.289186 0.892178 0.145943
H5    H     H_    0.506972 0.789282 0.908208 0.183803
H6    H     H_    0.493030 0.789282 0.091794 0.183796
H7    H     H_    0.007066 0.289282 0.908315 0.183800
H8    H     H_    0.992936 0.289282 0.091688 0.183794
H9    H     H_    0.948224 0.861271 0.660061 0.188637
H10   H     H_    0.051799 0.861280 0.339961 0.188655
H11   H     H_    0.448205 0.361277 0.660044 0.188630
H12   H     H_    0.992350 0.065093 0.299831 0.198730
H13   H     H_    0.551817 0.361287 0.339979 0.188650
H14   H     H_    0.981019 0.857957 0.794017 0.161350
H15   H     H_    0.019004 0.857960 0.206005 0.161354
H16   H     H_    0.480998 0.357960 0.793999 0.161341
H17   H     H_    0.519024 0.357962 0.206023 0.161345
H18   H     H_    0.003789 0.921671 0.867166 0.139140
H19   H     H_    0.996222 0.921670 0.132846 0.139141
H20   H     H_    0.503778 0.421670 0.867156 0.139146
H21   H     H_    0.496233 0.421670 0.132855 0.139148
H22   H     H_    0.789448 0.039932 0.207501 0.147643
H23   H     H_    0.507647 0.565093 0.700166 0.198743
H24   H     H_    0.210520 0.037871 0.794649 0.147505
H25   H     H_    0.289458 0.539270 0.206790 0.147600
H26   H     H_    0.710512 0.537377 0.795138 0.147473
H27   H     H_    0.712659 0.039809 0.130528 0.148730
H28   H     H_    0.287310 0.037748 0.871616 0.148734
H29   H     H_    0.212668 0.539146 0.129819 0.148741
H30   H     H_    0.787303 0.537255 0.872104 0.148744
H31   H     H_    0.710506 0.959081 0.287685 0.150964
H32   H     H_    0.289525 0.961123 0.710138 0.151100
H33   H     H_    0.210497 0.459736 0.288403 0.151005
H34   H     H_    0.492339 0.565091 0.299821 0.198733
H35   H     H_    0.789532 0.461611 0.709644 0.151127
H36   H     H_    0.515095 0.225802 0.159149 0.340363
H37   H     H_    0.484907 0.225802 0.840853 0.340358
H38   H     H_    0.013965 0.725802 0.158301 0.340343
H39   H     H_    0.986039 0.725802 0.841701 0.340338
H40   H     H_    0.007828 0.179096 0.898492 0.357897
H41   H     H_    0.992174 0.179096 0.101510 0.357893
H42   H     H_    0.507724 0.679096 0.898375 0.357898
H43   H     H_    0.492277 0.679096 0.101627 0.357894
H44   H     H_    0.856116 0.908390 0.498571 0.379323
H45   H     H_    0.787303 0.959207 0.364667 0.157001
H46   H     H_    0.143904 0.908426 0.501432 0.379444
H47   H     H_    0.356101 0.408418 0.498565 0.379356
H48   H     H_    0.643924 0.408468 0.501434 0.379474
H49   H     H_    0.018670 0.072605 0.871141 0.327189
H50   H     H_    0.981320 0.072603 0.128848 0.327197
H51   H     H_    0.518678 0.572603 0.871149 0.327194
H52   H     H_    0.481312 0.572601 0.128841 0.327202
H53   H     H_    0.212729 0.961246 0.633168 0.157680
H54   H     H_    0.287293 0.459862 0.365381 0.157210
H55   H     H_    0.712736 0.461732 0.632676 0.157824
H56   H     H_    0.009459 0.789186 0.107250 0.145903
O1    O     O_R   0.939010 0.034430 0.439030 -0.629776
O2    O     O_R   0.439000 0.999980 0.990770 -0.613334
O3    O     O_R   0.061000 0.499980 0.009230 -0.613289
O4    O     O_R   0.939000 0.499980 0.990770 -0.613316
O5    O     O_R   0.499990 0.061030 0.051640 -0.604321
O6    O     O_R   0.500010 0.061030 0.948360 -0.604341
O7    O     O_R   0.999990 0.561030 0.051640 -0.604306
O8    O     O_R   0.000010 0.561030 0.948360 -0.604325
O9    O     O_R   0.939020 0.965580 0.438990 -0.554075
O10   O     O_R   0.060980 0.965580 0.561010 -0.554043
O11   O     O_R   0.439020 0.465580 0.438990 -0.554066
O12   O     O_R   0.060990 0.034430 0.560970 -0.629741
O13   O     O_R   0.560980 0.465580 0.561010 -0.554038
O14   O     O_R   0.999990 0.034430 0.591600 -0.638448
O15   O     O_R   0.000010 0.034430 0.408400 -0.638459
O16   O     O_R   0.499990 0.534430 0.591600 -0.638445
O17   O     O_R   0.500010 0.534430 0.408400 -0.638455
O18   O     O_R   0.000000 0.965580 0.591570 -0.597510
O19   O     O_R   0.000000 0.965580 0.408430 -0.597517
O20   O     O_R   0.500000 0.465580 0.591570 -0.597522
O21   O     O_R   0.500000 0.465580 0.408430 -0.597531
O22   O     O_R   0.034430 0.939010 0.034360 -0.610007
O23   O     O_R   0.439010 0.534430 0.439030 -0.629765
O24   O     O_R   0.965570 0.939010 0.965640 -0.609976
O25   O     O_R   0.534430 0.439010 0.034360 -0.610014
O26   O     O_R   0.465570 0.439010 0.965640 -0.609984
O27   O     O_R   0.034440 0.999990 0.942790 -0.625469
O28   O     O_R   0.965560 0.999990 0.057210 -0.625432
O29   O     O_R   0.534440 0.499990 0.942790 -0.625465
O30   O     O_R   0.465560 0.499990 0.057210 -0.625429
O31   O     O_R   0.965580 0.000000 0.873950 -0.597028
O32   O     O_R   0.034420 0.000000 0.126050 -0.597069
O33   O     O_R   0.465580 0.500000 0.873950 -0.597045
O34   O     O_R   0.560990 0.534430 0.560970 -0.629733
O35   O     O_R   0.534420 0.500000 0.126050 -0.597084
O36   O     O_R   0.034440 0.060980 0.034440 -0.611588
O37   O     O_R   0.965560 0.060980 0.965560 -0.611559
O38   O     O_R   0.534440 0.560980 0.034440 -0.611591
O39   O     O_R   0.465560 0.560980 0.965560 -0.611563
O40   O     O_R   0.500010 0.939050 0.051750 -0.612712
O41   O     O_R   0.499990 0.939050 0.948250 -0.612698
O42   O     O_R   0.000010 0.439050 0.051750 -0.612714
O43   O     O_R   0.999990 0.439050 0.948250 -0.612699
O44   O     O_3   0.511469 0.205955 0.120931 -0.749653
O45   O     O_R   0.560990 0.000040 0.112660 -0.610181
O46   O     O_3   0.488533 0.205955 0.879070 -0.749668
O47   O     O_3   0.010611 0.705955 0.120288 -0.749657
O48   O     O_3   0.989392 0.705955 0.879715 -0.749671
O49   O     O_3   0.008142 0.209761 0.894366 -0.733500
O50   O     O_3   0.991860 0.209761 0.105636 -0.733514
O51   O     O_3   0.508033 0.709761 0.894243 -0.733499
O52   O     O_3   0.491968 0.709761 0.105758 -0.733513
O53   O     O_2   0.909079 0.974323 0.539127 -0.349194
O54   O     O_2   0.933025 0.906876 0.519790 -0.297144
O55   O     O_3   0.877452 0.906239 0.552195 -0.551224
O56   O     O_R   0.439010 0.000040 0.887340 -0.610238
O57   O     O_2   0.090923 0.974341 0.460873 -0.349471
O58   O     O_2   0.066997 0.906886 0.480225 -0.296998
O59   O     O_3   0.122565 0.906267 0.447810 -0.551319
O60   O     O_2   0.409078 0.474336 0.539126 -0.349293
O61   O     O_2   0.433011 0.406883 0.519779 -0.297084
O62   O     O_3   0.377439 0.406259 0.552187 -0.551275
O63   O     O_2   0.590924 0.474354 0.460874 -0.349566
O64   O     O_2   0.567012 0.406893 0.480237 -0.296934
O65   O     O_3   0.622579 0.406287 0.447818 -0.551355
O66   O     O_3   0.014253 0.075760 0.821952 -0.750859
O67   O     O_R   0.060990 0.500040 0.112660 -0.610228
O68   O     O_3   0.985733 0.075758 0.178035 -0.750866
O69   O     O_3   0.514264 0.575758 0.821962 -0.750863
O70   O     O_3   0.485723 0.575755 0.178025 -0.750871
O71   O     O_R   0.939010 0.500040 0.887340 -0.610278
O72   O     O_R   0.561000 0.999980 0.009230 -0.613303
S1    S     S_3+6 0.919932 0.929857 0.564288 0.012529
S2    S     S_3+6 0.080081 0.929873 0.435719 0.012469
S3    S     S_3+6 0.419922 0.429869 0.564281 0.012501
S4    S     S_3+6 0.580091 0.429884 0.435727 0.012447
Zn1   Zn    Zn3+2 0.000000 0.045980 0.500000 1.008999
Zn2   Zn    Zn3+2 0.500000 0.000050 0.930960 1.003192
Zn3   Zn    Zn3+2 0.000000 0.500050 0.069040 1.003191
Zn4   Zn    Zn3+2 0.000000 0.500050 0.930960 1.003172
Zn5   Zn    Zn3+2 0.500000 0.545980 0.500000 1.009027
Zn6   Zn    Zn3+2 0.000000 0.954030 0.500000 1.132680
Zn7   Zn    Zn3+2 0.500000 0.454030 0.500000 1.132679
Zn8   Zn    Zn3+2 0.045980 0.999990 0.045940 1.005181
Zn9   Zn    Zn3+2 0.954020 0.999990 0.954060 1.005310
Zn10  Zn    Zn3+2 0.545980 0.499990 0.045940 1.005146
Zn11  Zn    Zn3+2 0.454020 0.499990 0.954060 1.005269
Zn12  Zn    Zn3+2 0.500000 0.000050 0.069040 1.003213

loop_
_geom_bond_atom_site_label_1
_geom_bond_atom_site_label_2
_ccdc_geom_bond_type
C44   C49   A    
C65   C92   S    
C4    C109  S    
C124  O71   A    
C80   C97   S    
O58   S2    D    
C51   C123  A    
C103  C120  S    
O36   Zn8   S    
C16   C51   A    
C14   C31   A    
C136  C140  A    
C1    O1    A    
O27   Zn8   S    
C114  O29   A    
C115  O35   A    
C130  O46   S    
C12   C48   A    
O15   Zn1   S    
C15   C32   A    
C11   C18   A    
C82   H24   S    
C2    C46   A    
O4    Zn3   S    
O62   S3    S    
C139  H3    S    
O57   S2    D    
O64   S4    D    
C68   O11   A    
C124  O4    A    
C33   C38   A    
H49   O66   S    
C27   C108  T    
C37   H16   S    
O56   Zn2   S    
C127  O6    A    
C6    C127  S    
C38   C42   A    
C13   C112  A    
C131  C135  A    
C49   C101  A    
C10   H7    S    
C95   C99   T    
C13   H23   S    
C14   C49   A    
C5    C110  S    
C94   C98   T    
C65   C70   A    
C32   H11   S    
C96   C100  T    
O35   Zn10  S    
C111  O31   A    
C88   O17   A    
O6    Zn2   S    
O59   S2    S    
C67   C72   A    
C15   C50   A    
C71   H35   S    
H43   O52   S    
C86   O15   A    
C115  O30   A    
O39   Zn11  S    
O65   S4    S    
C36   H15   S    
O1    Zn1   S    
H41   O50   S    
O60   S3    D    
C60   C82   A    
C78   C83   A    
C30   H9    S    
C74   H54   S    
C45   C56   A    
C78   C96   S    
C22   C25   A    
C73   H53   S    
C46   C55   A    
C70   C74   A    
C8    C22   A    
C81   H22   S    
C20   C23   A    
C79   C102  S    
C69   C73   A    
C69   H32   S    
C7    C128  S    
C6    C142  T    
C43   C48   A    
C91   C104  T    
C107  C118  S    
C97   C102  T    
O38   Zn10  S    
C118  O41   A    
C72   C76   A    
H39   O48   S    
C76   C94   S    
O12   Zn1   S    
C135  C143  S    
O24   Zn9   S    
C57   O12   A    
O37   Zn9   S    
C48   C90   A    
C29   C126  T    
C89   C103  T    
O45   Zn12  S    
C108  C119  S    
C116  O36   A    
C117  O38   A    
C62   C84   A    
O42   Zn3   S    
C21   O52   S    
C88   C123  S    
C59   H27   S    
C79   O13   A    
O28   Zn9   S    
C35   C134  A    
C7    C143  T    
C42   C47   A    
O54   S1    D    
C33   H13   S    
C122  O67   A    
C114  O33   A    
H48   O65   S    
H36   O44   S    
C25   C29   S    
C92   C105  T    
C137  C140  A    
C63   C67   A    
C9    H6    S    
C32   C37   A    
C62   C66   A    
O5    Zn12  S    
C1    O9    A    
C34   C39   A    
C60   H28   S    
H47   O62   S    
C59   C81   A    
C36   C40   A    
O30   Zn11  S    
C61   H29   S    
O26   Zn11  S    
C40   H19   S    
O22   Zn8   S    
C52   O69   S    
C61   C83   A    
C67   H31   S    
C80   C84   A    
C30   C34   A    
H37   O46   S    
C132  O48   S    
C113  O28   A    
C47   C51   A    
C104  C121  S    
C55   C113  S    
C2    C101  A    
C24   C53   A    
C23   C28   S    
C116  O37   A    
C77   C95   S    
C24   C123  A    
O9    Zn6   S    
O41   Zn2   S    
O72   Zn2   S    
O10   Zn6   S    
C122  O3    A    
C26   C107  T    
C19   C23   A    
C85   O18   A    
C68   C100  S    
C77   C82   A    
C24   H34   S    
C131  C137  A    
C16   C33   A    
C13   C52   A    
C138  H4    S    
C14   S2    S    
C43   C54   A    
O17   Zn5   S    
C66   C71   A    
C129  C139  A    
C137  H56   S    
O21   Zn7   S    
O3    Zn4   S    
C132  C136  A    
O34   Zn5   S    
C11   C19   A    
C63   C89   S    
C50   C112  A    
C133  C142  S    
H50   O68   S    
C70   H33   S    
C87   O20   A    
O32   Zn8   S    
C39   H18   S    
H52   O70   S    
C138  C141  A    
C117  O39   A    
H42   O51   S    
C109  O24   A    
C131  O47   S    
C66   C93   S    
C129  C133  A    
C34   H14   S    
C9    C17   A    
O71   Zn4   S    
C128  O7    A    
O55   S1    S    
O29   Zn10  S    
C53   O70   S    
C116  C125  S    
C93   C106  T    
C110  O26   A    
C58   C115  S    
C85   C90   S    
C68   O23   A    
O11   Zn7   S    
C120  O45   A    
C17   C26   S    
C87   O16   A    
C16   S4    S    
H51   O69   S    
C72   H45   S    
C15   S3    S    
C31   H10   S    
C28   C125  T    
C121  O56   A    
O7    Zn3   S    
O13   Zn7   S    
C118  O40   A    
C105  C122  S    
O8    Zn4   S    
C134  H1    S    
C21   C25   A    
C57   O10   A    
C73   C77   A    
O40   Zn12  S    
C12   C30   A    
C88   O21   A    
C59   C63   A    
H46   O59   S    
H44   O55   S    
C18   C27   S    
C140  C144  S    
C79   O34   A    
C3    C5    T    
C110  O25   A    
C120  O72   A    
C76   C81   A    
C4    C144  T    
C39   C43   A    
C53   C58   A    
C42   H21   S    
C19   O50   S    
C12   S1    S    
O61   S3    D    
C129  O44   S    
C75   H55   S    
C3    C141  S    
O18   Zn6   S    
C57   C99   S    
C64   C69   A    
C84   H26   S    
C8    C17   A    
C121  O2    A    
C60   C64   A    
C111  O27   A    
H40   O49   S    
C56   C114  S    
C8    H5    S    
C127  O5    A    
C1    C98   S    
C22   O51   S    
O53   S1    D    
H38   O47   S    
O25   Zn10  S    
C47   C58   A    
C71   C75   A    
C139  C141  A    
C44   C55   A    
C9    C21   A    
C20   O49   S    
O33   Zn11  S    
O43   Zn4   S    
C10   C20   A    
C45   C50   A    
C10   C18   A    
C132  C135  A    
C90   C134  A    
O16   Zn5   S    
C83   H25   S    
O67   Zn3   S    
C87   C112  S    
C38   H17   S    
C54   C111  S    
O20   Zn7   S    
C86   O19   A    
C35   O66   S    
C37   C41   A    
C119  O42   A    
O2    Zn12  S    
O14   Zn1   S    
C109  O22   A    
C113  O32   A    
C130  C133  A    
C61   C65   A    
C11   H8    S    
C40   C44   A    
C75   C80   A    
C62   H30   S    
O19   Zn6   S    
C46   O68   S    
O63   S4    D    
C74   C78   A    
C41   H20   S    
C106  C124  S    
C41   C45   A    
C31   C36   A    
O31   Zn9   S    
C117  C126  S    
C128  O8    A    
C64   C91   S    
O23   Zn5   S    
C85   O14   A    
C86   C101  S    
C119  O43   A    
C136  H2    S    
C2    H12   S    
C52   C56   A    
C35   C54   A    
C130  C138  A    
