data_mof_unit_22614.cif
_audit_creation_date              2012-12-11T17:09:27-0500
_audit_creation_method            fapswitch 2.2
_symmetry_space_group_name_H-M    P1
_symmetry_Int_Tables_number       1
_space_group_crystal_system       triclinic
_cell_length_a                    14.826865
_cell_length_b                    6.917187
_cell_length_c                    13.512507
_cell_angle_alpha                 89.997821
_cell_angle_beta                  99.886534
_cell_angle_gamma                 90.001546
_cell_volume                      1365.26517936

loop_
_atom_site_label
_atom_site_type_symbol
_atom_type_description
_atom_site_fract_x
_atom_site_fract_y
_atom_site_fract_z
_atom_type_partial_charge
O1    O     O_R   0.586930 0.505770 0.416350 -0.548673
O2    O     O_R   0.413070 0.005770 0.583650 -0.548852
O3    O     O_R   0.397900 0.173100 0.389630 -0.534734
O4    O     O_R   0.602100 0.673100 0.610370 -0.535690
C1    C     C_R   0.364173 0.345417 0.362899 0.741237
C2    C     C_R   0.635831 0.845416 0.637096 0.740687
O5    O     O_R   0.585280 0.175870 0.404330 -0.521690
O6    O     O_R   0.414720 0.675870 0.595670 -0.521324
O7    O     O_R   0.601790 0.008380 0.598460 -0.542843
O8    O     O_R   0.398210 0.508380 0.401540 -0.542601
C3    C     C_R   0.614211 0.344947 0.382296 0.775323
C4    C     C_R   0.385784 0.844938 0.617696 0.781234
O9    O     O_3   0.505200 0.340120 0.563670 -0.374421
O10   O     O_3   0.494800 0.840120 0.436330 -0.374193
V1    V     V_3+5 0.499040 0.064180 0.488190 1.498716
V2    V     V_3+5 0.500960 0.564180 0.511810 1.497329
C5    C     C_R   0.240888 0.971188 0.666782 -0.129100
C6    C     C_R   0.758982 0.471547 0.332998 -0.145096
C7    C     C_R   0.318244 0.852491 0.686886 -0.169781
C8    C     C_R   0.681722 0.352512 0.313069 -0.149677
C9    C     C_R   0.325704 0.728034 0.771312 0.384105
C10   C     C_R   0.674224 0.227993 0.228644 0.384517
C11   C     C_R   0.261367 0.741498 0.838996 0.257487
C12   C     C_R   0.738500 0.241447 0.160871 0.257530
C13   C     C_R   0.186981 0.875806 0.819791 -0.220658
C14   C     C_R   0.812863 0.375796 0.179982 -0.196735
C15   C     C_R   0.177248 0.981272 0.730563 -0.066958
C16   C     C_R   0.822642 0.481153 0.269172 -0.132376
C17   C     C_3   0.155362 0.189235 0.707551 0.202959
C18   C     C_3   0.844286 0.689861 0.292430 0.247472
C19   C     C_3   0.225689 0.179532 0.636715 0.637609
C20   C     C_3   0.773988 0.680139 0.363419 0.596923
H1    H     H_    0.174221 0.288015 0.773033 0.112133
H2    H     H_    0.824499 0.786546 0.226473 0.139899
C21   C     C_1   0.783547 0.877102 0.782746 -0.166218
C22   C     C_1   0.216464 0.377100 0.217241 -0.161543
C23   C     C_1   0.716297 0.860116 0.716689 -0.137067
C24   C     C_1   0.283712 0.360117 0.283300 -0.134933
O11   O     O_R   0.101720 0.231700 0.098560 -0.536306
O12   O     O_R   0.898280 0.731700 0.901440 -0.538470
O13   O     O_R   0.914700 0.558980 0.095690 -0.535858
O14   O     O_R   0.085300 0.058980 0.904310 -0.551442
C25   C     C_R   0.883460 0.389859 0.114748 0.729575
C26   C     C_R   0.116443 0.889861 0.885117 0.714041
O15   O     O_R   0.102080 0.561590 0.110390 -0.537295
O16   O     O_R   0.897920 0.061590 0.889610 -0.545716
O17   O     O_R   0.086950 0.728940 0.916330 -0.533872
O18   O     O_R   0.913050 0.228940 0.083670 -0.532668
C27   C     C_R   0.136079 0.391899 0.137543 0.753562
C28   C     C_R   0.863929 0.891899 0.862445 0.742385
O19   O     O_3   0.994770 0.394510 0.936380 -0.377962
O20   O     O_3   0.005230 0.894510 0.063620 -0.360189
V3    V     V_3+5 0.000970 0.670520 0.011800 1.486339
V4    V     V_3+5 0.999030 0.170520 0.988200 1.454786
O21   O     O_3   0.400567 0.605791 0.790156 -0.626672
H3    H     H_    0.395930 0.521342 0.848138 0.344327
O22   O     O_3   0.599366 0.105720 0.209878 -0.627561
H4    H     H_    0.603951 0.021273 0.151868 0.344089
O23   O     O_3   0.276618 0.629801 0.925102 -0.654656
H5    H     H_    0.250189 0.695198 0.978631 0.287675
O24   O     O_3   0.723219 0.129663 0.074800 -0.655191
H6    H     H_    0.749787 0.194783 0.021297 0.286178
O25   O     O_3   0.065376 0.212708 0.656561 -0.624982
H7    H     H_    0.026150 0.214494 0.709116 0.298005
O26   O     O_3   0.934932 0.721812 0.341413 -0.619956
H8    H     H_    0.956294 0.607412 0.383390 0.311301
O27   O     O_3   0.302120 0.296577 0.670291 -0.640854
H9    H     H_    0.332331 0.322594 0.611685 0.330146
O28   O     O_3   0.697524 0.796971 0.329718 -0.636154
H10   H     H_    0.667188 0.822698 0.388257 0.333255
O29   O     O_3   0.188823 0.208351 0.534217 -0.638645
H11   H     H_    0.146022 0.100591 0.511343 0.315167
O30   O     O_3   0.811182 0.710574 0.465733 -0.640766
H12   H     H_    0.844655 0.592346 0.492687 0.284384

loop_
_geom_bond_atom_site_label_1
_geom_bond_atom_site_label_2
_ccdc_geom_bond_type
O21   H3    S    
C17   O25   S    
C12   O24   S    
C15   C17   S    
O30   H12   S    
O1    C3    A    
O2    C4    A    
C2    O7    A    
C11   O23   S    
C21   C23   T    
C12   C14   A    
O11   V4    S    
C17   H1    S    
C16   C18   S    
O10   V2    S    
C25   O18   A    
C26   O17   A    
O17   V3    S    
C19   O29   S    
O15   V3    S    
O23   H5    S    
O6    V2    S    
C1    C24   S    
O13   C25   A    
O28   H10   S    
O14   C26   A    
C10   O22   S    
C13   C26   S    
O20   V4    S    
C14   C25   S    
O5    C3    A    
C9    C11   A    
C3    C8    S    
C18   H2    S    
O27   H9    S    
C5    C15   A    
C6    C16   A    
O4    C2    A    
C20   O30   S    
O18   V4    S    
O19   V3    S    
O4    V2    S    
C19   O27   S    
O15   C27   A    
O6    C4    A    
O16   V4    S    
C21   C28   S    
C2    C23   S    
O1    V2    S    
O2    V1    S    
O13   V3    S    
O11   C27   A    
C8    C10   A    
O26   H8    S    
O9    V1    S    
C5    C19   S    
C10   C12   A    
C6    C20   S    
O3    V1    S    
O20   V3    S    
C9    O21   S    
C7    C9    A    
O3    C1    A    
C20   O28   S    
C13   C15   A    
O16   C28   A    
C14   C16   A    
O19   V4    S    
C22   C24   T    
O7    V1    S    
C1    O8    A    
C17   C19   S    
O8    V2    S    
O14   V4    S    
C18   C20   S    
O22   H4    S    
O12   C28   A    
C4    C7    S    
O5    V1    S    
C5    C7    A    
C6    C8    A    
C11   C13   A    
O24   H6    S    
C18   O26   S    
O25   H7    S    
O29   H11   S    
O12   V3    S    
O9    V2    S    
O10   V1    S    
C22   C27   S    
