data_mof_unit_66496.cif
_audit_creation_date              2012-12-10T17:55:42-0500
_audit_creation_method            fapswitch 2.2
_symmetry_space_group_name_H-M    P1
_symmetry_Int_Tables_number       1
_space_group_crystal_system       triclinic
_cell_length_a                    18.272998
_cell_length_b                    18.374037
_cell_length_c                    26.08283
_cell_angle_alpha                 90.007275
_cell_angle_beta                  89.995179
_cell_angle_gamma                 90.001293
_cell_volume                      8757.2772396

loop_
_atom_site_label
_atom_site_type_symbol
_atom_type_description
_atom_site_fract_x
_atom_site_fract_y
_atom_site_fract_z
_atom_type_partial_charge
Br1   Br    Br    0.801418 0.182823 0.136391 -0.231593
Br2   Br    Br    0.201592 0.817478 0.137085 -0.323044
Br3   Br    Br    0.798564 0.817387 0.862926 -0.290343
Br4   Br    Br    0.799180 0.816824 0.137042 -0.297790
Br5   Br    Br    0.701132 0.317128 0.362940 -0.330500
Br6   Br    Br    0.806354 0.421082 0.741559 -0.354782
Br7   Br    Br    0.193656 0.421088 0.258499 -0.358989
Br8   Br    Br    0.193650 0.421082 0.741570 -0.351135
Br9   Br    Br    0.694225 0.076903 0.757128 -0.232123
Br10  Br    Br    0.305752 0.076908 0.242812 -0.250816
Br11  Br    Br    0.305770 0.076905 0.757123 -0.228431
Br12  Br    Br    0.301079 0.682507 0.636402 -0.194290
Br13  Br    Br    0.301014 0.682512 0.363595 -0.197909
Br14  Br    Br    0.698832 0.682606 0.636398 -0.166998
Br15  Br    Br    0.698256 0.683145 0.363624 -0.175364
Br16  Br    Br    0.201526 0.817484 0.862915 -0.319965
C1    C     C_R   0.139838 0.859545 0.249486 0.566433
C2    C     C_R   0.229988 0.781539 0.203419 0.107306
C3    C     C_R   0.770074 0.781500 0.796589 0.107003
C4    C     C_R   0.770317 0.781261 0.203383 0.102943
C5    C     C_R   0.729803 0.281388 0.296602 0.106757
C6    C     C_R   0.771377 0.322461 0.744683 0.106846
C7    C     C_R   0.228623 0.322466 0.255338 0.108120
C8    C     C_R   0.228626 0.322462 0.744688 0.108368
C9    C     C_R   0.784067 0.228601 0.295101 -0.130839
C10   C     C_R   0.823367 0.267427 0.743939 -0.130943
C11   C     C_R   0.176631 0.267432 0.256085 -0.129736
C12   C     C_R   0.139834 0.859541 0.750511 0.567470
C13   C     C_R   0.176634 0.267427 0.743941 -0.129830
C14   C     C_R   0.284197 0.728730 0.795079 -0.126359
C15   C     C_R   0.284212 0.728716 0.204921 -0.128190
C16   C     C_R   0.715838 0.728684 0.795088 -0.128115
C17   C     C_R   0.716055 0.728466 0.204881 -0.132956
C18   C     C_R   0.804731 0.196990 0.248522 -0.046931
C19   C     C_R   0.802330 0.194618 0.749106 -0.046509
C20   C     C_R   0.197661 0.194624 0.250895 -0.044374
C21   C     C_R   0.197669 0.194618 0.749103 -0.045555
C22   C     C_R   0.304722 0.696979 0.748517 -0.044278
C23   C     C_R   0.860177 0.859533 0.249481 0.562361
C24   C     C_R   0.304711 0.696968 0.251482 -0.044539
C25   C     C_R   0.695283 0.696975 0.748521 -0.045561
C26   C     C_R   0.695273 0.696986 0.251475 -0.050033
C27   C     C_R   0.934490 0.988882 0.026732 0.372644
C28   C     C_R   0.934496 0.988840 0.973285 0.367820
C29   C     C_R   0.065554 0.010241 0.026719 0.366157
C30   C     C_R   0.065555 0.010227 0.973280 0.366295
C31   C     C_R   0.434407 0.489993 0.526719 0.368558
C32   C     C_R   0.434408 0.489981 0.473282 0.368044
C33   C     C_R   0.565537 0.510950 0.526715 0.368901
C34   C     C_R   0.860165 0.859541 0.750513 0.566433
C35   C     C_R   0.565542 0.510910 0.473268 0.374609
C36   C     C_R   0.000010 0.999649 0.945879 -0.085373
C37   C     C_R   0.000008 0.999686 0.054127 -0.083785
C38   C     C_R   0.499990 0.500314 0.445873 -0.082924
C39   C     C_R   0.499989 0.500350 0.554121 -0.084647
C40   C     C_R   0.860445 0.140626 0.249267 0.531119
C41   C     C_R   0.859117 0.139312 0.749420 0.531316
C42   C     C_R   0.140879 0.139317 0.250579 0.534855
C43   C     C_R   0.140882 0.139312 0.749419 0.532794
C44   C     C_R   0.360438 0.640618 0.749271 0.536650
C45   C     C_R   0.640683 0.360381 0.750330 0.566911
C46   C     C_R   0.360433 0.640613 0.250729 0.535770
C47   C     C_R   0.639565 0.640616 0.749272 0.536171
C48   C     C_R   0.639556 0.640621 0.250731 0.532296
C49   C     C_R   0.000000 0.999906 0.110782 0.571944
C50   C     C_R   0.999999 0.999880 0.889221 0.567004
C51   C     C_R   0.500001 0.500105 0.610779 0.570729
C52   C     C_R   0.499999 0.500081 0.389219 0.574718
C53   C     C_R   0.998648 0.999942 0.388529 0.536110
C54   C     C_R   0.001345 0.999936 0.611470 0.538103
C55   C     C_R   0.498656 0.499946 0.888530 0.521051
C56   C     C_R   0.639819 0.359527 0.250520 0.568764
C57   C     C_R   0.501353 0.499938 0.111470 0.524441
C58   C     C_2   0.995422 0.057328 0.527868 -0.092183
C59   C     C_2   0.004532 0.057337 0.472142 -0.092967
C60   C     C_2   0.495496 0.557351 0.027869 -0.094202
C61   C     C_2   0.504604 0.557349 0.972142 -0.091023
C62   C     C_2   0.011699 0.998941 0.556485 0.475779
C63   C     C_2   0.988268 0.998954 0.443511 0.474273
C64   C     C_2   0.511733 0.498952 0.056486 0.467217
C65   C     C_2   0.488297 0.498970 0.943515 0.463328
C66   C     C_R   0.771554 0.219295 0.202397 0.183790
C67   C     C_R   0.359318 0.360382 0.750332 0.569021
C68   C     C_R   0.727890 0.176157 0.754235 0.185997
C69   C     C_R   0.272094 0.176162 0.245736 0.189089
C70   C     C_R   0.272107 0.176158 0.754233 0.187290
C71   C     C_R   0.271428 0.719168 0.702405 0.187581
C72   C     C_R   0.271400 0.719168 0.297593 0.187366
C73   C     C_R   0.728541 0.719207 0.702403 0.186955
C74   C     C_R   0.728319 0.719431 0.297615 0.181885
C75   C     C_R   0.217207 0.772291 0.703745 0.394543
C76   C     C_R   0.217191 0.772301 0.296252 0.392678
C77   C     C_R   0.782761 0.772331 0.703743 0.391962
C78   C     C_R   0.359315 0.360381 0.249666 0.564617
C79   C     C_R   0.782566 0.772534 0.296277 0.388130
C80   C     C_R   0.717305 0.272391 0.203738 0.391942
C81   C     C_R   0.675587 0.231180 0.754814 0.395207
C82   C     C_R   0.324397 0.231185 0.245151 0.391418
C83   C     C_R   0.324411 0.231182 0.754816 0.396094
C84   C     C_R   0.196227 0.803670 0.750583 0.019282
C85   C     C_R   0.196237 0.803679 0.249414 0.019570
C86   C     C_R   0.803772 0.803671 0.750586 0.018375
C87   C     C_R   0.803794 0.803651 0.249411 0.014450
C88   C     C_R   0.696198 0.303641 0.250591 0.020211
C89   C     C_R   0.229961 0.781542 0.796580 0.107991
C90   C     C_R   0.696865 0.304302 0.750057 0.017327
C91   C     C_R   0.303129 0.304305 0.249933 0.022337
C92   C     C_R   0.303136 0.304303 0.750062 0.018512
F1    F     F_    0.043796 0.938819 0.535819 -0.497049
F2    F     F_    0.603628 0.213124 0.758473 -0.509359
F3    F     F_    0.396348 0.213126 0.241461 -0.541343
F4    F     F_    0.396368 0.213126 0.758474 -0.509071
F5    F     F_    0.870066 0.977491 0.051431 -0.481710
F6    F     F_    0.870085 0.977367 0.948595 -0.486749
F7    F     F_    0.130014 0.021492 0.051396 -0.495135
F8    F     F_    0.130015 0.021472 0.948597 -0.495107
F9    F     F_    0.369905 0.478979 0.551400 -0.495520
F10   F     F_    0.369906 0.478960 0.448608 -0.495704
F11   F     F_    0.629990 0.522197 0.551402 -0.487036
F12   F     F_    0.956168 0.938828 0.464161 -0.498023
F13   F     F_    0.630008 0.522077 0.448573 -0.481152
F14   F     F_    0.543815 0.438821 0.035822 -0.511988
F15   F     F_    0.456170 0.438866 0.964174 -0.526107
F16   F     F_    0.186457 0.794933 0.659052 -0.520834
F17   F     F_    0.186423 0.794952 0.340944 -0.526968
F18   F     F_    0.813483 0.795013 0.659047 -0.526605
F19   F     F_    0.813099 0.795419 0.340986 -0.523938
F20   F     F_    0.686656 0.295140 0.159038 -0.528844
H1    H     H_    0.976758 0.107432 0.545718 0.116301
H2    H     H_    0.309340 0.711132 0.169369 0.187216
H3    H     H_    0.690749 0.711073 0.830644 0.187301
H4    H     H_    0.691127 0.710687 0.169310 0.188355
H5    H     H_    0.023193 0.107446 0.454306 0.116251
H6    H     H_    0.476851 0.607463 0.045717 0.114929
H7    H     H_    0.523294 0.607445 0.954300 0.116085
H8    H     H_    0.809089 0.210929 0.330662 0.188688
H9    H     H_    0.880718 0.281695 0.740495 0.188509
H10   H     H_    0.119284 0.281699 0.259552 0.189980
H11   H     H_    0.119285 0.281694 0.740498 0.188334
H12   H     H_    0.309310 0.711153 0.830632 0.188425
O1    O     O_3   0.000000 0.000000 0.250030 -0.516992
O2    O     O_R   0.585480 0.353820 0.219950 -0.459274
O3    O     O_R   0.414520 0.353820 0.780050 -0.464186
O4    O     O_R   0.414520 0.353820 0.219950 -0.478697
O5    O     O_R   0.914530 0.146170 0.280090 -0.542066
O6    O     O_R   0.914530 0.146170 0.719910 -0.541807
O7    O     O_R   0.085470 0.146170 0.280090 -0.539446
O8    O     O_R   0.085470 0.146170 0.719910 -0.541436
O9    O     O_R   0.414530 0.646170 0.780090 -0.537010
O10   O     O_R   0.414530 0.646170 0.219910 -0.538777
O11   O     O_R   0.585470 0.646170 0.780090 -0.537655
O12   O     O_3   0.000000 1.000000 0.749970 -0.517595
O13   O     O_R   0.585470 0.646170 0.219910 -0.535740
O14   O     O_R   0.146180 0.085440 0.219990 -0.485040
O15   O     O_R   0.146180 0.085440 0.780010 -0.486525
O16   O     O_R   0.853820 0.085440 0.219990 -0.490723
O17   O     O_R   0.853820 0.085440 0.780010 -0.490857
O18   O     O_R   0.646180 0.585440 0.719990 -0.480348
O19   O     O_R   0.646180 0.585440 0.280010 -0.492120
O20   O     O_R   0.353820 0.585440 0.719990 -0.482432
O21   O     O_R   0.353820 0.585440 0.280010 -0.482130
O22   O     O_R   0.853820 0.914550 0.219980 -0.501061
O23   O     O_3   0.500000 0.500000 0.750030 -0.516691
O24   O     O_R   0.853820 0.914550 0.780020 -0.491046
O25   O     O_R   0.146180 0.914550 0.219980 -0.493206
O26   O     O_R   0.146180 0.914550 0.780020 -0.493183
O27   O     O_R   0.353820 0.414550 0.719980 -0.498964
O28   O     O_R   0.353820 0.414550 0.280020 -0.497994
O29   O     O_R   0.646180 0.414550 0.719980 -0.503254
O30   O     O_R   0.646180 0.414550 0.280020 -0.508115
O31   O     O_R   0.060720 0.999990 0.135450 -0.463442
O32   O     O_R   0.060720 0.999990 0.864550 -0.463085
O33   O     O_R   0.939280 0.999990 0.135450 -0.457114
O34   O     O_3   0.500000 0.500000 0.249970 -0.516269
O35   O     O_R   0.939280 0.999990 0.864550 -0.465949
O36   O     O_R   0.560720 0.499990 0.635450 -0.465652
O37   O     O_R   0.560720 0.499990 0.364550 -0.456040
O38   O     O_R   0.439280 0.499990 0.635450 -0.462431
O39   O     O_R   0.439280 0.499990 0.364550 -0.463566
O40   O     O_R   0.000000 0.939270 0.364600 -0.443328
O41   O     O_R   0.000000 0.939270 0.635400 -0.443218
O42   O     O_R   0.500000 0.439270 0.864600 -0.476175
O43   O     O_R   0.500000 0.439270 0.135400 -0.462879
O44   O     O_R   0.000000 0.060730 0.364620 -0.588914
O45   O     O_R   0.085480 0.853820 0.280050 -0.479100
O46   O     O_R   0.000000 0.060730 0.635380 -0.585197
O47   O     O_R   0.500000 0.560730 0.864620 -0.588682
O48   O     O_R   0.500000 0.560730 0.135380 -0.590233
O49   O     O_R   0.085480 0.853820 0.719950 -0.476477
O50   O     O_R   0.914520 0.853820 0.280050 -0.476454
O51   O     O_R   0.914520 0.853820 0.719950 -0.478935
O52   O     O_R   0.585480 0.353820 0.780050 -0.466394
Zn1   Zn    Zn3+2 0.000000 0.086760 0.292960 0.966830
Zn2   Zn    Zn3+2 0.586770 0.499990 0.292890 1.069791
Zn3   Zn    Zn3+2 0.413230 0.499990 0.707110 1.075692
Zn4   Zn    Zn3+2 0.413230 0.499990 0.292890 1.073026
Zn5   Zn    Zn3+2 0.000000 0.913240 0.292940 1.098728
Zn6   Zn    Zn3+2 0.000000 0.913240 0.707060 1.103418
Zn7   Zn    Zn3+2 0.500000 0.413240 0.792940 1.089249
Zn8   Zn    Zn3+2 0.500000 0.413240 0.207060 1.091414
Zn9   Zn    Zn3+2 0.000000 0.086760 0.707040 0.968181
Zn10  Zn    Zn3+2 0.500000 0.586760 0.792960 0.966742
Zn11  Zn    Zn3+2 0.500000 0.586760 0.207040 0.966019
Zn12  Zn    Zn3+2 0.086770 0.999990 0.207110 1.072968
Zn13  Zn    Zn3+2 0.086770 0.999990 0.792890 1.070544
Zn14  Zn    Zn3+2 0.913230 0.999990 0.207110 1.067118
Zn15  Zn    Zn3+2 0.913230 0.999990 0.792890 1.067558
Zn16  Zn    Zn3+2 0.586770 0.499990 0.707110 1.072390

loop_
_geom_bond_atom_site_label_1
_geom_bond_atom_site_label_2
_ccdc_geom_bond_type
O49   Zn6   S    
O19   Zn2   S    
C25   C73   A    
Br10  C69   S    
C18   C40   S    
C71   C75   A    
Br2   C2    S    
C52   O37   A    
O12   Zn15  S    
O17   Zn15  S    
O51   Zn6   S    
O35   Zn15  S    
C40   O16   A    
C10   H9    S    
C76   F17   S    
O29   Zn16  S    
C74   C79   A    
O23   Zn10  S    
C4    C87   A    
C64   F14   S    
C29   C30   A    
C15   C24   A    
C32   C38   A    
C83   C92   A    
O47   Zn10  S    
C14   C22   A    
C84   C89   A    
C65   F15   S    
C70   C83   A    
C17   C26   A    
C50   O32   A    
O32   Zn13  S    
O34   Zn4   S    
O25   Zn12  S    
C8    C13   A    
O6    Zn9   S    
C20   C42   S    
C53   O40   A    
C57   O43   A    
C3    C86   A    
C46   O21   A    
C38   C52   S    
C3    C16   A    
Br11  C70   S    
O44   Zn1   S    
Br6   C6    S    
C30   C36   A    
O23   Zn16  S    
O31   Zn12  S    
C24   C46   S    
C67   C92   S    
C80   F20   S    
C4    C17   A    
O52   Zn7   S    
C40   O5    A    
C9    H8    S    
C1    C85   S    
O1    Zn14  S    
C41   O17   A    
C69   C82   A    
C42   O14   A    
C77   F18   S    
C5    C88   A    
C27   C37   A    
C72   C76   A    
C1    O45   A    
C33   C35   A    
C45   O52   A    
C16   C25   A    
O1    Zn12  S    
Br3   C3    S    
O33   Zn14  S    
O40   Zn5   S    
O26   Zn13  S    
C7    C11   A    
C75   C84   A    
C35   C38   A    
C37   C49   S    
O5    Zn1   S    
C12   O26   A    
C9    C18   A    
C43   O8    A    
C12   C84   S    
C29   C37   A    
C41   O6    A    
O22   Zn14  S    
C55   O42   A    
O1    Zn5   S    
O10   Zn11  S    
O41   Zn6   S    
C79   C87   A    
O8    Zn9   S    
O39   Zn4   S    
C13   H11   S    
C78   C91   S    
C11   H10   S    
C66   C80   A    
O37   Zn2   S    
C34   O24   A    
C44   O20   A    
C21   C70   A    
C14   H12   S    
C60   C61   S    
C58   C59   S    
C78   O28   A    
O30   Zn2   S    
C23   O50   A    
C60   H6    S    
C42   O7    A    
C32   F10   S    
C56   C88   S    
Br1   C66   S    
C6    C90   A    
C67   O27   A    
C48   O13   A    
C51   O38   A    
C82   C91   A    
O21   Zn4   S    
C26   C74   A    
C2    C85   A    
C56   O30   A    
C56   O2    A    
C27   C28   A    
Br14  C73   S    
O23   Zn7   S    
C45   C90   S    
O16   Zn14  S    
C29   F7    S    
C54   O41   A    
O14   Zn12  S    
C31   C32   A    
O4    Zn8   S    
O23   Zn3   S    
C51   O36   A    
C52   O39   A    
C7    C91   A    
C63   F12   S    
C53   O44   A    
O12   Zn6   S    
O1    Zn1   S    
C23   O22   A    
C23   C87   S    
C34   O51   A    
C47   O11   A    
C21   C43   S    
C6    C10   A    
C76   C85   A    
O20   Zn3   S    
C22   C44   S    
C81   C90   A    
Br16  C89   S    
C17   H4    S    
C49   O31   A    
C34   C86   S    
C75   F16   S    
C80   C88   A    
C14   C89   A    
O28   Zn4   S    
C35   F13   S    
O27   Zn3   S    
O12   Zn9   S    
C53   C63   S    
C45   O29   A    
C68   C81   A    
O11   Zn10  S    
C26   C48   S    
C57   O48   A    
C36   C50   S    
C12   O49   A    
C31   C39   A    
C54   C62   S    
C5    C9    A    
C43   O15   A    
C82   F3    S    
C46   O10   A    
Br12  C71   S    
C49   O33   A    
Br13  C72   S    
O2    Zn8   S    
O42   Zn7   S    
C60   C64   D    
C55   O47   A    
C18   C66   A    
O15   Zn13  S    
O24   Zn15  S    
C77   C86   A    
C39   C51   S    
C19   C68   A    
C59   H5    S    
O34   Zn2   S    
C28   C36   A    
C55   C65   S    
C20   C69   A    
C15   H2    S    
O3    Zn7   S    
O38   Zn3   S    
O48   Zn11  S    
O34   Zn8   S    
O43   Zn8   S    
C30   F8    S    
C22   C71   A    
C19   C41   S    
C11   C20   A    
O18   Zn16  S    
O36   Zn16  S    
C78   O4    A    
C1    O25   A    
C27   F5    S    
Br15  C74   S    
C67   O3    A    
C81   F2    S    
C24   C72   A    
C33   F11   S    
Br7   C7    S    
C83   F4    S    
C48   O19   A    
O34   Zn11  S    
Br8   C8    S    
C57   C64   S    
O7    Zn1   S    
C62   F1    S    
C44   O9    A    
C33   C39   A    
C73   C77   A    
C50   O35   A    
O12   Zn13  S    
C54   O46   A    
Br9   C68   S    
C28   F6    S    
Br4   C4    S    
C79   F19   S    
C10   C19   A    
C31   F9    S    
Br5   C5    S    
O46   Zn9   S    
C61   C65   D    
C58   C62   D    
C58   H1    S    
C13   C21   A    
C25   C47   S    
C2    C15   A    
C61   H7    S    
C47   O18   A    
O45   Zn5   S    
C59   C63   D    
O9    Zn10  S    
C16   H3    S    
C8    C92   A    
O50   Zn5   S    
O13   Zn11  S    
