data_mof_unit_22906.cif
_audit_creation_date              2012-12-10T20:38:23-0500
_audit_creation_method            fapswitch 2.2
_symmetry_space_group_name_H-M    P1
_symmetry_Int_Tables_number       1
_space_group_crystal_system       triclinic
_cell_length_a                    9.921248
_cell_length_b                    10.642773
_cell_length_c                    16.492921
_cell_angle_alpha                 91.620664
_cell_angle_beta                  86.079966
_cell_angle_gamma                 90.3395
_cell_volume                      1736.69755475

loop_
_atom_site_label
_atom_site_type_symbol
_atom_type_description
_atom_site_fract_x
_atom_site_fract_y
_atom_site_fract_z
_atom_type_partial_charge
C1    C     C_R   0.500279 0.739693 0.495487 0.928893
C2    C     C_R   0.524557 0.483251 0.257698 -0.037527
C3    C     C_R   0.377222 0.935624 0.489745 0.076608
C4    C     C_R   0.483443 0.483342 0.652012 0.963777
C5    C     C_R   0.498606 0.870466 0.479554 -0.090104
C6    C     C_R   0.615613 0.933701 0.450613 -0.124880
C7    C     C_R   0.616825 0.064197 0.452886 -0.180467
C8    C     C_R   0.499017 0.128302 0.481426 -0.082196
C9    C     C_R   0.377349 0.063497 0.490636 0.103757
C10   C     C_3   0.266368 0.072586 0.556427 -0.402383
C11   C     C_3   0.265448 0.930162 0.554733 -0.391270
C12   C     C_R   0.363800 0.371753 0.767514 -0.140517
C13   C     C_R   0.922178 0.528622 0.569158 0.053099
C14   C     C_R   0.935652 0.463327 0.432752 -0.051126
C15   C     C_R   0.079174 0.464876 0.432402 -0.099093
C16   C     C_R   0.500029 0.260056 0.496500 0.861392
C17   C     C_R   0.063338 0.520543 0.571445 0.090910
C18   C     C_3   0.064014 0.633556 0.629111 0.164585
C19   C     C_3   0.911578 0.642813 0.624630 0.199127
C20   C     C_R   0.517537 0.498345 0.346090 0.847919
C21   C     C_R   0.482661 0.421527 0.730534 -0.112763
C22   C     C_R   0.606797 0.393208 0.762281 -0.222355
C23   C     C_R   0.653119 0.439813 0.130288 -0.074591
C24   C     C_R   0.610527 0.328839 0.834150 0.430168
C25   C     C_R   0.488124 0.303480 0.879153 -0.063635
C26   C     C_R   0.365370 0.317433 0.843263 -0.166756
C27   C     C_R   0.649365 0.466796 0.213412 -0.205697
C28   C     C_R   0.404198 0.475754 0.217501 -0.193464
C29   C     C_R   0.408321 0.448150 0.134808 -0.064234
C30   C     C_R   0.532431 0.427216 0.091747 0.210278
C31   C     C_2   0.485293 0.302429 0.967928 0.479790
C32   C     C_2   0.537172 0.404702 0.004612 -0.323586
H1    H     H_    0.701832 0.420198 0.731184 0.210305
H2    H     H_    0.138657 0.438557 0.377244 0.140709
H3    H     H_    0.743406 0.472614 0.243028 0.158088
H4    H     H_    0.125065 0.711178 0.602264 0.131341
H5    H     H_    0.849849 0.622776 0.681682 0.156794
H6    H     H_    0.306551 0.489409 0.249957 0.157549
H7    H     H_    0.584439 0.478722 0.968310 0.176172
H8    H     H_    0.270504 0.294192 0.875990 0.206108
H9    H     H_    0.749602 0.427032 0.096218 0.184635
H10   H     H_    0.270189 0.377216 0.738586 0.224956
H11   H     H_    0.064155 0.460681 0.818161 0.403910
H12   H     H_    0.315086 0.443996 0.104288 0.180336
H13   H     H_    0.944283 0.866655 0.468548 0.355595
H14   H     H_    0.211422 0.141655 0.081465 0.395054
H15   H     H_    0.956706 0.215261 0.811338 0.397922
H16   H     H_    0.706655 0.883544 0.431269 0.209245
H17   H     H_    0.710276 0.113714 0.437169 0.170658
H18   H     H_    0.300262 0.114973 0.614065 0.212471
H19   H     H_    0.172820 0.113574 0.534914 0.219853
H20   H     H_    0.296821 0.889005 0.611732 0.233480
H21   H     H_    0.173115 0.889546 0.530044 0.225493
H22   H     H_    0.888216 0.435157 0.377971 0.128620
N1    N     N_R   0.857140 0.500860 0.500530 -0.073457
N2    N     N_R   0.142780 0.500820 0.500530 -0.118663
O1    O     O_R   0.385310 0.683210 0.499990 -0.632133
O2    O     O_2   0.023766 0.704886 0.786060 -0.217757
O3    O     O_3   0.046829 0.464777 0.759862 -0.568549
O4    O     O_2   0.725293 0.821284 0.606922 -0.249448
O5    O     O_2   0.955209 0.892083 0.620722 -0.297143
O6    O     O_3   0.902351 0.784644 0.482383 -0.602295
O7    O     O_2   0.407127 0.061291 0.965436 -0.227134
O8    O     O_2   0.483368 0.147861 0.094117 -0.269103
O9    O     O_3   0.247481 0.214526 0.050703 -0.582252
O10   O     O_2   0.831263 0.401615 0.907425 -0.316473
O11   O     O_2   0.753662 0.184841 0.928647 -0.238763
O12   O     O_R   0.614650 0.683240 0.500000 -0.527780
O13   O     O_3   0.871176 0.238641 0.788086 -0.497335
O14   O     O_R   0.371780 0.500000 0.615800 -0.577365
O15   O     O_R   0.601120 0.500040 0.615800 -0.629484
O16   O     O_R   0.385350 0.316760 0.500000 -0.623205
O17   O     O_R   0.614690 0.316790 0.500010 -0.620473
O18   O     O_R   0.398880 0.499960 0.384200 -0.628223
O19   O     O_R   0.628220 0.500000 0.384200 -0.628769
O20   O     O_2   0.247558 0.625558 0.743166 -0.296611
S1    S     S_3+6 0.099575 0.608695 0.732504 0.034570
S2    S     S_3+6 0.870511 0.790671 0.583902 0.029388
S3    S     S_3+6 0.407635 0.175837 0.020861 0.060672
S4    S     S_3+6 0.769389 0.287990 0.868250 0.046023
Zn1   Zn    Zn3+2 0.346870 0.499980 0.499990 0.973572
Zn2   Zn    Zn3+2 0.653130 0.500020 0.500010 1.015243

loop_
_geom_bond_atom_site_label_1
_geom_bond_atom_site_label_2
_ccdc_geom_bond_type
C25   C31   S    
O9    S3    S    
C16   O16   A    
O3    S1    S    
C4    O14   A    
C7    C8    A    
O7    S3    D    
O4    S2    D    
C6    H16   S    
C1    C5    S    
C28   C29   A    
C5    C6    A    
H13   O6    S    
C1    O12   A    
C18   C19   S    
C32   H7    S    
O14   Zn1   S    
H15   O13   S    
C12   H10   S    
C11   H20   S    
C19   H5    S    
O2    S1    D    
C24   S4    S    
C8    C9    A    
C2    C27   A    
C23   C27   A    
C9    C10   S    
C15   H2    S    
O16   Zn1   S    
C11   H21   S    
H11   O3    S    
O15   Zn2   S    
C14   N1    A    
C8    C16   S    
C21   C22   A    
C10   H19   S    
C13   C19   S    
C2    C20   S    
C16   O17   A    
C23   C30   A    
N2    Zn1   S    
C24   C25   A    
C7    H17   S    
H14   O9    S    
C27   H3    S    
C25   C26   A    
C12   C21   A    
C20   O19   A    
C12   C26   A    
C19   S2    S    
C29   C30   A    
C3    C9    A    
C1    O1    A    
C31   C32   D    
C28   H6    S    
O5    S2    D    
C17   C18   S    
C20   O18   A    
O20   S1    D    
N1    Zn2   S    
C17   N2    A    
C14   H22   S    
C29   H12   S    
O8    S3    D    
O1    Zn1   S    
O18   Zn1   S    
C10   H18   S    
O17   Zn2   S    
C22   H1    S    
O6    S2    S    
O11   S4    D    
C3    C5    A    
O19   Zn2   S    
C31   S3    S    
C6    C7    A    
O10   S4    D    
C23   H9    S    
C13   C17   A    
O12   Zn2   S    
C15   N2    A    
C30   C32   S    
C4    C21   S    
C26   H8    S    
C18   S1    S    
C22   C24   A    
C3    C11   S    
C10   C11   S    
C14   C15   A    
O13   S4    S    
C2    C28   A    
C18   H4    S    
C4    O15   A    
C13   N1    A    
