data_mof_unit_10202.cif
_audit_creation_date              2012-12-11T16:15:10-0500
_audit_creation_method            fapswitch 2.2
_symmetry_space_group_name_H-M    P1
_symmetry_Int_Tables_number       1
_space_group_crystal_system       monoclinic
_cell_length_a                    7.213731
_cell_length_b                    23.425798
_cell_length_c                    25.681892
_cell_angle_alpha                 90.000021
_cell_angle_beta                  90.0
_cell_angle_gamma                 90.0
_cell_volume                      4339.91629054

loop_
_atom_site_label
_atom_site_type_symbol
_atom_type_description
_atom_site_fract_x
_atom_site_fract_y
_atom_site_fract_z
_atom_type_partial_charge
O1    O     O_R   0.694650 0.802620 0.195790 -0.541587
O2    O     O_R   0.305350 0.197380 0.804210 -0.541587
O3    O     O_R   0.305350 0.197380 0.695790 -0.541587
O4    O     O_R   0.694650 0.802620 0.304210 -0.541587
O5    O     O_R   0.194650 0.697380 0.304210 -0.541587
O6    O     O_R   0.805350 0.302620 0.695790 -0.541587
O7    O     O_R   0.805350 0.302620 0.804210 -0.541587
O8    O     O_R   0.194650 0.697380 0.195790 -0.541587
O9    O     O_R   0.364900 0.809540 0.303840 -0.542007
O10   O     O_R   0.635100 0.190460 0.696160 -0.542007
O11   O     O_R   0.635100 0.190460 0.803840 -0.542007
O12   O     O_R   0.364900 0.809540 0.196160 -0.542007
O13   O     O_R   0.864900 0.690460 0.196160 -0.542007
O14   O     O_R   0.135100 0.309540 0.803840 -0.542007
O15   O     O_R   0.135100 0.309540 0.696160 -0.542007
O16   O     O_R   0.864900 0.690460 0.303840 -0.542007
C1    C     C_R   0.533579 0.823061 0.321047 0.693813
C2    C     C_R   0.466421 0.176938 0.678953 0.693813
C3    C     C_R   0.466421 0.176939 0.821047 0.693813
C4    C     C_R   0.533579 0.823061 0.178953 0.693814
C5    C     C_R   0.033579 0.676939 0.178953 0.693814
C6    C     C_R   0.966421 0.323061 0.821047 0.693814
C7    C     C_R   0.966421 0.323061 0.678953 0.693813
C8    C     C_R   0.033579 0.676939 0.321047 0.693813
H1    H     H_    0.796989 0.487727 0.486814 0.146140
H2    H     H_    0.203011 0.512273 0.513186 0.146140
H3    H     H_    0.203012 0.512273 0.986814 0.146141
H4    H     H_    0.796988 0.487728 0.013185 0.146141
H5    H     H_    0.296990 0.012273 0.013186 0.146142
H6    H     H_    0.703010 0.987727 0.986814 0.146142
H7    H     H_    0.703009 0.987726 0.513186 0.146143
H8    H     H_    0.296991 0.012274 0.486813 0.146143
H9    H     H_    0.222473 0.419207 0.538633 0.125258
H10   H     H_    0.777527 0.580793 0.461367 0.125258
H11   H     H_    0.777527 0.580793 0.038633 0.125256
H12   H     H_    0.222473 0.419208 0.961366 0.125256
H13   H     H_    0.722473 0.080793 0.961367 0.125257
H14   H     H_    0.277527 0.919207 0.038633 0.125256
H15   H     H_    0.277526 0.919207 0.461366 0.125257
H16   H     H_    0.722474 0.080792 0.538633 0.125257
H17   H     H_    0.669019 0.386281 0.648833 0.132079
H18   H     H_    0.330981 0.613719 0.351167 0.132079
H19   H     H_    0.330980 0.613718 0.148833 0.132079
H20   H     H_    0.669019 0.386282 0.851167 0.132079
H21   H     H_    0.169020 0.113718 0.851167 0.132079
H22   H     H_    0.830980 0.886282 0.148833 0.132079
H23   H     H_    0.830980 0.886281 0.351167 0.132079
H24   H     H_    0.169019 0.113718 0.648833 0.132079
O17   O     O_3   0.528130 0.713200 0.250000 -0.379255
O18   O     O_3   0.471870 0.286800 0.750000 -0.379255
O19   O     O_3   0.028130 0.786800 0.250000 -0.379255
O20   O     O_3   0.971870 0.213200 0.750000 -0.379255
V1    V     V_3+5 0.253280 0.756820 0.250000 1.399336
V2    V     V_3+5 0.746720 0.243180 0.750000 1.399336
V3    V     V_3+5 0.753280 0.743180 0.250000 1.399336
V4    V     V_3+5 0.246720 0.256820 0.750000 1.399336
C9    C     C_R   0.043255 0.634768 0.364026 -0.082550
C10   C     C_R   0.956745 0.365232 0.635974 -0.082550
C11   C     C_R   0.956745 0.365232 0.864025 -0.082550
C12   C     C_R   0.043255 0.634768 0.135975 -0.082550
C13   C     C_R   0.543255 0.865232 0.135975 -0.082550
C14   C     C_R   0.456745 0.134768 0.864025 -0.082550
C15   C     C_R   0.456745 0.134768 0.635975 -0.082550
C16   C     C_R   0.543255 0.865232 0.364025 -0.082550
C17   C     C_R   0.887618 0.624135 0.395293 -0.182224
C18   C     C_R   0.112382 0.375865 0.604707 -0.182224
C19   C     C_R   0.112381 0.375865 0.895293 -0.182224
C20   C     C_R   0.887619 0.624135 0.104707 -0.182224
C21   C     C_R   0.387618 0.875865 0.104707 -0.182224
C22   C     C_R   0.612382 0.124135 0.895293 -0.182224
C23   C     C_R   0.612382 0.124135 0.604707 -0.182224
C24   C     C_R   0.387618 0.875865 0.395293 -0.182224
C25   C     C_R   0.898208 0.585981 0.436873 -0.173967
C26   C     C_R   0.101791 0.414019 0.563127 -0.173967
C27   C     C_R   0.101791 0.414019 0.936872 -0.173966
C28   C     C_R   0.898209 0.585982 0.063127 -0.173965
C29   C     C_R   0.398208 0.914019 0.063127 -0.173966
C30   C     C_R   0.601792 0.085981 0.936873 -0.173966
C31   C     C_R   0.601792 0.085981 0.563128 -0.173966
C32   C     C_R   0.398208 0.914019 0.436872 -0.173966
C33   C     C_R   0.063407 0.556383 0.447728 0.156744
C34   C     C_R   0.936593 0.443617 0.552272 0.156744
C35   C     C_R   0.936593 0.443618 0.947727 0.156744
C36   C     C_R   0.063407 0.556383 0.052272 0.156744
C37   C     C_R   0.563407 0.943617 0.052272 0.156744
C38   C     C_R   0.436593 0.056383 0.947727 0.156745
C39   C     C_R   0.436594 0.056383 0.552272 0.156744
C40   C     C_R   0.563406 0.943617 0.447728 0.156744
C41   C     C_R   0.221445 0.566867 0.416469 0.197134
C42   C     C_R   0.778555 0.433132 0.583530 0.197134
C43   C     C_R   0.778555 0.433133 0.916469 0.197132
C44   C     C_R   0.221445 0.566867 0.083530 0.197133
C45   C     C_R   0.721445 0.933133 0.083531 0.197133
C46   C     C_R   0.278555 0.066867 0.916469 0.197133
C47   C     C_R   0.278555 0.066867 0.583530 0.197133
C48   C     C_R   0.721445 0.933133 0.416469 0.197132
C49   C     C_R   0.209750 0.605980 0.375059 -0.165774
C50   C     C_R   0.790250 0.394020 0.624941 -0.165774
C51   C     C_R   0.790251 0.394020 0.875059 -0.165775
C52   C     C_R   0.209749 0.605980 0.124941 -0.165776
C53   C     C_R   0.709749 0.894020 0.124941 -0.165775
C54   C     C_R   0.290251 0.105980 0.875059 -0.165775
C55   C     C_R   0.290251 0.105980 0.624941 -0.165776
C56   C     C_R   0.709749 0.894020 0.375059 -0.165776
C57   C     C_2   0.072655 0.516018 0.492436 -0.201115
C58   C     C_2   0.927345 0.483982 0.507564 -0.201115
C59   C     C_2   0.927344 0.483983 0.992435 -0.201117
C60   C     C_2   0.072655 0.516018 0.007564 -0.201118
C61   C     C_2   0.572655 0.983982 0.007564 -0.201119
C62   C     C_2   0.427345 0.016018 0.992436 -0.201119
C63   C     C_2   0.427345 0.016018 0.507564 -0.201120
C64   C     C_2   0.572654 0.983982 0.492436 -0.201120
H25   H     H_    0.758162 0.646327 0.388443 0.136849
H26   H     H_    0.241838 0.353673 0.611556 0.136849
H27   H     H_    0.241837 0.353673 0.888443 0.136849
H28   H     H_    0.758163 0.646328 0.111556 0.136849
H29   H     H_    0.258163 0.853673 0.111557 0.136849
H30   H     H_    0.741837 0.146327 0.888443 0.136849
H31   H     H_    0.741838 0.146327 0.611557 0.136850
H32   H     H_    0.258162 0.853673 0.388443 0.136849
C65   C     C_3   0.401833 0.536155 0.426117 -0.844895
H33   H     H_    0.379451 0.489300 0.424357 0.219483
H34   H     H_    0.508416 0.547454 0.396657 0.215581
H35   H     H_    0.456533 0.547765 0.465084 0.200997
C66   C     C_3   0.598167 0.463845 0.573883 -0.844894
H36   H     H_    0.620549 0.510700 0.575643 0.219483
H37   H     H_    0.543467 0.452235 0.534916 0.200996
H38   H     H_    0.491584 0.452546 0.603343 0.215581
C67   C     C_3   0.598166 0.463845 0.926117 -0.844888
H39   H     H_    0.620550 0.510701 0.924361 0.219480
H40   H     H_    0.491588 0.452550 0.896655 0.215582
H41   H     H_    0.543462 0.452231 0.965083 0.200995
C68   C     C_3   0.401834 0.536156 0.073882 -0.844885
H42   H     H_    0.379450 0.489299 0.075636 0.219479
H43   H     H_    0.456539 0.547771 0.034916 0.200995
H44   H     H_    0.508412 0.547450 0.103345 0.215582
C69   C     C_3   0.901833 0.963844 0.073882 -0.844886
H45   H     H_    0.879449 0.010700 0.075637 0.219480
H46   H     H_    0.008411 0.952549 0.103345 0.215582
H47   H     H_    0.956538 0.952230 0.034917 0.200995
C70   C     C_3   0.098167 0.036156 0.926118 -0.844886
H48   H     H_    0.120551 0.989299 0.924363 0.219479
H49   H     H_    0.043462 0.047770 0.965083 0.200995
H50   H     H_    0.991589 0.047451 0.896655 0.215582
C71   C     C_3   0.098167 0.036156 0.573882 -0.844884
H51   H     H_    0.120550 0.989300 0.575636 0.219479
H52   H     H_    0.991589 0.047450 0.603344 0.215581
H53   H     H_    0.043462 0.047772 0.534916 0.200995
C72   C     C_3   0.901833 0.963844 0.426118 -0.844884
H54   H     H_    0.879450 0.010700 0.424364 0.219479
H55   H     H_    0.956538 0.952228 0.465084 0.200995
H56   H     H_    0.008411 0.952549 0.396655 0.215581

loop_
_geom_bond_atom_site_label_1
_geom_bond_atom_site_label_2
_ccdc_geom_bond_type
C7    C10   S    
O14   V4    S    
C40   C48   A    
H8    C63   S    
C14   C54   A    
C22   C30   A    
C11   C51   A    
C21   C29   A    
C63   C64   D    
C10   C50   A    
C28   C36   A    
C31   C39   A    
C71   H51   S    
C67   H40   S    
C69   H46   S    
O11   C3    A    
O5    V1    S    
C38   C62   S    
C26   C34   A    
C37   C61   S    
C72   H55   S    
C1    C16   S    
H20   C51   S    
C2    C15   S    
C39   C63   S    
C48   C72   S    
C3    C14   S    
C18   C26   A    
C17   C25   A    
C14   C22   A    
O3    C2    A    
C4    C13   S    
C19   H27   S    
C65   H35   S    
C38   C46   A    
C71   H52   S    
C37   C45   A    
C10   C18   A    
C44   C68   S    
C34   C58   S    
O20   V2    S    
C8    C9    S    
C47   C71   S    
C68   H44   S    
H7    C64   S    
O12   V1    S    
C67   H41   S    
C33   C41   A    
C30   C38   A    
O15   C7    A    
C69   H45   S    
C29   C37   A    
O16   C8    A    
O12   C4    A    
C70   H48   S    
O6    V2    S    
H2    C57   S    
C25   C33   A    
C69   H47   S    
C47   C55   A    
H1    C58   S    
H22   C53   S    
C33   C57   S    
H11   C28   S    
H6    C61   S    
H5    C62   S    
H19   C52   S    
C5    C12   S    
C15   C55   A    
C70   H50   S    
C45   C53   A    
C6    C11   S    
O17   V3    S    
H24   C55   S    
O18   V4    S    
C23   C31   A    
C41   C49   A    
O19   V1    S    
C13   C53   A    
H12   C27   S    
C66   H38   S    
O3    V4    S    
C11   C19   A    
C59   C60   D    
C9    C49   A    
C24   H32   S    
O8    C5    A    
H16   C31   S    
O13   C5    A    
C36   C44   A    
C12   C20   A    
C65   H33   S    
O11   V2    S    
C20   H28   S    
O4    C1    A    
C72   H56   S    
O9    C1    A    
C15   C23   A    
C48   C56   A    
O4    V3    S    
C66   H36   S    
H18   C49   S    
C19   C27   A    
C71   H53   S    
C44   C52   A    
C66   H37   S    
C67   H39   S    
H13   C30   S    
C13   C21   A    
C16   C56   A    
C39   C47   A    
O1    C4    A    
H23   C56   S    
C18   H26   S    
O2    C3    A    
C46   C70   S    
C17   H25   S    
C9    C17   A    
C12   C52   A    
O8    V1    S    
C43   C67   S    
H14   C29   S    
C20   C28   A    
O7    C6    A    
C35   C43   A    
C57   C58   D    
C34   C42   A    
C23   H31   S    
O15   V4    S    
O14   C6    A    
C70   H49   S    
O1    V3    S    
O16   V3    S    
C32   C40   A    
O2    V4    S    
C72   H54   S    
H15   C32   S    
C27   C35   A    
C68   H42   S    
O5    C8    A    
C41   C65   S    
H3    C60   S    
O10   C2    A    
O6    C7    A    
C21   H29   S    
C36   C60   S    
C42   C66   S    
C35   C59   S    
C16   C24   A    
O10   V2    S    
C65   H34   S    
C45   C69   S    
H21   C54   S    
H10   C25   S    
C40   C64   S    
H9    C26   S    
C22   H30   S    
O9    V1    S    
C46   C54   A    
C24   C32   A    
C68   H43   S    
H17   C50   S    
H4    C59   S    
O7    V2    S    
C43   C51   A    
C61   C62   D    
C42   C50   A    
O13   V3    S    
