data_mof_unit_58057.cif
_audit_creation_date              2013-03-05T15:45:48-0500
_audit_creation_method            fapswitch 2.2
_symmetry_space_group_name_H-M    P1
_symmetry_Int_Tables_number       1
_space_group_crystal_system       triclinic
_cell_length_a                    9.870481
_cell_length_b                    11.037716
_cell_length_c                    15.866538
_cell_angle_alpha                 95.926927
_cell_angle_beta                  78.781216
_cell_angle_gamma                 111.114468
_cell_volume                      1580.71187918

loop_
_atom_site_label
_atom_site_type_symbol
_atom_site_description
_atom_site_fract_x
_atom_site_fract_y
_atom_site_fract_z
_atom_type_partial_charge
O1    O     O_R   0.426810 0.668300 0.492040 -0.536555
O2    O     O_R   0.573190 0.331700 0.507960 -0.537655
O3    O     O_R   0.658240 0.703130 0.517240 -0.582369
O4    O     O_R   0.341760 0.296870 0.482760 -0.583876
C1    C     C_R   0.556176 0.745258 0.506046 0.862211
C2    C     C_R   0.444126 0.254753 0.493525 0.862086
O5    O     O_R   0.319390 0.472820 0.610170 -0.533074
O6    O     O_R   0.680610 0.527180 0.389830 -0.532367
O7    O     O_R   0.550820 0.507640 0.635370 -0.596972
O8    O     O_R   0.449180 0.492360 0.364630 -0.594601
C3    C     C_R   0.411419 0.486341 0.662693 0.802428
C4    C     C_R   0.588818 0.514678 0.337433 0.802768
Cu1   Cu    Cu3+1 0.362980 0.479380 0.485080 1.016558
Cu2   Cu    Cu3+1 0.637020 0.520620 0.514920 1.016287
C5    C     C_R   0.359638 0.478383 0.756228 -0.052985
C6    C     C_R   0.642606 0.532308 0.244715 -0.050532
C7    C     C_R   0.165248 0.429463 0.880180 -0.201284
C8    C     C_R   0.838840 0.609119 0.124042 -0.204963
C9    C     C_R   0.209665 0.436890 0.791424 -0.133457
C10   C     C_R   0.792870 0.586571 0.211549 -0.136799
C11   C     C_R   0.464331 0.510657 0.810855 -0.242951
C12   C     C_R   0.539204 0.501923 0.189504 -0.241134
C13   C     C_R   0.422832 0.502703 0.900627 0.089453
C14   C     C_R   0.581938 0.531670 0.102099 0.089144
C15   C     C_R   0.270144 0.460969 0.934797 0.153651
C16   C     C_R   0.734853 0.582551 0.069292 0.154755
C17   C     C_R   0.528080 0.532061 0.956983 0.064733
C18   C     C_R   0.477374 0.511414 0.046576 0.063724
C19   C     C_R   0.324145 0.474423 0.078008 -0.205748
C20   C     C_R   0.682103 0.582139 0.927077 -0.205676
C21   C     C_R   0.223128 0.450017 0.023062 -0.216695
C22   C     C_R   0.782793 0.607576 0.982393 -0.217022
H1    H     H_    0.106790 0.421043 0.049991 0.158634
H2    H     H_    0.899554 0.646899 0.956697 0.156958
H3    H     H_    0.425405 0.453894 0.216430 0.159327
H4    H     H_    0.578102 0.539159 0.781248 0.160320
H5    H     H_    0.874595 0.613626 0.253168 0.197492
H6    H     H_    0.126680 0.407791 0.750581 0.197297
H7    H     H_    0.048459 0.397004 0.906154 0.144896
H8    H     H_    0.955832 0.649806 0.099376 0.144392
H9    H     H_    0.277870 0.466049 0.145349 0.161331
H10   H     H_    0.730020 0.606148 0.861343 0.156266
H11   H     H_    0.612307 0.132789 0.527740 0.209382
H12   H     H_    0.393043 0.868142 0.466317 0.212162
C23   C     C_2   0.586325 0.884516 0.511763 -0.327607
C24   C     C_2   0.414993 0.115607 0.486668 -0.324613
C25   C     C_2   0.490240 0.931511 0.491692 -0.100746
C26   C     C_2   0.513512 0.069116 0.504001 -0.103182
H13   H     H_    0.314103 0.051076 0.465433 0.161618
H14   H     H_    0.685914 0.948758 0.534522 0.158970
N1    N     N_2   0.842890 0.551600 0.537350 -0.333286
N2    N     N_2   0.157110 0.448400 0.462650 -0.334073
C27   C     C_2   0.926736 0.494089 0.489479 0.330914
C28   C     C_2   0.076030 0.510579 0.508016 0.331511
H15   H     H_    0.117182 0.386417 0.413014 0.224906
H16   H     H_    0.879131 0.607406 0.590078 0.225739
N3    N     N_R   0.128653 0.597027 0.577598 0.136618
O9    O     O_R   0.173154 0.721472 0.567321 -0.399036
O10   O     O_R   0.082068 0.555187 0.655308 -0.408434
N4    N     N_R   0.878514 0.415202 0.416103 0.135527
O11   O     O_R   0.936004 0.462074 0.340230 -0.409022
O12   O     O_R   0.823094 0.289730 0.422541 -0.395343

loop_
_geom_bond_atom_site_label_1
_geom_bond_atom_site_label_2
_geom_bond_distance
_ccdc_geom_bond_type
C15   C21   1.390291 A    
O5    Cu1   1.950522 S    
O5    C3    1.308855 A    
O7    Cu2   1.932060 S    
H12   C25   1.086477 S    
C16   C22   1.389918 A    
C12   H3    1.075308 S    
C9    H6    1.080764 S    
C13   C17   1.429285 A    
Cu1   N2    2.031846 S    
C14   C18   1.427649 A    
H11   C26   1.086831 S    
C25   C26   1.450046 S    
C8    C16   1.404139 A    
N2    H15   1.029005 S    
C6    C10   1.398873 A    
O6    C4    1.307829 A    
C17   C18   1.425150 A    
C7    C15   1.404057 A    
C3    C5    1.473390 S    
C13   C15   1.418075 A    
C19   C21   1.386730 A    
C11   H4    1.073049 S    
Cu1   Cu2   2.704556 S    
C17   C20   1.417741 A    
C20   C22   1.387227 A    
C10   H5    1.081166 S    
O7    C3    1.300898 A    
C24   H13   1.087428 S    
N3    O9    1.299990 A    
O2    C2    1.300198 A    
O3    Cu2   1.946047 S    
O8    C4    1.300958 A    
C23   H14   1.087448 S    
O1    C1    1.300537 A    
N4    O12   1.299751 A    
C18   C19   1.416530 A    
C7    C9    1.392771 A    
C27   N4    1.431013 S    
N2    C28   1.303524 D    
C8    C10   1.393004 A    
C11   C13   1.406137 A    
O2    Cu2   1.946889 S    
C12   C14   1.405568 A    
N3    O10   1.299608 A    
O1    Cu1   1.946887 S    
C21   H1    1.084524 S    
N1    C27   1.303508 D    
C24   C26   1.333155 D    
C4    C6    1.471288 S    
C5    C11   1.401969 A    
C14   C16   1.417189 A    
O4    C2    1.299293 A    
N1    H16   1.028869 S    
C7    H7    1.084039 S    
C23   C25   1.332671 D    
O4    Cu1   1.946048 S    
C8    H8    1.084044 S    
C20   H10   1.075429 S    
O6    Cu2   1.950520 S    
C2    C24   1.453564 S    
C19   H9    1.076516 S    
C5    C9    1.398435 A    
C1    C23   1.453135 S    
O8    Cu1   1.932057 S    
Cu2   N1    2.031847 S    
C27   C28   1.501830 S    
C6    C12   1.400765 A    
N4    O11   1.300074 A    
O3    C1    1.298786 A    
C28   N3    1.430947 S    
C22   H2    1.084513 S    
