data_mof_unit_29863.cif
_audit_creation_date              2012-10-26T21:26:54-0400
_audit_creation_method            fapswitch 2.2
_symmetry_space_group_name_H-M    P1
_symmetry_Int_Tables_number       1
_space_group_crystal_system       triclinic
_cell_length_a                    16.574527
_cell_length_b                    16.574527
_cell_length_c                    28.643808
_cell_angle_alpha                 89.892058
_cell_angle_beta                  89.892055
_cell_angle_gamma                 89.938737
_cell_volume                      7868.84974948

loop_
_atom_site_label
_atom_site_type_symbol
_atom_type_description
_atom_site_fract_x
_atom_site_fract_y
_atom_site_fract_z
_atom_type_partial_charge
C1    C     C_1   0.000320 0.128591 0.194403 -0.055346
C2    C     C_3   0.999344 0.000656 0.750000 0.019719
C3    C     C_3   0.218895 0.821176 0.887476 -0.309795
C4    C     C_3   0.288436 0.879009 0.877359 -0.455551
C5    C     C_3   0.854580 0.159174 0.143172 -0.249669
C6    C     C_3   0.780772 0.179453 0.112945 -0.309795
C7    C     C_3   0.711092 0.121867 0.123225 -0.455490
C8    C     C_3   0.775244 0.855772 0.314220 -0.250730
C9    C     C_3   0.720344 0.782303 0.321975 -0.312116
C10   C     C_3   0.745007 0.712354 0.290379 -0.456689
C11   C     C_3   0.224996 0.144094 0.685931 -0.250734
C12   C     C_3   0.279984 0.217514 0.678231 -0.312112
C13   C     C_R   0.999519 0.196025 0.162198 0.033131
C14   C     C_3   0.255406 0.287422 0.709878 -0.456693
C15   C     C_3   0.847948 0.205527 0.827473 -0.250948
C16   C     C_3   0.770510 0.249633 0.842376 -0.312493
C17   C     C_3   0.696685 0.214215 0.818090 -0.457393
C18   C     C_3   0.152063 0.794510 0.172502 -0.250945
C19   C     C_3   0.229501 0.750399 0.157604 -0.312491
C20   C     C_3   0.303323 0.785809 0.181896 -0.457384
C21   C     C_3   0.182108 0.152170 0.341490 -0.251152
C22   C     C_3   0.214086 0.230232 0.363547 -0.312324
C23   C     C_3   0.166831 0.303499 0.346196 -0.457338
C24   C     C_R   0.000475 0.804001 0.837823 0.033132
C25   C     C_3   0.818040 0.847847 0.658412 -0.251158
C26   C     C_3   0.786154 0.769800 0.636294 -0.312331
C27   C     C_3   0.833505 0.696548 0.653579 -0.457348
C28   C     C_R   0.802299 0.999981 0.663014 0.033592
C29   C     C_R   0.197726 0.000017 0.336969 0.033592
C30   C     C_R   0.999983 0.802274 0.163030 0.033592
C31   C     C_R   0.000018 0.197701 0.836985 0.033592
C32   C     C_R   0.195999 0.999525 0.662177 0.033132
C33   C     C_R   0.803975 0.000481 0.337802 0.033131
C34   C     C_R   0.000043 0.611946 0.938797 0.550756
C35   C     C_1   0.999677 0.871417 0.805605 -0.055341
C36   C     C_R   0.999957 0.388055 0.061205 0.550764
C37   C     C_R   0.388265 0.000081 0.438662 0.550566
C38   C     C_R   0.611738 0.999919 0.561336 0.550574
C39   C     C_R   0.000081 0.388262 0.938664 0.550574
C40   C     C_R   0.999919 0.611735 0.061338 0.550567
C41   C     C_R   0.611945 0.000043 0.438794 0.550764
C42   C     C_R   0.388053 0.999957 0.561203 0.550756
C43   C     C_R   0.069869 0.243417 0.156233 0.004321
C44   C     C_R   0.930196 0.756472 0.843699 0.004331
C45   C     C_R   0.765023 0.073715 0.650331 0.003761
C46   C     C_1   0.869884 0.000469 0.694927 -0.055600
C47   C     C_R   0.234964 0.926277 0.349678 0.003755
C48   C     C_R   0.925972 0.776162 0.143644 0.003640
C49   C     C_R   0.074022 0.223763 0.856405 0.003639
C50   C     C_R   0.211894 0.929074 0.635790 0.003063
C51   C     C_R   0.787924 0.071012 0.364086 0.003046
C52   C     C_R   0.070926 0.788106 0.864210 0.003063
C53   C     C_R   0.928987 0.212078 0.135915 0.003046
C54   C     C_R   0.756582 0.930131 0.343766 0.004321
C55   C     C_R   0.243528 0.069804 0.656301 0.004331
C56   C     C_R   0.926285 0.234977 0.849669 0.003761
C57   C     C_1   0.130129 0.999529 0.305064 -0.055593
C58   C     C_R   0.073722 0.765035 0.150322 0.003755
C59   C     C_R   0.223839 0.074028 0.356356 0.003640
C60   C     C_R   0.776237 0.925978 0.643594 0.003639
C61   C     C_R   0.068931 0.306117 0.122903 -0.121165
C62   C     C_R   0.931134 0.693765 0.877025 -0.121153
C63   C     C_R   0.702310 0.072344 0.617200 -0.122170
C64   C     C_R   0.297669 0.927647 0.382815 -0.122177
C65   C     C_R   0.927084 0.712992 0.110798 -0.120384
C66   C     C_R   0.072910 0.286945 0.889243 -0.120381
C67   C     C_R   0.275921 0.930156 0.603402 -0.119622
C68   C     C_1   0.000471 0.869871 0.194936 -0.055592
C69   C     C_R   0.723917 0.069919 0.396487 -0.119640
C70   C     C_R   0.069844 0.724079 0.896598 -0.119622
C71   C     C_R   0.930080 0.276084 0.103514 -0.119640
C72   C     C_R   0.693881 0.931069 0.377096 -0.121165
C73   C     C_R   0.306235 0.068865 0.622974 -0.121153
C74   C     C_R   0.927656 0.297690 0.882800 -0.122170
C75   C     C_R   0.072352 0.702330 0.117186 -0.122177
C76   C     C_R   0.287009 0.072916 0.389201 -0.120384
C77   C     C_R   0.713055 0.927090 0.610757 -0.120381
C78   C     C_R   0.999680 0.322544 0.096488 -0.022147
C79   C     C_1   0.999531 0.130116 0.805072 -0.055600
C80   C     C_R   0.000319 0.677469 0.903524 -0.022115
C81   C     C_R   0.676574 0.999754 0.597020 -0.023730
C82   C     C_R   0.323439 0.000244 0.402972 -0.023735
C83   C     C_R   0.999756 0.676561 0.097028 -0.023735
C84   C     C_R   0.000245 0.323426 0.902980 -0.023730
C85   C     C_R   0.322531 0.999681 0.596476 -0.022115
C86   C     C_R   0.677456 0.000320 0.403512 -0.022146
C87   C     C_1   0.000587 0.071027 0.220154 -0.027063
C88   C     C_1   0.999413 0.928971 0.779848 -0.027058
C89   C     C_1   0.927564 0.000633 0.720437 -0.026951
C90   C     C_1   0.128583 0.000323 0.694394 -0.055341
C91   C     C_1   0.072442 0.999365 0.279561 -0.026944
C92   C     C_1   0.000635 0.927558 0.220439 -0.026944
C93   C     C_1   0.999367 0.072436 0.779563 -0.026951
C94   C     C_1   0.071029 0.000587 0.720152 -0.027058
C95   C     C_1   0.928973 0.999413 0.279846 -0.027063
C96   C     C_3   0.144229 0.224752 0.185778 -0.250729
C97   C     C_3   0.217699 0.279651 0.178022 -0.312116
C98   C     C_3   0.287648 0.254987 0.209617 -0.456690
C99   C     C_3   0.855906 0.775004 0.814069 -0.250734
C100  C     C_3   0.782485 0.720016 0.821769 -0.312112
C101  C     C_1   0.871409 0.999680 0.305597 -0.055346
C102  C     C_3   0.712578 0.744593 0.790121 -0.456693
C103  C     C_3   0.794473 0.152052 0.672526 -0.250949
C104  C     C_3   0.750367 0.229490 0.657624 -0.312493
C105  C     C_3   0.785785 0.303315 0.681909 -0.457394
C106  C     C_3   0.205488 0.847936 0.327500 -0.250945
C107  C     C_3   0.249598 0.770498 0.342398 -0.312492
C108  C     C_3   0.214187 0.696676 0.318106 -0.457384
C109  C     C_3   0.847830 0.817895 0.158508 -0.251151
C110  C     C_3   0.769768 0.785918 0.136451 -0.312325
C111  C     C_3   0.696502 0.833174 0.153801 -0.457337
C112  C     C_3   0.000659 0.999341 0.250000 0.019719
C113  C     C_3   0.152153 0.181960 0.841588 -0.251158
C114  C     C_3   0.230200 0.213846 0.863706 -0.312332
C115  C     C_3   0.303451 0.166495 0.846421 -0.457348
C116  C     C_3   0.158799 0.854769 0.642919 -0.249677
C117  C     C_3   0.178824 0.781105 0.612524 -0.309796
C118  C     C_3   0.120991 0.711563 0.622641 -0.455552
C119  C     C_3   0.840830 0.145418 0.356831 -0.249668
C120  C     C_3   0.820554 0.219225 0.387060 -0.309793
C121  C     C_3   0.878143 0.288904 0.376781 -0.455489
C122  C     C_3   0.145231 0.841201 0.857081 -0.249677
Cu1   Cu    Cu3+1 0.919200 0.500000 0.000000 0.890244
Cu2   Cu    Cu3+1 0.080800 0.500000 0.000000 0.890242
Cu3   Cu    Cu3+1 0.500000 0.919200 0.500000 0.890242
Cu4   Cu    Cu3+1 0.500000 0.080800 0.500000 0.890244
H1    H     H_    0.121668 0.343138 0.117277 0.122786
H2    H     H_    0.877394 0.289637 0.082788 0.125596
H3    H     H_    0.228989 0.126303 0.723327 0.143127
H4    H     H_    0.702682 0.219712 0.779605 0.149471
H5    H     H_    0.689482 0.149573 0.827513 0.151711
H6    H     H_    0.641745 0.247391 0.829285 0.140270
H7    H     H_    0.761807 0.243560 0.880713 0.159639
H8    H     H_    0.775022 0.314624 0.833064 0.156565
H9    H     H_    0.854064 0.211240 0.788928 0.143334
H10   H     H_    0.840790 0.140396 0.835925 0.151640
H11   H     H_    0.310533 0.850452 0.172475 0.151706
H12   H     H_    0.297314 0.780310 0.220382 0.149469
H13   H     H_    0.656859 0.878333 0.382721 0.122785
H14   H     H_    0.358263 0.752628 0.170706 0.140264
H15   H     H_    0.224981 0.685407 0.166914 0.156583
H16   H     H_    0.238213 0.756473 0.119267 0.159612
H17   H     H_    0.159211 0.859637 0.164035 0.151619
H18   H     H_    0.145961 0.788821 0.211048 0.143343
H19   H     H_    0.171823 0.309043 0.307654 0.148323
H20   H     H_    0.102180 0.298019 0.356002 0.148377
H21   H     H_    0.191521 0.359091 0.362317 0.141011
H22   H     H_    0.207877 0.227047 0.402157 0.160624
H23   H     H_    0.278710 0.238437 0.354230 0.157410
H24   H     H_    0.343369 0.121544 0.617419 0.122732
H25   H     H_    0.187637 0.157852 0.302912 0.144202
H26   H     H_    0.116864 0.146890 0.350151 0.149391
H27   H     H_    0.898142 0.702125 0.643763 0.148351
H28   H     H_    0.828546 0.690909 0.692118 0.148312
H29   H     H_    0.808870 0.640965 0.637421 0.141022
H30   H     H_    0.721543 0.761492 0.645610 0.157407
H31   H     H_    0.792348 0.773088 0.597687 0.160628
H32   H     H_    0.883281 0.853210 0.649764 0.149380
H33   H     H_    0.812502 0.842079 0.696986 0.144211
H34   H     H_    0.872367 0.326999 0.893371 0.125615
H35   H     H_    0.127647 0.673057 0.106592 0.125622
H36   H     H_    0.307884 0.128335 0.404807 0.127390
H37   H     H_    0.692211 0.871677 0.595131 0.127388
H38   H     H_    0.269870 0.259848 0.246898 0.150288
H39   H     H_    0.306372 0.191936 0.202144 0.152442
H40   H     H_    0.339890 0.295445 0.203252 0.140947
H41   H     H_    0.878456 0.656631 0.882581 0.122732
H42   H     H_    0.238198 0.275274 0.141137 0.159942
H43   H     H_    0.201246 0.343227 0.185930 0.157213
H44   H     H_    0.126559 0.228737 0.223194 0.143143
H45   H     H_    0.162878 0.161464 0.178668 0.150604
H46   H     H_    0.693757 0.807619 0.797581 0.152452
H47   H     H_    0.730447 0.739758 0.752854 0.150293
H48   H     H_    0.660374 0.704069 0.796445 0.140958
H49   H     H_    0.799035 0.656461 0.813875 0.157200
H50   H     H_    0.761897 0.724371 0.858639 0.159971
H51   H     H_    0.837148 0.838273 0.821140 0.150620
H52   H     H_    0.673000 0.127633 0.606629 0.125615
H53   H     H_    0.873697 0.771011 0.776672 0.143127
H54   H     H_    0.780288 0.297318 0.720395 0.149471
H55   H     H_    0.850427 0.310517 0.672487 0.151711
H56   H     H_    0.752609 0.358255 0.670715 0.140270
H57   H     H_    0.756440 0.238193 0.619287 0.159639
H58   H     H_    0.685376 0.224977 0.666936 0.156565
H59   H     H_    0.788760 0.145936 0.711071 0.143334
H60   H     H_    0.859604 0.159209 0.664075 0.151640
H61   H     H_    0.149544 0.689468 0.327527 0.151706
H62   H     H_    0.219686 0.702684 0.279621 0.149469
H63   H     H_    0.326942 0.872352 0.393409 0.125623
H64   H     H_    0.247367 0.641736 0.329297 0.140264
H65   H     H_    0.314589 0.775017 0.333087 0.156583
H66   H     H_    0.243524 0.761788 0.380735 0.159612
H67   H     H_    0.140361 0.840789 0.335966 0.151619
H68   H     H_    0.211176 0.854038 0.288953 0.143343
H69   H     H_    0.690956 0.828182 0.192342 0.148323
H70   H     H_    0.701983 0.897825 0.143994 0.148377
H71   H     H_    0.640909 0.808486 0.137678 0.141011
H72   H     H_    0.772955 0.792127 0.097841 0.160624
H73   H     H_    0.761562 0.721295 0.145767 0.157410
H74   H     H_    0.871665 0.692118 0.095192 0.127390
H75   H     H_    0.842146 0.812366 0.197086 0.144202
H76   H     H_    0.853111 0.883138 0.149848 0.149391
H77   H     H_    0.297875 0.101857 0.856237 0.148351
H78   H     H_    0.309091 0.171454 0.807882 0.148313
H79   H     H_    0.359035 0.191130 0.862580 0.141022
H80   H     H_    0.238508 0.278457 0.854390 0.157407
H81   H     H_    0.226912 0.207652 0.902313 0.160628
H82   H     H_    0.146789 0.116718 0.850236 0.149380
H83   H     H_    0.157921 0.187498 0.803014 0.144212
H84   H     H_    0.125462 0.692878 0.659814 0.151385
H85   H     H_    0.128323 0.307789 0.904869 0.127388
H86   H     H_    0.057884 0.729872 0.614962 0.147734
H87   H     H_    0.136758 0.659170 0.600300 0.140750
H88   H     H_    0.173544 0.797413 0.574987 0.160605
H89   H     H_    0.241356 0.760362 0.619826 0.158450
H90   H     H_    0.163009 0.836344 0.680199 0.147599
H91   H     H_    0.095188 0.872409 0.635873 0.150884
H92   H     H_    0.941319 0.270866 0.384495 0.147754
H93   H     H_    0.873593 0.307324 0.339566 0.151389
H94   H     H_    0.862201 0.341396 0.399006 0.140718
H95   H     H_    0.757948 0.239702 0.379711 0.158452
H96   H     H_    0.289372 0.877526 0.582607 0.125554
H97   H     H_    0.825896 0.203190 0.424635 0.160557
H98   H     H_    0.904481 0.127996 0.363942 0.150850
H99   H     H_    0.836617 0.163602 0.319510 0.147582
H100  H     H_    0.307122 0.874539 0.840186 0.151385
H101  H     H_    0.270127 0.942117 0.885038 0.147734
H102  H     H_    0.340829 0.863243 0.899701 0.140750
H103  H     H_    0.202586 0.826456 0.925014 0.160605
H104  H     H_    0.239638 0.758645 0.880174 0.158449
H105  H     H_    0.163656 0.836991 0.819801 0.147598
H106  H     H_    0.127591 0.904812 0.864127 0.150883
H107  H     H_    0.710366 0.122605 0.417214 0.125596
H108  H     H_    0.729127 0.058690 0.115511 0.147754
H109  H     H_    0.692674 0.126417 0.160441 0.151389
H110  H     H_    0.658599 0.137811 0.101001 0.140719
H111  H     H_    0.760298 0.242059 0.120294 0.158453
H112  H     H_    0.796804 0.174111 0.075369 0.160557
H113  H     H_    0.872000 0.095523 0.136060 0.150849
H114  H     H_    0.836399 0.163387 0.180493 0.147583
H115  H     H_    0.740146 0.730135 0.253099 0.150287
H116  H     H_    0.808057 0.693630 0.297851 0.152442
H117  H     H_    0.704547 0.660113 0.296743 0.140947
H118  H     H_    0.122473 0.710628 0.917393 0.125554
H119  H     H_    0.724721 0.761803 0.358860 0.159942
H120  H     H_    0.656769 0.798758 0.314067 0.157213
H121  H     H_    0.771260 0.873444 0.276804 0.143143
H122  H     H_    0.838533 0.837122 0.321330 0.150604
H123  H     H_    0.192381 0.306243 0.702419 0.152452
H124  H     H_    0.260242 0.269553 0.747146 0.150293
H125  H     H_    0.295932 0.339626 0.703555 0.140958
H126  H     H_    0.343539 0.200965 0.686125 0.157200
H127  H     H_    0.275629 0.238103 0.641361 0.159971
H128  H     H_    0.161726 0.162852 0.678860 0.150620
O1    O     O_R   0.931980 0.584070 0.954320 -0.506374
O2    O     O_R   0.068020 0.584070 0.954320 -0.506227
O3    O     O_R   0.415930 0.068020 0.545680 -0.506373
O4    O     O_R   0.584070 0.931980 0.454320 -0.506397
O5    O     O_R   0.068020 0.584070 0.045680 -0.509410
O6    O     O_R   0.931980 0.415930 0.954320 -0.509399
O7    O     O_R   0.584070 0.931980 0.545680 -0.505804
O8    O     O_R   0.415930 0.068020 0.454320 -0.505806
O9    O     O_R   0.068020 0.415930 0.045680 -0.506398
O10   O     O_R   0.415930 0.931980 0.454320 -0.509410
O11   O     O_R   0.584070 0.068020 0.545680 -0.509399
O12   O     O_R   0.068020 0.415930 0.954320 -0.505804
O13   O     O_R   0.931980 0.584070 0.045680 -0.505807
O14   O     O_R   0.584070 0.068020 0.454320 -0.506248
O15   O     O_R   0.415930 0.931980 0.545680 -0.506227
O16   O     O_R   0.931980 0.415930 0.045680 -0.506249

loop_
_geom_bond_atom_site_label_1
_geom_bond_atom_site_label_2
_ccdc_geom_bond_type
C26   H30   S    
C27   H27   S    
C49   C113  S    
C77   H37   S    
C120  H95   S    
C5    H114  S    
C73   H24   S    
C17   H5    S    
C121  H92   S    
C6    C7    S    
C108  H61   S    
C76   H36   S    
C19   C20   S    
C103  H59   S    
C99   H51   S    
Cu2   O2    S    
C16   H8    S    
C3    H103  S    
C97   C98   S    
C39   O12   A    
Cu1   Cu2   S    
C106  H68   S    
C46   C89   T    
C116  C117  S    
C102  H47   S    
C41   C86   S    
C6    H112  S    
C28   C46   S    
C26   C27   S    
C63   H52   S    
C63   C81   A    
C33   C101  S    
C30   C48   A    
C109  H76   S    
C38   O11   A    
C39   C84   S    
C79   C93   T    
C42   O3    A    
C95   C112  S    
C5    C6    S    
C44   C99   S    
C65   C83   A    
C108  H64   S    
C110  H72   S    
C106  C107  S    
C15   C16   S    
Cu3   O10   S    
C11   H128  S    
C97   H43   S    
C114  H81   S    
Cu4   O8    S    
C25   H32   S    
C34   O2    A    
C18   C19   S    
C4    H101  S    
C20   H12   S    
C1    C87   T    
C117  H89   S    
C69   H107  S    
C37   O8    A    
C45   C103  S    
C34   C80   S    
C110  C111  S    
C52   C122  S    
C18   C58   S    
C72   H13   S    
C32   C90   S    
C29   C59   A    
C8    H121  S    
C16   C17   S    
C96   H45   S    
C10   H116  S    
C107  H66   S    
C25   H33   S    
C51   C119  S    
C107  C108  S    
Cu4   O11   S    
C2    C88   S    
C25   C60   S    
C4    H100  S    
C31   C56   A    
C9    H119  S    
C9    C10   S    
C32   C55   A    
Cu1   O1    S    
C3    C122  S    
C116  H90   S    
C111  H70   S    
C70   H118  S    
C27   H28   S    
C4    H102  S    
C48   C109  S    
C17   H4    S    
C22   H23   S    
C19   H15   S    
C96   H44   S    
C21   C22   S    
C115  H78   S    
C17   H6    S    
C102  H46   S    
C121  H93   S    
C40   C83   S    
Cu4   O14   S    
C41   O4    A    
C103  H60   S    
C31   C49   A    
C16   H7    S    
C11   H3    S    
C3    H104  S    
C104  C105  S    
C23   H20   S    
C40   O5    A    
C58   C75   A    
C64   H63   S    
C106  H67   S    
C13   C53   A    
C28   C60   A    
C27   H29   S    
C60   C77   A    
C6    H111  S    
C7    H109  S    
C28   C45   A    
C67   C85   A    
C24   C35   S    
C56   C74   A    
C49   C66   A    
C70   C80   A    
C113  H82   S    
C2    C94   S    
Cu2   O5    S    
C114  C115  S    
C76   C82   A    
C47   C64   A    
C14   H123  S    
C92   C112  S    
C5    C53   S    
C15   H10   S    
Cu2   O9    S    
C44   C62   A    
C25   C26   S    
C22   H22   S    
C23   H21   S    
Cu3   O4    S    
C45   C63   A    
C33   C51   A    
C114  H80   S    
Cu3   O15   S    
C34   O1    A    
C91   C112  S    
C2    C89   S    
C36   O9    A    
C115  H77   S    
C99   H53   S    
C122  H105  S    
C29   C47   A    
C65   H74   S    
C23   H19   S    
C35   C88   T    
C118  H84   S    
C72   C86   A    
C99   C100  S    
C24   C52   A    
C77   C81   A    
C61   C78   A    
C119  C120  S    
C47   C106  S    
C73   C85   A    
C96   C97   S    
C100  H49   S    
C100  C102  S    
C43   C96   S    
C8    C9    S    
C54   C72   A    
C21   H26   S    
C61   H1    S    
C42   C85   S    
C20   H11   S    
C31   C79   S    
C9    H120  S    
C64   C82   A    
C98   H40   S    
C57   C91   T    
Cu1   O16   S    
C104  H58   S    
C29   C57   S    
C120  H97   S    
C115  H79   S    
C38   C81   S    
Cu3   Cu4   S    
C48   C65   A    
C121  H94   S    
C37   C82   S    
C38   O7    A    
C1    C13   S    
C105  H54   S    
C8    C54   S    
C3    C4    S    
C53   C71   A    
C13   C43   A    
C11   C55   S    
C120  C121  S    
C43   C61   A    
C113  C114  S    
C50   C67   A    
C118  H86   S    
C62   C80   A    
C33   C54   A    
C119  H99   S    
C7    H110  S    
C18   H17   S    
C12   H127  S    
C5    H113  S    
Cu4   O3    S    
C110  H73   S    
C18   H18   S    
C108  H62   S    
C2    C93   S    
C10   H117  S    
C74   C84   A    
C98   H38   S    
C11   C12   S    
C21   C59   S    
C100  H50   S    
C14   H125  S    
Cu1   O6    S    
C102  H48   S    
C97   H42   S    
C122  H106  S    
C62   H41   S    
C66   H85   S    
C12   H126  S    
C74   H34   S    
C75   H35   S    
C15   C56   S    
C20   H14   S    
C42   O15   A    
C109  H75   S    
C12   C14   S    
C37   O10   A    
C113  H83   S    
C36   C78   S    
C117  C118  S    
C111  H71   S    
Cu2   O12   S    
C75   C83   A    
C24   C44   A    
C30   C58   A    
C67   H96   S    
C90   C94   T    
C119  H98   S    
C68   C92   T    
C87   C112  S    
C107  H65   S    
C14   H124  S    
C32   C50   A    
C118  H87   S    
C50   C116  S    
C21   H25   S    
C117  H88   S    
C71   H2    S    
C30   C68   S    
C7    H108  S    
C98   H39   S    
C52   C70   A    
C39   O6    A    
C66   C84   A    
C55   C73   A    
C40   O13   A    
Cu1   O13   S    
C104  H57   S    
C15   H9    S    
C8    H122  S    
C19   H16   S    
Cu3   O7    S    
C103  C104  S    
C36   O16   A    
C22   C23   S    
C41   O14   A    
C51   C69   A    
C105  H55   S    
C116  H91   S    
C109  C110  S    
C105  H56   S    
C59   C76   A    
C71   C78   A    
C10   H115  S    
C69   C86   A    
C95   C101  T    
C111  H69   S    
C26   H31   S    
