data_mof_unit_64582.cif
_audit_creation_date              2012-12-10T17:04:13-0500
_audit_creation_method            fapswitch 2.2
_symmetry_space_group_name_H-M    P1
_symmetry_Int_Tables_number       1
_space_group_crystal_system       triclinic
_cell_length_a                    15.178522
_cell_length_b                    15.190744
_cell_length_c                    16.032246
_cell_angle_alpha                 89.290413
_cell_angle_beta                  90.202344
_cell_angle_gamma                 90.485618
_cell_volume                      3696.16577439

loop_
_atom_site_label
_atom_site_type_symbol
_atom_type_description
_atom_site_fract_x
_atom_site_fract_y
_atom_site_fract_z
_atom_type_partial_charge
C1    C     C_R   0.260392 0.484821 0.488814 0.510874
C2    C     C_R   0.980563 0.453674 0.510135 -0.011806
C3    C     C_R   0.019642 0.539673 0.507633 -0.012221
C4    C     C_R   0.739533 0.515037 0.512275 0.511808
C5    C     C_R   0.110648 0.547771 0.489592 -0.030156
C6    C     C_R   0.127937 0.388933 0.506021 -0.045953
C7    C     C_R   0.036367 0.378539 0.514168 -0.032012
C8    C     C_R   0.508632 0.164739 0.524617 -0.000122
C9    C     C_R   0.485561 0.835417 0.479729 0.019223
C10   C     C_R   0.501895 0.963313 0.389192 -0.014214
C11   C     C_R   0.494197 0.872881 0.400485 -0.122080
C12   C     C_1   0.480237 0.519047 0.886382 -0.013047
C13   C     C_R   0.481707 0.888787 0.550330 -0.014379
C14   C     C_R   0.490266 0.981085 0.540690 -0.007801
C15   C     C_R   0.503776 0.019430 0.459821 0.012750
C16   C     C_R   0.511648 0.260439 0.514318 0.550957
C17   C     C_R   0.518348 0.111769 0.453629 -0.038007
C18   C     C_R   0.491072 0.126520 0.603552 0.038770
C19   C     C_R   0.485520 0.035390 0.610883 -0.113843
C20   C     C_R   0.487468 0.739626 0.486360 0.514123
C21   C     C_R   0.512923 0.488614 0.277394 0.513002
C22   C     C_R   0.487437 0.511182 0.722496 0.525470
C23   C     C_1   0.524129 0.478101 0.113855 -0.031854
C24   C     C_1   0.519085 0.483173 0.188554 0.037719
C25   C     C_2   0.529803 0.471906 0.024585 -0.009117
C26   C     C_2   0.477739 0.522343 0.976205 -0.120859
C27   C     C_2   0.474730 0.179088 0.679679 0.599856
C28   C     C_1   0.502821 0.993950 0.303429 0.222836
C29   C     C_1   0.473765 0.848098 0.632512 0.227750
C30   C     C_1   0.591784 0.410593 0.989955 0.249837
C31   C     C_1   0.148786 0.630237 0.459219 0.233085
C32   C     C_1   0.185005 0.312858 0.514945 0.247957
C33   C     C_1   0.004553 0.699555 0.544412 0.232447
C34   C     C_1   0.483141 0.515673 0.811484 0.055086
C35   C     C_1   0.003000 0.291321 0.536032 0.230483
C36   C     C_1   0.820182 0.681221 0.544497 0.236493
C37   C     C_1   0.842674 0.364746 0.486352 0.233343
C38   C     C_1   0.549843 0.153798 0.377291 0.237805
C39   C     C_R   0.164454 0.473088 0.491704 -0.006168
C40   C     C_R   0.835531 0.522156 0.516739 -0.002181
C41   C     C_R   0.966451 0.614411 0.523761 -0.030340
C42   C     C_R   0.874746 0.605086 0.528128 -0.042292
C43   C     C_R   0.887216 0.446495 0.508051 -0.033265
H1    H     H_    0.431825 0.567572 0.004469 0.139047
H2    H     H_    0.473085 0.007239 0.672134 0.174453
H3    H     H_    0.494712 0.830501 0.346408 0.139444
H4    H     H_    0.485835 0.187328 0.804839 0.356834
N1    N     N_1   0.503214 0.017500 0.234477 -0.229730
N2    N     N_1   0.575275 0.188234 0.317098 -0.235093
N3    N     N_1   0.467483 0.815635 0.697944 -0.248456
N4    N     N_1   0.641353 0.361529 0.962219 -0.239840
N5    N     N_1   0.179694 0.695453 0.434646 -0.249772
N6    N     N_1   0.230408 0.252368 0.522103 -0.230057
N7    N     N_1   0.034274 0.767511 0.561266 -0.221031
N8    N     N_1   0.977277 0.221625 0.553755 -0.218048
N9    N     N_1   0.776716 0.741735 0.557498 -0.251228
N10   N     N_1   0.806420 0.300190 0.468755 -0.241981
O1    O     O_3   0.500000 0.500000 0.500000 -0.469638
O2    O     O_R   0.461330 0.435620 0.316920 -0.526859
O3    O     O_R   0.434750 0.558200 0.677930 -0.524983
O4    O     O_R   0.559650 0.545720 0.316320 -0.536427
O5    O     O_R   0.544270 0.460460 0.688830 -0.515065
O6    O     O_2   0.435755 0.249125 0.674973 -0.499113
O7    O     O_R   0.501224 0.146399 0.757677 -0.673718
O8    O     O_R   0.559890 0.307360 0.561630 -0.503411
O9    O     O_R   0.434610 0.697530 0.534530 -0.519985
O10   O     O_R   0.307380 0.433810 0.444990 -0.530283
O11   O     O_R   0.698130 0.561300 0.458860 -0.529952
O12   O     O_R   0.296270 0.542620 0.535390 -0.526472
O13   O     O_R   0.698230 0.462280 0.560770 -0.529430
O14   O     O_R   0.461480 0.296280 0.460320 -0.520389
O15   O     O_R   0.544020 0.698820 0.443520 -0.538024
Zn1   Zn    Zn3+2 0.574310 0.433680 0.576480 1.017884
Zn2   Zn    Zn3+2 0.433700 0.417860 0.431740 1.000019
Zn3   Zn    Zn3+2 0.574160 0.575160 0.430870 0.973120
Zn4   Zn    Zn3+2 0.417840 0.573310 0.560900 0.998229

loop_
_geom_bond_atom_site_label_1
_geom_bond_atom_site_label_2
_ccdc_geom_bond_type
C6    C32   S    
C30   N4    T    
C41   C42   A    
C36   C42   S    
C2    C7    A    
C31   N5    T    
C4    O13   A    
O1    Zn4   S    
C38   N2    T    
O4    Zn3   S    
O11   Zn3   S    
C20   O9    A    
C21   O2    A    
C10   C15   A    
C22   O3    A    
C10   C28   S    
C25   C30   S    
O8    Zn1   S    
O12   Zn4   S    
C18   C19   A    
C9    C13   A    
C40   C43   A    
C28   N1    T    
C4    C40   S    
C23   C24   T    
O5    Zn1   S    
C21   O4    A    
C40   C42   A    
C8    C16   S    
C13   C14   A    
C26   H1    S    
C16   O14   A    
O15   Zn3   S    
O1    Zn3   S    
C29   N3    T    
C22   C34   S    
C35   N8    T    
C27   O7    S    
H4    O7    S    
C4    O11   A    
C25   C26   D    
O3    Zn4   S    
C8    C18   A    
C12   C26   S    
C37   C43   S    
C36   N9    T    
C22   O5    A    
C9    C20   S    
C2    C43   A    
O9    Zn4   S    
O13   Zn1   S    
O10   Zn2   S    
C9    C11   A    
O2    Zn2   S    
C27   O6    D    
C5    C39   A    
C12   C34   T    
C32   N6    T    
O1    Zn2   S    
C13   C29   S    
C33   N7    T    
C15   C17   A    
C3    C41   A    
C14   C15   A    
C7    C35   S    
C14   C19   A    
C18   C27   S    
C3    C5    A    
O14   Zn2   S    
C19   H2    S    
C6    C7    A    
C8    C17   A    
C33   C41   S    
C2    C3    A    
C1    O10   A    
C17   C38   S    
C23   C25   S    
C1    O12   A    
C10   C11   A    
C1    C39   S    
C21   C24   S    
C6    C39   A    
C20   O15   A    
C11   H3    S    
C16   O8    A    
C37   N10   T    
O1    Zn1   S    
C5    C31   S    
