data_mof_unit_68334.cif
_audit_creation_date              2012-12-10T16:53:55-0500
_audit_creation_method            fapswitch 2.2
_symmetry_space_group_name_H-M    P1
_symmetry_Int_Tables_number       1
_space_group_crystal_system       triclinic
_cell_length_a                    7.856311
_cell_length_b                    8.767094
_cell_length_c                    10.81343
_cell_angle_alpha                 92.433151
_cell_angle_beta                  84.656631
_cell_angle_gamma                 92.283931
_cell_volume                      740.409131902

loop_
_atom_site_label
_atom_site_type_symbol
_atom_type_description
_atom_site_fract_x
_atom_site_fract_y
_atom_site_fract_z
_atom_type_partial_charge
C1    C     C_R   0.543350 0.793340 0.496584 0.911372
C2    C     C_3   0.512040 0.505244 0.121212 -0.026727
C3    C     C_3   0.368098 0.387763 0.077215 -0.183050
C4    C     C_3   0.699781 0.449729 0.057492 0.127737
C5    C     C_2   0.563119 0.952642 0.479174 -0.011808
C6    C     C_2   0.437413 0.047698 0.526314 -0.001744
C7    C     C_R   0.502807 0.501138 0.741563 0.852818
C8    C     C_R   0.456680 0.206732 0.505663 1.020126
C9    C     C_R   0.502478 0.504773 0.258262 0.975831
C10   C     C_3   0.456231 0.663239 0.934188 0.002110
C11   C     C_3   0.466440 0.673859 0.079163 0.226571
C12   C     C_3   0.376354 0.381096 0.932962 -0.157566
C13   C     C_3   0.706167 0.467450 0.910257 0.151764
C14   C     C_3   0.514652 0.502359 0.877309 -0.047676
H1    H     H_    0.318123 0.663899 0.917786 0.156836
H2    H     H_    0.249196 0.418474 0.910130 0.207093
H3    H     H_    0.244561 0.436206 0.109617 0.109327
N1    N     N_2   0.950330 0.457950 0.465890 -0.033084
N2    N     N_2   0.049670 0.542050 0.534110 -0.123473
O1    O     O_R   0.389250 0.738570 0.508370 -0.636124
O2    O     O_R   0.678390 0.711620 0.486510 -0.602703
O3    O     O_R   0.355430 0.513500 0.696140 -0.633996
O4    O     O_R   0.644580 0.486550 0.674270 -0.659846
O5    O     O_R   0.321610 0.288380 0.513490 -0.629584
O6    O     O_R   0.610750 0.261430 0.491630 -0.645177
O7    O     O_R   0.355420 0.513450 0.325730 -0.636624
O8    O     O_R   0.644570 0.486500 0.303860 -0.576039
Zn1   Zn    Zn3+2 0.306940 0.517990 0.514600 0.961303
Zn2   Zn    Zn3+2 0.693060 0.482010 0.485400 0.983408
C15   C     C_3   0.729252 0.280123 0.091076 -0.863825
H4    H     H_    0.713923 0.263637 0.191673 0.267632
H5    H     H_    0.646430 0.195035 0.046646 0.246647
H6    H     H_    0.861788 0.244039 0.063223 0.228522
C16   C     C_3   0.382519 0.219023 0.871419 -0.928667
H7    H     H_    0.406550 0.223578 0.769625 0.243811
H8    H     H_    0.482130 0.151343 0.904807 0.227595
H9    H     H_    0.257636 0.156655 0.890566 0.264699
C17   C     C_2   0.337070 0.232735 0.137030 0.354552
H10   H     H_    0.239832 0.153930 0.104053 0.093503
O9    O     O_2   0.408326 0.197115 0.226382 -0.627951
C18   C     C_3   0.722693 0.001233 0.398333 -0.853614
H11   H     H_    0.788234 0.904914 0.347370 0.297660
H12   H     H_    0.690034 0.076393 0.325301 0.254910
H13   H     H_    0.815353 0.054719 0.459087 0.256268
C19   C     C_3   0.276817 0.000009 0.606922 -0.928476
H14   H     H_    0.214012 0.097305 0.658914 0.258028
H15   H     H_    0.182624 0.954326 0.545147 0.290872
H16   H     H_    0.303008 0.918135 0.677463 0.247215
C20   C     C_3   0.010983 0.313887 0.416353 -0.471373
H17   H     H_    0.919052 0.265381 0.352692 0.168082
H18   H     H_    0.132056 0.328478 0.357903 0.241830
H19   H     H_    0.020344 0.235175 0.492782 0.200349
C21   C     C_2   0.009632 0.697011 0.538907 0.717010
H20   H     H_    0.985426 0.758363 0.627316 -0.068173
O10   O     O_2   0.013870 0.765141 0.442451 -0.592299
C22   C     C_3   0.522921 0.807619 0.863901 -0.933267
H21   H     H_    0.435343 0.900879 0.892784 0.241019
H22   H     H_    0.652793 0.849031 0.882201 0.258652
H23   H     H_    0.521021 0.790680 0.762154 0.230983
C23   C     C_3   0.591666 0.802819 0.122742 -0.741168
H24   H     H_    0.545944 0.918368 0.107537 0.243514
H25   H     H_    0.600392 0.796491 0.223635 0.242267
H26   H     H_    0.719976 0.803248 0.075319 0.247681
C24   C     C_3   0.290579 0.732662 0.139722 -0.811219
H27   H     H_    0.180070 0.661692 0.116098 0.232671
H28   H     H_    0.286913 0.749210 0.242136 0.294843
H29   H     H_    0.265833 0.846106 0.104057 0.233559
C25   C     C_2   0.774657 0.322109 0.838800 0.453208
H30   H     H_    0.697603 0.252565 0.779147 0.089128
O11   O     O_2   0.921906 0.284089 0.843505 -0.635576
C26   C     C_3   0.839174 0.598443 0.862388 -0.861811
H31   H     H_    0.971860 0.558101 0.844852 0.240297
H32   H     H_    0.851954 0.696090 0.927132 0.207860
H33   H     H_    0.810346 0.650656 0.776719 0.246536
C27   C     C_2   0.862306 0.529133 0.103780 0.437044
H34   H     H_    0.983595 0.489023 0.062032 0.050838
O12   O     O_2   0.864748 0.633121 0.182156 -0.572941

loop_
_geom_bond_atom_site_label_1
_geom_bond_atom_site_label_2
_ccdc_geom_bond_type
C26   H33   S    
C2    C4    S    
C27   H34   S    
C3    C17   S    
C1    O2    A    
N2    Zn1   S    
C6    C19   S    
C13   C14   S    
O8    Zn2   S    
C7    O3    A    
C27   O12   D    
C18   H11   S    
O7    Zn1   S    
C22   H23   S    
C20   H19   S    
C24   H27   S    
N2    C21   S    
C20   H18   S    
C19   H15   S    
C2    C3    S    
C26   H31   S    
N1    Zn2   S    
O3    Zn1   S    
C21   H20   S    
C15   H5    S    
C8    O6    A    
C18   H12   S    
C4    C27   S    
C17   H10   S    
O1    Zn1   S    
C23   H24   S    
C23   H26   S    
C1    C5    S    
C2    C11   S    
O4    Zn2   S    
C25   O11   D    
C17   O9    D    
C12   C14   S    
C9    O7    A    
C3    H3    S    
C16   H8    S    
C10   H1    S    
C21   O10   D    
O6    Zn2   S    
C15   H4    S    
C16   H7    S    
C18   H13   S    
C7    O4    A    
C10   C11   S    
C12   C16   S    
C11   C23   S    
C16   H9    S    
C24   H29   S    
O5    Zn1   S    
C10   C22   S    
C22   H21   S    
C9    O8    A    
C23   H25   S    
C20   H17   S    
C10   C14   S    
C19   H16   S    
C26   H32   S    
C4    C13   S    
C5    C6    D    
C5    C18   S    
N1    N2    D    
C1    O1    A    
C6    C8    S    
C3    C12   S    
C13   C26   S    
C15   H6    S    
C8    O5    A    
C19   H14   S    
C2    C9    S    
O2    Zn2   S    
C7    C14   S    
C4    C15   S    
C12   H2    S    
N1    C20   S    
C22   H22   S    
C25   H30   S    
C11   C24   S    
C13   C25   S    
C24   H28   S    
