data_mof_unit_8813.cif
_audit_creation_date              2012-12-10T16:41:56-0500
_audit_creation_method            fapswitch 2.2
_symmetry_space_group_name_H-M    P1
_symmetry_Int_Tables_number       1
_space_group_crystal_system       triclinic
_cell_length_a                    10.89574
_cell_length_b                    8.702917
_cell_length_c                    7.542971
_cell_angle_alpha                 103.36751
_cell_angle_beta                  94.69479
_cell_angle_gamma                 94.010684
_cell_volume                      690.628087721

loop_
_atom_site_label
_atom_site_type_symbol
_atom_type_description
_atom_site_fract_x
_atom_site_fract_y
_atom_site_fract_z
_atom_type_partial_charge
C1    C     C_R   0.495907 0.199832 0.452977 0.865678
C2    C     C_2   0.505606 0.968635 0.572565 -0.368283
C3    C     C_R   0.265469 0.496946 0.500671 0.824727
C4    C     C_R   0.503794 0.800158 0.546998 0.881485
C5    C     C_R   0.734401 0.502476 0.499344 0.845799
C6    C     C_2   0.922922 0.474759 0.348356 -0.163286
C7    C     C_2   0.867196 0.511317 0.502082 -0.310924
C8    C     C_2   0.057657 0.481829 0.350847 -0.152446
C9    C     C_2   0.132774 0.487866 0.503047 -0.316725
C10   C     C_2   0.493623 0.031338 0.427306 -0.363033
Cu1   Cu    Cu3+1 0.513740 0.517380 0.684380 0.935284
Cu2   Cu    Cu3+1 0.486260 0.482620 0.315620 0.943030
H1    H     H_    0.868880 0.441119 0.215481 0.168049
H2    H     H_    0.918435 0.551238 0.635990 0.146686
H3    H     H_    0.095225 0.479713 0.221336 0.163784
H4    H     H_    0.098496 0.482373 0.632302 0.138759
H5    H     H_    0.482191 0.958619 0.287838 0.178799
H6    H     H_    0.517161 0.041411 0.711934 0.178199
H7    H     H_    0.607515 0.609616 0.046801 0.210859
N1    N     N_2   0.465540 0.456420 0.038510 -0.080543
N2    N     N_2   0.534460 0.543580 0.961490 -0.211049
O1    O     O_R   0.508930 0.286130 0.619780 -0.596129
O2    O     O_R   0.485720 0.256780 0.308360 -0.583078
O3    O     O_R   0.333540 0.514670 0.655670 -0.622297
O4    O     O_R   0.310330 0.485320 0.344250 -0.584124
O5    O     O_R   0.514280 0.743220 0.691640 -0.584669
O6    O     O_R   0.491070 0.713870 0.380220 -0.582341
O7    O     O_R   0.689670 0.514680 0.655750 -0.585971
O8    O     O_R   0.666460 0.485330 0.344330 -0.587639
C11   C     C_3   0.350971 0.369512 0.940209 -0.023919
C12   C     C_3   0.317115 0.214840 0.995181 -0.846573
H8    H     H_    0.396687 0.141336 0.987254 0.254135
H9    H     H_    0.283179 0.234592 0.131835 0.272837
H10   H     H_    0.240061 0.145373 0.897378 0.195197
H11   H     H_    0.273673 0.446462 0.960758 0.146547
H12   H     H_    0.358358 0.325277 0.796190 0.213175

loop_
_geom_bond_atom_site_label_1
_geom_bond_atom_site_label_2
_ccdc_geom_bond_type
C4    O5    A    
Cu1   Cu2   S    
C12   H9    S    
C6    C7    D    
C3    C9    S    
Cu2   O8    S    
C2    H6    S    
C5    O7    A    
Cu1   O1    S    
C2    C4    S    
C12   H8    S    
C11   H12   S    
Cu2   O4    S    
Cu2   N1    S    
C12   H10   S    
C1    O1    A    
N1    C11   S    
C6    H1    S    
Cu2   O2    S    
C3    O3    A    
Cu1   O7    S    
C11   H11   S    
H7    N2    S    
C9    H4    S    
C1    O2    A    
C8    H3    S    
C5    O8    A    
C11   C12   S    
C10   H5    S    
C2    C10   D    
Cu1   O3    S    
C3    O4    A    
C4    O6    A    
N1    N2    D    
C5    C7    S    
C6    C8    S    
Cu2   O6    S    
Cu1   O5    S    
Cu1   N2    S    
C7    H2    S    
C1    C10   S    
C8    C9    D    
