data_mof_unit_54899.cif
_audit_creation_date              2012-12-10T19:45:48-0500
_audit_creation_method            fapswitch 2.2
_symmetry_space_group_name_H-M    P1
_symmetry_Int_Tables_number       1
_space_group_crystal_system       triclinic
_cell_length_a                    10.850423
_cell_length_b                    14.675447
_cell_length_c                    14.721752
_cell_angle_alpha                 65.195577
_cell_angle_beta                  102.971508
_cell_angle_gamma                 102.373471
_cell_volume                      2054.44258884

loop_
_atom_site_label
_atom_site_type_symbol
_atom_type_description
_atom_site_fract_x
_atom_site_fract_y
_atom_site_fract_z
_atom_type_partial_charge
C1    C     C_R   0.479106 0.119821 0.312358 0.793958
C2    C     C_R   0.523530 0.880312 0.687650 0.796045
C3    C     C_R   0.870114 0.998307 0.497056 -0.106568
C4    C     C_R   0.129625 0.000746 0.503252 -0.107167
C5    C     C_R   0.908432 0.948112 0.446333 0.057766
C6    C     C_R   0.091296 0.049445 0.555243 0.058442
C7    C     C_R   0.474251 0.187955 0.205107 -0.057358
C8    C     C_R   0.546660 0.812794 0.794959 -0.052011
C9    C     C_R   0.445693 0.216767 0.027992 -0.204037
C10   C     C_R   0.622961 0.784581 0.970985 -0.211858
C11   C     C_R   0.443124 0.150466 0.128558 -0.189492
C12   C     C_R   0.598895 0.850884 0.870182 -0.181123
C13   C     C_R   0.505553 0.292447 0.179909 -0.249564
C14   C     C_R   0.521276 0.708104 0.821337 -0.258275
C15   C     C_R   0.511375 0.360831 0.079377 0.087773
C16   C     C_R   0.551295 0.639749 0.921489 0.089903
C17   C     C_R   0.479013 0.321371 0.002856 0.166377
C18   C     C_R   0.598795 0.679473 0.997211 0.166264
C19   C     C_R   0.545325 0.467234 0.052597 0.064478
C20   C     C_R   0.532388 0.533185 0.948494 0.066325
C21   C     C_R   0.504233 0.490565 0.874798 -0.221096
C22   C     C_R   0.593863 0.509878 0.125984 -0.221938
C23   C     C_R   0.262944 0.999976 0.501847 0.792789
C24   C     C_R   0.736992 0.999895 0.498108 0.791828
C25   C     C_R   0.479646 0.386662 0.901964 -0.227409
C26   C     C_R   0.621902 0.614001 0.098206 -0.230902
C27   C     C_R   0.696454 0.276472 0.679191 -0.320219
C28   C     C_R   0.302383 0.722994 0.321537 -0.315688
C29   C     C_R   0.670391 0.198180 0.645119 0.098549
C30   C     C_R   0.329012 0.801549 0.355255 0.099103
C31   C     C_R   0.523362 0.287561 0.506189 0.011736
C32   C     C_R   0.476666 0.712450 0.493833 0.014279
C33   C     C_R   0.547706 0.371099 0.535550 -0.013700
C34   C     C_R   0.451804 0.628675 0.464806 -0.011772
C35   C     C_R   0.634357 0.362540 0.625500 0.164647
C36   C     C_R   0.364580 0.636972 0.375188 0.162662
C37   C     C_R   0.487441 0.460820 0.480859 0.054492
C38   C     C_R   0.511996 0.538927 0.519532 0.062795
C39   C     C_R   0.595944 0.524672 0.611425 -0.273774
C40   C     C_R   0.403181 0.474943 0.389129 -0.267084
C41   C     C_R   0.656771 0.438813 0.662407 -0.217464
C42   C     C_R   0.341809 0.560538 0.338479 -0.206746
C43   C     C_R   0.350204 0.093929 0.758848 0.201049
C44   C     C_R   0.654363 0.890207 0.246537 0.198508
C45   C     C_R   0.265377 0.046629 0.699900 -0.157839
C46   C     C_R   0.734684 0.941818 0.303584 -0.158301
C47   C     C_R   0.181556 0.101587 0.616278 0.034626
C48   C     C_R   0.818928 0.891032 0.389462 0.036574
C49   C     C_R   0.179459 0.204761 0.593967 0.154924
C50   C     C_R   0.824774 0.787322 0.416824 0.154867
C51   C     C_R   0.261883 0.252024 0.655218 0.143658
C52   C     C_R   0.746337 0.735551 0.358053 0.141401
C53   C     C_R   0.348700 0.196628 0.735834 -0.209616
C54   C     C_R   0.660027 0.787143 0.274323 -0.216486
C55   C     C_R   0.961749 0.047202 0.551268 -0.191528
C56   C     C_R   0.038064 0.951613 0.449261 -0.192880
Cu1   Cu    Cu3+1 0.466270 0.918260 0.475690 0.947676
Cu2   Cu    Cu3+1 0.533730 0.081740 0.524310 0.948202
H1    H     H_    0.504347 0.535503 0.795192 0.140829
H2    H     H_    0.615647 0.464847 0.205655 0.145765
H3    H     H_    0.763278 0.269094 0.747958 0.138537
H4    H     H_    0.235057 0.730136 0.253059 0.138086
H5    H     H_    0.617227 0.578842 0.646252 0.137153
H6    H     H_    0.382293 0.421005 0.354015 0.140084
H7    H     H_    0.265675 0.966924 0.718624 0.134153
H8    H     H_    0.731573 0.021849 0.280880 0.137391
H9    H     H_    0.932445 0.082548 0.593139 0.162775
H10   H     H_    0.067463 0.915918 0.407754 0.161577
H11   H     H_    0.459434 0.357495 0.843201 0.135566
H12   H     H_    0.660725 0.643583 0.156363 0.142934
H13   H     H_    0.475249 0.681453 0.762510 0.152841
H14   H     H_    0.522383 0.319005 0.240086 0.149233
N1    N     N_R   0.584450 0.204570 0.560790 -0.177243
N2    N     N_R   0.415550 0.795430 0.439210 -0.177840
O1    O     O_R   0.455540 0.022090 0.338120 -0.583133
O2    O     O_R   0.544460 0.977910 0.661880 -0.580275
O3    O     O_R   0.512510 0.160150 0.379180 -0.593359
O4    O     O_R   0.487490 0.839850 0.620820 -0.593684
O5    O     O_R   0.291160 0.930970 0.479480 -0.586346
O6    O     O_R   0.708840 0.069030 0.520520 -0.586474
O7    O     O_R   0.348130 0.069020 0.520540 -0.572858
O8    O     O_R   0.651870 0.930980 0.479460 -0.574117
H15   H     H_    0.414015 0.232850 0.781675 0.121006
H16   H     H_    0.598798 0.747578 0.229561 0.131050
H17   H     H_    0.420907 0.186270 0.969773 0.129827
H18   H     H_    0.661159 0.815446 0.028418 0.133980
H19   H     H_    0.721338 0.431660 0.732204 0.151746
H20   H     H_    0.276794 0.567513 0.268920 0.148364
H21   H     H_    0.547072 0.715382 0.557219 0.123761
H22   H     H_    0.453362 0.284804 0.442545 0.123620
H23   H     H_    0.283025 0.868916 0.312841 0.120918
H24   H     H_    0.716246 0.130755 0.687606 0.120081
N3    N     N_3   0.436857 0.036361 0.842263 -0.604402
H25   H     H_    0.496622 0.082638 0.876821 0.202238
H26   H     H_    0.382600 0.981977 0.896322 0.210139
N4    N     N_3   0.568716 0.943972 0.159617 -0.610263
H27   H     H_    0.513090 0.894963 0.126586 0.208200
H28   H     H_    0.624045 0.997631 0.105947 0.207956
N5    N     N_3   0.093889 0.261033 0.508544 -0.593627
H29   H     H_    0.036015 0.291344 0.533771 0.238830
H30   H     H_    0.147880 0.320753 0.458057 0.222589
N6    N     N_3   0.910773 0.735274 0.504548 -0.592626
H31   H     H_    0.971367 0.704125 0.482629 0.239039
H32   H     H_    0.857384 0.676351 0.556173 0.221396
N7    N     N_3   0.252442 0.354466 0.637813 -0.594877
H33   H     H_    0.322162 0.379271 0.687221 0.219965
H34   H     H_    0.271659 0.401331 0.564958 0.232193
N8    N     N_3   0.760019 0.632581 0.380623 -0.598885
H35   H     H_    0.690313 0.603576 0.334319 0.216890
H36   H     H_    0.743072 0.588267 0.454574 0.235266
H37   H     H_    0.621438 0.931649 0.851202 0.173413
H38   H     H_    0.416256 0.070184 0.146334 0.180821

loop_
_geom_bond_atom_site_label_1
_geom_bond_atom_site_label_2
_ccdc_geom_bond_type
N3    H25   S    
C27   C29   A    
C1    O3    A    
C14   H13   S    
Cu1   O5    S    
C5    C56   A    
C36   C42   A    
C19   C20   A    
C18   C26   A    
C6    C55   A    
C54   H16   S    
Cu2   O2    S    
C39   C41   A    
C15   C19   A    
N7    H34   S    
C44   N4    S    
C16   C20   A    
C21   H1    S    
C37   C40   A    
C32   N2    A    
C38   C39   A    
C30   N2    A    
C31   N1    A    
C29   N1    A    
N8    H35   S    
C24   O8    A    
C27   H3    S    
Cu2   O3    S    
C9    H17   S    
C24   O6    A    
C3    C55   A    
C43   C53   A    
C32   H21   S    
C44   C46   A    
C49   C51   A    
N4    H28   S    
C50   C52   A    
C31   C33   A    
Cu2   O6    S    
C40   C42   A    
N3    H26   S    
C1    C7    S    
C4    C56   A    
C3    C24   S    
C52   C54   A    
C45   C47   A    
C41   H19   S    
C5    C48   S    
C46   C48   A    
C6    C47   S    
C1    O1    A    
C19   C22   A    
C4    C6    A    
Cu2   O7    S    
C4    C23   S    
C27   C35   A    
C56   H10   S    
C33   C37   A    
C51   C53   A    
C32   C34   A    
Cu1   N2    S    
C7    C11   A    
C37   C38   A    
C2    O4    A    
C49   N5    S    
C9    C11   A    
N5    H29   S    
C8    C12   A    
C31   H22   S    
N4    H27   S    
N6    H32   S    
C43   C45   A    
C52   N8    S    
C10   C12   A    
C9    C17   A    
N5    H30   S    
C50   N6    S    
C13   C15   A    
C45   H7    S    
C26   H12   S    
C14   C16   A    
C42   H20   S    
C2    O2    A    
C15   C17   A    
C21   C25   A    
C10   H18   S    
C8    C14   A    
C23   O7    A    
C11   H38   S    
C34   C38   A    
Cu1   O4    S    
C2    C8    S    
C30   H23   S    
C3    C5    A    
C55   H9    S    
C46   H8    S    
C13   H14   S    
C47   C49   A    
C39   H5    S    
N7    H33   S    
C40   H6    S    
C53   H15   S    
C17   C25   A    
Cu1   O1    S    
C28   C30   A    
C22   H2    S    
C33   C35   A    
Cu1   Cu2   S    
C10   C18   A    
C48   C50   A    
C43   N3    S    
N8    H36   S    
C34   C36   A    
C29   H24   S    
N6    H31   S    
C35   C41   A    
C51   N7    S    
C44   C54   A    
C7    C13   A    
C25   H11   S    
C20   C21   A    
C28   C36   A    
C16   C18   A    
C22   C26   A    
Cu1   O8    S    
C23   O5    A    
C12   H37   S    
Cu2   N1    S    
C28   H4    S    
