data_mof_unit_62365.cif
_audit_creation_date              2013-03-05T15:57:24-0500
_audit_creation_method            fapswitch 2.2
_symmetry_space_group_name_H-M    P1
_symmetry_Int_Tables_number       1
_space_group_crystal_system       triclinic
_cell_length_a                    21.637452
_cell_length_b                    21.642091
_cell_length_c                    30.231911
_cell_angle_alpha                 89.999151
_cell_angle_beta                  90.020392
_cell_angle_gamma                 90.004263
_cell_volume                      14156.9894331

loop_
_atom_site_label
_atom_site_type_symbol
_atom_site_description
_atom_site_fract_x
_atom_site_fract_y
_atom_site_fract_z
_atom_type_partial_charge
O1    O     O_R   0.448270 0.091530 0.499990 -0.582462
O2    O     O_R   0.091530 0.551730 0.499990 -0.585463
O3    O     O_R   0.551730 0.908470 0.499990 -0.583666
O4    O     O_R   0.908470 0.448270 0.499990 -0.583594
O5    O     O_R   0.448270 0.908470 0.500010 -0.583605
O6    O     O_R   0.091530 0.448270 0.500010 -0.582443
O7    O     O_R   0.551730 0.091530 0.500010 -0.585526
O8    O     O_R   0.908470 0.551730 0.500010 -0.583608
O9    O     O_R   0.948270 0.591530 0.999990 -0.582130
O10   O     O_R   0.591530 0.051730 0.999990 -0.582206
O11   O     O_R   0.051730 0.408470 0.999990 -0.583424
O12   O     O_R   0.408470 0.948270 0.999990 -0.582323
O13   O     O_R   0.948270 0.408470 0.000010 -0.583783
O14   O     O_R   0.591530 0.948270 0.000010 -0.585880
O15   O     O_R   0.051730 0.591530 0.000010 -0.585817
O16   O     O_R   0.408470 0.051730 0.000010 -0.585698
H1    H     H_    0.388480 0.889652 0.789478 0.205148
H2    H     H_    0.889610 0.611472 0.789477 0.205147
H3    H     H_    0.611521 0.110354 0.789543 0.205194
H4    H     H_    0.110287 0.388440 0.789539 0.205179
H5    H     H_    0.388704 0.110562 0.210466 0.205329
H6    H     H_    0.889691 0.388454 0.210463 0.205262
H7    H     H_    0.611241 0.889385 0.210529 0.205319
H8    H     H_    0.110396 0.611491 0.210520 0.205328
H9    H     H_    0.888465 0.389677 0.289482 0.205254
H10   H     H_    0.389892 0.111747 0.289487 0.205273
H11   H     H_    0.111583 0.610302 0.289540 0.205329
H12   H     H_    0.610019 0.888171 0.289548 0.205264
H13   H     H_    0.888398 0.610259 0.710457 0.205148
H14   H     H_    0.389708 0.888431 0.710459 0.205168
H15   H     H_    0.111524 0.389674 0.710520 0.205183
H16   H     H_    0.610335 0.111548 0.710522 0.205229
C1    C     C_R   0.500005 0.120069 0.499816 1.079850
C2    C     C_R   0.120064 0.500005 0.500184 1.079622
C3    C     C_R   0.499998 0.879932 0.500001 1.078227
C4    C     C_R   0.879937 0.499998 0.500000 1.077981
C5    C     C_R   0.000007 0.620069 0.999812 1.079717
C6    C     C_R   0.620062 0.999997 0.999809 1.079290
C7    C     C_R   0.999997 0.379930 0.999999 1.077946
C8    C     C_R   0.379939 0.000002 0.999813 1.079425
O17   O     O_R   0.448270 0.999890 0.566070 -0.589255
O18   O     O_R   0.999890 0.551730 0.566070 -0.589457
O19   O     O_R   0.551730 0.000110 0.566070 -0.588793
O20   O     O_R   0.000110 0.448270 0.566070 -0.589554
O21   O     O_R   0.448270 0.000110 0.433930 -0.589687
O22   O     O_R   0.999890 0.448270 0.433930 -0.589174
O23   O     O_R   0.551730 0.999890 0.433930 -0.589521
O24   O     O_R   0.000110 0.551730 0.433930 -0.588719
O25   O     O_R   0.948270 0.499890 0.066070 -0.589226
O26   O     O_R   0.499890 0.051730 0.066070 -0.588566
O27   O     O_R   0.051730 0.500110 0.066070 -0.588763
O28   O     O_R   0.500110 0.948270 0.066070 -0.588522
O29   O     O_R   0.948270 0.500110 0.933930 -0.589612
O30   O     O_R   0.499890 0.948270 0.933930 -0.589638
O31   O     O_R   0.051730 0.499890 0.933930 -0.589414
O32   O     O_R   0.500110 0.051730 0.933930 -0.589716
C9    C     C_R   0.499909 0.186341 0.499534 -0.183937
C10   C     C_R   0.186335 0.499912 0.500460 -0.183970
C11   C     C_R   0.499993 0.813674 0.500003 -0.184154
C12   C     C_R   0.813680 0.499998 0.500004 -0.184244
C13   C     C_R   0.999920 0.686339 0.999535 -0.183777
C14   C     C_R   0.686331 0.000093 0.999523 -0.183775
C15   C     C_R   0.999989 0.313668 0.000002 -0.184081
C16   C     C_R   0.313672 0.999907 0.999537 -0.183838
C17   C     C_R   0.500010 0.000004 0.586685 0.989984
C18   C     C_R   0.000001 0.499999 0.586682 0.989124
C19   C     C_R   0.499990 0.999995 0.413316 0.989415
C20   C     C_R   0.000008 0.500001 0.413317 0.989823
C21   C     C_R   0.000011 0.500004 0.086685 0.989962
C22   C     C_R   0.500001 0.999999 0.086685 0.990228
C23   C     C_R   0.999989 0.499997 0.913314 0.989191
C24   C     C_R   0.499997 0.000001 0.913317 0.988893
Zn1   Zn    Zn3+2 0.430930 1.000000 0.500000 1.169769
Zn2   Zn    Zn3+2 1.000000 0.569070 0.500000 1.166465
Zn3   Zn    Zn3+2 0.569070 1.000000 0.500000 1.166413
Zn4   Zn    Zn3+2 1.000000 0.430930 0.500000 1.169825
Zn5   Zn    Zn3+2 0.930930 0.500000 0.000000 1.169923
Zn6   Zn    Zn3+2 0.500000 0.069070 0.000000 1.169207
Zn7   Zn    Zn3+2 0.069070 0.500000 0.000000 1.166554
Zn8   Zn    Zn3+2 0.500000 0.930930 0.000000 1.169158
C25   C     C_R   0.540261 0.282349 0.470917 0.280668
C26   C     C_R   0.282319 0.459448 0.471980 0.279719
C27   C     C_R   0.461027 0.717739 0.470419 0.282076
C28   C     C_R   0.717729 0.538959 0.470429 0.281210
C29   C     C_R   0.538962 0.717744 0.529587 0.281187
C30   C     C_R   0.282365 0.540276 0.529073 0.280720
C31   C     C_R   0.459428 0.282331 0.527995 0.279737
C32   C     C_R   0.717753 0.461067 0.529602 0.282095
C33   C     C_R   0.040279 0.782348 0.970921 0.278624
C34   C     C_R   0.782325 0.959770 0.970874 0.278794
C35   C     C_R   0.960953 0.217730 0.970464 0.279277
C36   C     C_R   0.217652 0.040202 0.970871 0.280833
C37   C     C_R   0.039009 0.217736 0.029550 0.281807
C38   C     C_R   0.782348 0.040510 0.028032 0.281697
C39   C     C_R   0.959483 0.782328 0.028026 0.282233
C40   C     C_R   0.217686 0.959543 0.028091 0.282285
C41   C     C_R   0.500634 0.313600 0.500055 -0.200871
C42   C     C_R   0.313601 0.500651 0.499927 -0.200945
C43   C     C_R   0.499997 0.686423 0.500001 -0.201787
C44   C     C_R   0.686422 0.500014 0.500017 -0.201909
C45   C     C_R   0.000662 0.813598 0.000065 -0.200730
C46   C     C_R   0.813597 0.999357 0.000045 -0.201024
C47   C     C_R   0.999985 0.186417 0.000004 -0.202431
C48   C     C_R   0.186407 0.000661 0.000077 -0.200060
C49   C     C_R   0.379886 0.500260 0.499998 1.041268
C50   C     C_R   0.500000 0.620127 0.500000 1.037862
C51   C     C_R   0.620126 0.500004 0.500006 1.037862
C52   C     C_R   0.500255 0.379885 0.499996 1.041222
C53   C     C_R   0.879885 0.999733 0.999990 1.040926
C54   C     C_R   0.999992 0.120125 0.000000 1.038580
C55   C     C_R   0.120116 0.000267 0.000003 1.040506
C56   C     C_R   0.000271 0.879884 0.999997 1.041426
C57   C     C_R   0.540155 0.040003 0.842768 0.230105
C58   C     C_R   0.039945 0.459802 0.842767 0.230066
C59   C     C_R   0.459838 0.960004 0.842746 0.230119
C60   C     C_R   0.959968 0.540129 0.842744 0.230118
C61   C     C_R   0.540047 0.959893 0.157261 0.228649
C62   C     C_R   0.040055 0.540123 0.157255 0.228714
C63   C     C_R   0.459935 0.040088 0.157239 0.228481
C64   C     C_R   0.960039 0.459821 0.157233 0.230120
C65   C     C_R   0.040172 0.540001 0.342768 0.228562
C66   C     C_R   0.539864 0.959718 0.342775 0.230041
C67   C     C_R   0.959841 0.460013 0.342749 0.229962
C68   C     C_R   0.460053 0.040210 0.342752 0.230245
C69   C     C_R   0.040161 0.460012 0.657253 0.230305
C70   C     C_R   0.540033 0.040142 0.657254 0.228554
C71   C     C_R   0.959801 0.539956 0.657229 0.230109
C72   C     C_R   0.460041 0.959816 0.657231 0.229951
C73   C     C_R   0.499996 0.000003 0.865477 -0.276400
C74   C     C_R   0.999966 0.499975 0.865475 -0.276808
C75   C     C_R   0.499996 0.999996 0.134528 -0.279214
C76   C     C_R   0.000036 0.499984 0.134525 -0.278197
C77   C     C_R   0.000009 0.500005 0.365478 -0.278122
C78   C     C_R   0.499967 0.999974 0.365480 -0.276762
C79   C     C_R   0.999991 0.499993 0.634522 -0.276765
C80   C     C_R   0.500031 0.999987 0.634524 -0.278215
C81   C     C_R   0.459991 0.959682 0.796464 -0.000323
C82   C     C_R   0.959641 0.539974 0.796462 -0.000258
C83   C     C_R   0.540013 0.040321 0.796486 -0.000343
C84   C     C_R   0.040270 0.459952 0.796485 -0.000340
C85   C     C_R   0.460064 0.040387 0.203521 -0.000882
C86   C     C_R   0.959718 0.459967 0.203515 -0.000476
C87   C     C_R   0.539893 0.959571 0.203543 -0.000885
C88   C     C_R   0.040365 0.539982 0.203536 -0.000801
C89   C     C_R   0.959999 0.459684 0.296467 -0.000455
C90   C     C_R   0.459739 0.040069 0.296471 -0.000381
C91   C     C_R   0.040042 0.540302 0.296487 -0.000785
C92   C     C_R   0.540181 0.959858 0.296494 -0.000382
C93   C     C_R   0.959941 0.540272 0.703511 -0.000321
C94   C     C_R   0.459713 0.959967 0.703513 -0.000383
C95   C     C_R   0.039997 0.459677 0.703534 -0.000344
C96   C     C_R   0.540334 0.040009 0.703536 -0.000708
C97   C     C_R   0.500006 1.000000 0.773280 0.030659
C98   C     C_R   0.999959 0.499966 0.773278 0.030743
C99   C     C_R   0.499973 0.999974 0.226727 0.030696
C100  C     C_R   0.000036 0.499979 0.226721 0.030613
C101  C     C_R   0.000028 0.499986 0.273281 0.030660
C102  C     C_R   0.499964 0.999967 0.273287 0.030590
C103  C     C_R   0.999965 0.499972 0.726718 0.030701
C104  C     C_R   0.500016 0.999993 0.726720 0.030691
C105  C     C_R   0.420243 0.920496 0.772869 -0.126451
C106  C     C_R   0.920456 0.579717 0.772868 -0.126386
C107  C     C_R   0.579768 0.079503 0.772915 -0.126264
C108  C     C_R   0.079451 0.420204 0.772912 -0.126427
C109  C     C_R   0.420391 0.079646 0.227093 -0.126888
C110  C     C_R   0.920533 0.420217 0.227089 -0.126373
C111  C     C_R   0.579549 0.920297 0.227138 -0.126904
C112  C     C_R   0.079546 0.579735 0.227130 -0.126698
C113  C     C_R   0.920240 0.420509 0.272873 -0.126420
C114  C     C_R   0.420661 0.079916 0.272877 -0.126058
C115  C     C_R   0.079815 0.579465 0.272913 -0.126726
C116  C     C_R   0.579260 0.920010 0.272921 -0.126202
C117  C     C_R   0.920171 0.579431 0.727084 -0.126484
C118  C     C_R   0.420538 0.920205 0.727086 -0.126579
C119  C     C_R   0.079751 0.420503 0.727129 -0.126294
C120  C     C_R   0.579497 0.079778 0.727131 -0.127026
O33   O     O_R   0.408290 0.499920 0.462700 -0.587092
O34   O     O_R   0.499920 0.591710 0.462700 -0.588767
O35   O     O_R   0.591710 0.500080 0.462700 -0.588557
O36   O     O_R   0.500080 0.408290 0.462700 -0.590809
O37   O     O_R   0.408290 0.500080 0.537300 -0.590851
O38   O     O_R   0.499920 0.408290 0.537300 -0.587107
O39   O     O_R   0.591710 0.499920 0.537300 -0.588803
O40   O     O_R   0.500080 0.591710 0.537300 -0.588592
O41   O     O_R   0.908290 0.999920 0.962700 -0.590805
O42   O     O_R   0.999920 0.091710 0.962700 -0.588295
O43   O     O_R   0.091710 0.000080 0.962700 -0.591167
O44   O     O_R   0.000080 0.908290 0.962700 -0.590831
O45   O     O_R   0.908290 0.000080 0.037300 -0.587218
O46   O     O_R   0.999920 0.908290 0.037300 -0.587437
O47   O     O_R   0.091710 0.999920 0.037300 -0.587715
O48   O     O_R   0.000080 0.091710 0.037300 -0.588602
C121  C     C_R   0.540871 0.217586 0.471359 0.302070
C122  C     C_R   0.217580 0.460586 0.471162 0.299474
C123  C     C_R   0.458758 0.782380 0.472045 0.300641
C124  C     C_R   0.782379 0.541212 0.472044 0.300644
C125  C     C_R   0.541227 0.782385 0.527963 0.300639
C126  C     C_R   0.217594 0.540873 0.528642 0.301973
C127  C     C_R   0.460570 0.217601 0.528817 0.299381
C128  C     C_R   0.782401 0.458794 0.527973 0.300592
C129  C     C_R   0.040878 0.717584 0.971355 0.301505
C130  C     C_R   0.717553 0.959172 0.971309 0.301544
C131  C     C_R   0.958694 0.282372 0.972087 0.300062
C132  C     C_R   0.282423 0.040794 0.971299 0.301912
C133  C     C_R   0.041274 0.282377 0.027924 0.300599
C134  C     C_R   0.717610 0.039369 0.028852 0.299519
C135  C     C_R   0.960616 0.717598 0.028840 0.299517
C136  C     C_R   0.282426 0.960674 0.028899 0.299535
Zn9   Zn    Zn3+2 0.500000 0.500000 0.450200 1.122116
Zn10  Zn    Zn3+2 0.500000 0.500000 0.549800 1.121968
Zn11  Zn    Zn3+2 1.000000 0.000000 0.950200 1.117226
Zn12  Zn    Zn3+2 1.000000 0.000000 0.049800 1.128631
O49   O     O_3   0.580575 0.183664 0.445005 -0.713618
H17   H     H_    0.619143 0.207526 0.440633 0.361707
O50   O     O_3   0.183686 0.426145 0.441195 -0.714742
H18   H     H_    0.208929 0.419287 0.414318 0.365061
O51   O     O_3   0.418031 0.816110 0.446350 -0.713144
H19   H     H_    0.380105 0.791352 0.441617 0.362245
O52   O     O_3   0.816110 0.581903 0.446337 -0.713250
H20   H     H_    0.791362 0.619828 0.441609 0.362101
O53   O     O_3   0.581951 0.816121 0.553660 -0.713286
H21   H     H_    0.619878 0.791370 0.558394 0.362072
O54   O     O_3   0.183677 0.580561 0.555011 -0.713725
H22   H     H_    0.207535 0.619129 0.559384 0.361708
O55   O     O_3   0.426121 0.183732 0.558777 -0.714798
H23   H     H_    0.419261 0.208986 0.585651 0.365018
O56   O     O_3   0.816153 0.418096 0.553673 -0.713248
H24   H     H_    0.791394 0.380180 0.558410 0.362224
O57   O     O_3   0.080566 0.683661 0.944990 -0.713700
H25   H     H_    0.119139 0.707514 0.940620 0.361366
O58   O     O_3   0.683598 0.919519 0.944917 -0.713705
H26   H     H_    0.707445 0.880957 0.940516 0.361377
O59   O     O_3   0.917918 0.316099 0.946430 -0.713242
H27   H     H_    0.879976 0.291347 0.941748 0.361785
O60   O     O_3   0.316352 0.080407 0.944875 -0.713777
H28   H     H_    0.292501 0.118963 0.940444 0.361698
O61   O     O_3   0.082047 0.316108 0.053584 -0.713198
H29   H     H_    0.119983 0.291357 0.058277 0.362295
O62   O     O_3   0.683752 0.073755 0.058852 -0.714745
H30   H     H_    0.709016 0.080544 0.085741 0.364886
O63   O     O_3   0.926190 0.683726 0.058812 -0.714598
H31   H     H_    0.919382 0.708966 0.085699 0.364885
O64   O     O_3   0.316321 0.926319 0.058913 -0.714686
H32   H     H_    0.291092 0.919564 0.085811 0.364904
O65   O     O_3   0.577334 0.316263 0.442661 -0.725447
H33   H     H_    0.583614 0.292422 0.415070 0.364110
O66   O     O_3   0.316185 0.417327 0.447552 -0.726912
H34   H     H_    0.290842 0.379832 0.442667 0.360608
O67   O     O_3   0.425208 0.684042 0.441198 -0.723410
H35   H     H_    0.418784 0.708786 0.414024 0.364516
O68   O     O_3   0.684014 0.574765 0.441214 -0.724306
H36   H     H_    0.708739 0.581159 0.414033 0.364522
O69   O     O_3   0.574780 0.684051 0.558808 -0.724348
H37   H     H_    0.581198 0.708794 0.585984 0.364493
O70   O     O_3   0.316302 0.577354 0.557328 -0.725476
H38   H     H_    0.292479 0.583632 0.584926 0.364069
O71   O     O_3   0.417300 0.316200 0.552414 -0.726955
H39   H     H_    0.379797 0.290865 0.557291 0.360591
O72   O     O_3   0.684062 0.425271 0.558823 -0.723449
H40   H     H_    0.708822 0.418868 0.585999 0.364470
O73   O     O_3   0.077352 0.816264 0.942666 -0.726277
H41   H     H_    0.083632 0.792426 0.915073 0.364260
O74   O     O_3   0.816228 0.922724 0.942596 -0.726161
H42   H     H_    0.792372 0.916472 0.914997 0.364250
O75   O     O_3   0.925069 0.184027 0.941288 -0.724963
H43   H     H_    0.918578 0.208768 0.914121 0.364689
O76   O     O_3   0.183726 0.077209 0.942564 -0.725419
H44   H     H_    0.207548 0.083402 0.914955 0.364019
O77   O     O_3   0.074881 0.184039 0.058735 -0.723481
H45   H     H_    0.081355 0.208781 0.085904 0.364566
O78   O     O_3   0.816241 0.082584 0.052503 -0.726372
H46   H     H_    0.790903 0.120062 0.057440 0.361297
O79   O     O_3   0.917386 0.816195 0.052475 -0.725595
H47   H     H_    0.879893 0.790858 0.057384 0.361586
O80   O     O_3   0.183818 0.917505 0.052595 -0.725583
H48   H     H_    0.209157 0.880029 0.057553 0.361536
N1    N     N_R   0.582352 0.078691 0.866868 0.210486
O81   O     O_R   0.625620 0.054019 0.890988 -0.376144
O82   O     O_R   0.574758 0.138323 0.867196 -0.349124
N2    N     N_R   0.078607 0.417588 0.866869 0.210519
O83   O     O_R   0.138260 0.425127 0.867201 -0.349366
O84   O     O_R   0.053892 0.374393 0.891014 -0.378019
N3    N     N_R   0.417637 0.921316 0.866823 0.210477
O85   O     O_R   0.425216 0.861682 0.867142 -0.349121
O86   O     O_R   0.374393 0.945989 0.890941 -0.376189
N4    N     N_R   0.921291 0.582331 0.866823 0.210473
O87   O     O_R   0.861642 0.574759 0.867136 -0.349045
O88   O     O_R   0.945988 0.625574 0.890944 -0.376143
N5    N     N_R   0.582136 0.921085 0.133189 0.210977
O89   O     O_R   0.574383 0.861472 0.132878 -0.348593
O90   O     O_R   0.625466 0.945630 0.109081 -0.382790
N6    N     N_R   0.078795 0.582274 0.133177 0.210904
O91   O     O_R   0.138437 0.574655 0.132899 -0.348688
O92   O     O_R   0.054168 0.625532 0.109037 -0.382981
N7    N     N_R   0.417859 0.078909 0.133144 0.211044
O93   O     O_R   0.425619 0.138522 0.132847 -0.348441
O94   O     O_R   0.374523 0.054379 0.109012 -0.382296
N8    N     N_R   0.921362 0.417614 0.133133 0.210511
O95   O     O_R   0.946061 0.374414 0.108990 -0.378596
O96   O     O_R   0.861711 0.425161 0.132806 -0.349341
N9    N     N_R   0.082333 0.578731 0.366867 0.210950
O97   O     O_R   0.125591 0.554106 0.391018 -0.382418
O98   O     O_R   0.074722 0.638361 0.367151 -0.348508
N10   N     N_R   0.578450 0.917439 0.366881 0.210471
O99   O     O_R   0.638119 0.924851 0.367191 -0.349345
O100  O     O_R   0.553659 0.874309 0.391045 -0.378175
N11   N     N_R   0.917616 0.421354 0.366828 0.210546
O101  O     O_R   0.925157 0.361715 0.367148 -0.349129
O102  O     O_R   0.874405 0.446057 0.390962 -0.377936
N12   N     N_R   0.421451 0.082477 0.366834 0.210375
O103  O     O_R   0.361785 0.075033 0.367123 -0.349039
O104  O     O_R   0.446222 0.125656 0.390974 -0.376843
N13   N     N_R   0.082385 0.421357 0.633176 0.210425
O105  O     O_R   0.074828 0.361718 0.632845 -0.349248
O106  O     O_R   0.125623 0.446062 0.609066 -0.376795
N14   N     N_R   0.578766 0.082301 0.633177 0.210934
O107  O     O_R   0.638410 0.074702 0.632908 -0.348760
O108  O     O_R   0.554130 0.125545 0.609029 -0.382462
N15   N     N_R   0.917576 0.578606 0.633126 0.210527
O109  O     O_R   0.925110 0.638248 0.632813 -0.349581
O110  O     O_R   0.874370 0.553894 0.608967 -0.378151
N16   N     N_R   0.421380 0.917597 0.633130 0.210547
O111  O     O_R   0.446094 0.874403 0.608988 -0.378000
O112  O     O_R   0.361726 0.925125 0.632800 -0.349410

loop_
_geom_bond_atom_site_label_1
_geom_bond_atom_site_label_2
_geom_bond_distance
_ccdc_geom_bond_type
N16   O112  1.301039 A    
O4    C4    1.278496 A    
C55   O47   1.284423 A    
O54   H22   0.990234 S    
C70   N14   1.437008 S    
N9    O97   1.301064 A    
C66   N10   1.437028 S    
C135  O63   1.383344 S    
C40   C136  1.401229 A    
O78   H46   0.990393 S    
O46   Zn12  2.020459 S    
O62   H30   0.990417 S    
O32   C24   1.281299 A    
C65   C91   1.399201 A    
C66   C92   1.399210 A    
C33   C45   1.403288 A    
O2    C2    1.278456 A    
C16   C132  1.403054 A    
C70   C80   1.405733 A    
O25   C21   1.281138 A    
O42   Zn11  2.020457 S    
C27   O67   1.382878 S    
C99   C102  1.407589 A    
C26   C42   1.402364 A    
O19   Zn3   2.032487 S    
N12   O104  1.301085 A    
C28   C44   1.403453 A    
O24   Zn2   2.032380 S    
O68   H36   0.990409 S    
C16   C136  1.402249 A    
C49   O33   1.284412 A    
C122  O50   1.383353 S    
C11   C123  1.403063 A    
N14   O107  1.301038 A    
C128  O56   1.382928 S    
O12   C8    1.278567 A    
O50   H18   0.990416 S    
O57   H25   0.990233 S    
C63   N7    1.437005 S    
O14   C6    1.278413 A    
C89   C101  1.415124 A    
O56   H24   0.990373 S    
O8    Zn2   2.015689 S    
C81   C97   1.415124 A    
C82   C106  1.402558 A    
O9    Zn5   2.016089 S    
O11   Zn7   2.016092 S    
C30   C126  1.401587 A    
H7    C111  1.081783 S    
C72   C94   1.399209 A    
O43   Zn11  2.019901 S    
C40   C48   1.402443 A    
C63   C85   1.399201 A    
C33   O73   1.382859 S    
N8    O95   1.301100 A    
O29   C23   1.281124 A    
C51   O35   1.284365 A    
C35   C47   1.403413 A    
O17   C17   1.281124 A    
C121  O49   1.382887 S    
O10   C6    1.278591 A    
C34   C46   1.403262 A    
N6    O92   1.301071 A    
C126  O54   1.382895 S    
O26   C22   1.281326 A    
C23   C74   1.446283 S    
C81   C105  1.402554 A    
C105  C118  1.384145 A    
C34   C130  1.401622 A    
C27   C123  1.400692 A    
C12   C128  1.403031 A    
C25   C121  1.401725 A    
H6    C110  1.081779 S    
C60   C74   1.405729 A    
H10   C114  1.081783 S    
C51   O39   1.284407 A    
C2    C10   1.433967 S    
C46   C53   1.434323 S    
O27   C21   1.281115 A    
C86   C100  1.415117 A    
C35   O75   1.382883 S    
H14   C118  1.081780 S    
O31   C23   1.281131 A    
C130  O58   1.382891 S    
C6    C14   1.433919 S    
N4    O88   1.301085 A    
N15   O110  1.301098 A    
C38   C134  1.401199 A    
C136  O64   1.383353 S    
C31   O71   1.383402 S    
O10   Zn6   2.015742 S    
N7    O94   1.301067 A    
C45   C56   1.434599 S    
O67   H35   0.990410 S    
C15   C131  1.403115 A    
C47   C54   1.434693 S    
C3    C11   1.433957 S    
C20   C77   1.446280 S    
C125  O53   1.382923 S    
O73   H41   0.990260 S    
N13   O106  1.301087 A    
O38   Zn10  2.020459 S    
O32   Zn6   2.032380 S    
C108  C119  1.384143 A    
O71   H39   0.990396 S    
O20   Zn4   2.032375 S    
O48   Zn12  2.020446 S    
C69   C95   1.399209 A    
C32   O72   1.382884 S    
C70   C96   1.399206 A    
H12   C116  1.081780 S    
C112  C115  1.384136 A    
O15   Zn7   2.016144 S    
C59   C81   1.399213 A    
C63   C75   1.405792 A    
C57   C83   1.399200 A    
C58   C84   1.399217 A    
O3    Zn3   2.016092 S    
O59   H27   0.990374 S    
C129  O57   1.382880 S    
O61   H29   0.990374 S    
C9    C127  1.402348 A    
C28   O68   1.382892 S    
O79   H47   0.990392 S    
O7    C1    1.278376 A    
C67   C89   1.399223 A    
C19   C78   1.446177 S    
N2    O83   1.301039 A    
C36   C48   1.403320 A    
C59   N3    1.437011 S    
O51   H19   0.990373 S    
C68   C90   1.399202 A    
N15   O109  1.301040 A    
O37   Zn10  2.019904 S    
C95   C103  1.415120 A    
C88   C100  1.415123 A    
O22   C20   1.281311 A    
O53   H21   0.990371 S    
C29   C43   1.403471 A    
C86   C110  1.402556 A    
C127  O55   1.383348 S    
C87   C99   1.415101 A    
O3    C3    1.278404 A    
N5    O89   1.301038 A    
C37   O77   1.382882 S    
H3    C107  1.081783 S    
C92   C116  1.402544 A    
C87   C111  1.402567 A    
H1    C105  1.081782 S    
C123  O51   1.382917 S    
C124  O52   1.382931 S    
C43   C50   1.434769 S    
C54   O42   1.284459 A    
C61   N5    1.437012 S    
O45   Zn12  2.019904 S    
O76   H44   0.990267 S    
O6    Zn4   2.015687 S    
C90   C102  1.415133 A    
C84   C108  1.402554 A    
C85   C109  1.402565 A    
C68   C78   1.405685 A    
C97   C104  1.407589 A    
N1    O82   1.301040 A    
O23   Zn3   2.032228 S    
C98   C103  1.407598 A    
O15   C5    1.278336 A    
C71   C93   1.399227 A    
C69   C79   1.405731 A    
O41   Zn11  2.020168 S    
C28   C124  1.400535 A    
O5    C3    1.278403 A    
O25   Zn5   2.032225 S    
O5    Zn1   2.016146 S    
C61   C75   1.405797 A    
O27   Zn7   2.032487 S    
C62   C76   1.405738 A    
C56   O46   1.284438 A    
N3    O85   1.301041 A    
C49   O37   1.284122 A    
C82   C98   1.415122 A    
O65   H33   0.990264 S    
C50   O34   1.284468 A    
O72   H40   0.990411 S    
C58   C74   1.405728 A    
O80   H48   0.990393 S    
C31   C127  1.401345 A    
O74   H42   0.990263 S    
C106  C117  1.384151 A    
O49   H17   0.990232 S    
O39   Zn10  2.020166 S    
C94   C104  1.415123 A    
C67   C77   1.405737 A    
C71   C79   1.405723 A    
C72   C80   1.405738 A    
C83   C97   1.415117 A    
O64   H32   0.990416 S    
H4    C108  1.081779 S    
H5    C109  1.081783 S    
N14   O108  1.301067 A    
O8    C4    1.278482 A    
C14   C130  1.403111 A    
C71   N15   1.437019 S    
O21   C19   1.281097 A    
O60   H28   0.990234 S    
C68   N12   1.437005 S    
C134  O62   1.383356 S    
C36   C132  1.401583 A    
N16   O111  1.301103 A    
C27   C43   1.403469 A    
O77   H45   0.990407 S    
C62   N6    1.437009 S    
N8    O96   1.301038 A    
O26   Zn6   2.032366 S    
O30   Zn8   2.032367 S    
N9    O98   1.301037 A    
C39   C135  1.401335 A    
C89   C113  1.402555 A    
O18   Zn2   2.032366 S    
C95   C119  1.402553 A    
N11   O101  1.301039 A    
O52   H20   0.990375 S    
C85   C99   1.415102 A    
C10   C122  1.402317 A    
O6    C2    1.278573 A    
O29   Zn5   2.032490 S    
O31   Zn7   2.032228 S    
O19   C17   1.281120 A    
C24   C73   1.446301 S    
O24   C20   1.281275 A    
C133  O61   1.382919 S    
C50   O40   1.284454 A    
C32   C44   1.403438 A    
C13   C135  1.402309 A    
C29   C125  1.400684 A    
C57   N1    1.436998 S    
N7    O93   1.301039 A    
C109  C114  1.384139 A    
N12   O103  1.301038 A    
N6    O91   1.301038 A    
H8    C112  1.081785 S    
O40   Zn10  2.020446 S    
C111  C116  1.384141 A    
C53   O41   1.284209 A    
C55   O43   1.284169 A    
C39   O79   1.383407 S    
O1    Zn1   2.016089 S    
C32   C128  1.400572 A    
H2    C106  1.081782 S    
N13   O105  1.301039 A    
O69   H37   0.990408 S    
C83   C107  1.402553 A    
O36   Zn9   2.020448 S    
C30   C42   1.403276 A    
C26   C122  1.401230 A    
C17   C80   1.446264 S    
C18   C79   1.446280 S    
C15   C133  1.403089 A    
O28   Zn8   2.032375 S    
C35   C131  1.400700 A    
C33   C129  1.401737 A    
C96   C104  1.415126 A    
N3    O86   1.301082 A    
O20   C18   1.281280 A    
C37   C133  1.400680 A    
O22   Zn4   2.032367 S    
O1    C1    1.278480 A    
H15   C119  1.081781 S    
H16   C120  1.081787 S    
C42   C49   1.434276 S    
C57   C73   1.405732 A    
C26   O66   1.383410 S    
C88   C112  1.402552 A    
C67   N11   1.437026 S    
C100  C101  1.407595 A    
C61   C87   1.399210 A    
N2    O84   1.301099 A    
O63   H31   0.990417 S    
C132  O60   1.382900 S    
C62   C88   1.399207 A    
N4    O87   1.301038 A    
O44   Zn11  2.020448 S    
C52   O36   1.284216 A    
O21   Zn1   2.032490 S    
O33   Zn9   2.020168 S    
C13   C129  1.403153 A    
C36   O76   1.382868 S    
C66   C78   1.405694 A    
C53   O45   1.284353 A    
C60   N4    1.437002 S    
O14   Zn8   2.015687 S    
O75   H43   0.990405 S    
C93   C117  1.402553 A    
O2    Zn2   2.015742 S    
C58   N2    1.437025 S    
O47   Zn12  2.020166 S    
C41   C52   1.434578 S    
C107  C120  1.384143 A    
O23   C19   1.281100 A    
C91   C115  1.402556 A    
C60   C82   1.399213 A    
O13   Zn5   2.016146 S    
O4    Zn4   2.015744 S    
C25   O65   1.382858 S    
C64   C86   1.399217 A    
C69   N13   1.437009 S    
O7    Zn3   2.016144 S    
C30   O70   1.382868 S    
O17   Zn1   2.032225 S    
C65   N9    1.437008 S    
O34   Zn9   2.020457 S    
C9    C121  1.403134 A    
N10   O100  1.301098 A    
N11   O102  1.301102 A    
O9    C5    1.278508 A    
O55   H23   0.990416 S    
C92   C102  1.415132 A    
O11   C7    1.278436 A    
C34   O74   1.382864 S    
C93   C103  1.415133 A    
C64   N8    1.437027 S    
N10   O99   1.301038 A    
C94   C118  1.402557 A    
O16   C8    1.278408 A    
C90   C114  1.402540 A    
O70   H38   0.990265 S    
C91   C101  1.415115 A    
H11   C115  1.081785 S    
C12   C124  1.403021 A    
C59   C73   1.405740 A    
H9    C113  1.081778 S    
C10   C126  1.403098 A    
C44   C51   1.434472 S    
C1    C9    1.434274 S    
C64   C76   1.405740 A    
H13   C117  1.081781 S    
C4    C12   1.433644 S    
C56   O44   1.284267 A    
C48   C55   1.434379 S    
C5    C13   1.434256 S    
O66   H34   0.990397 S    
C7    C15   1.434035 S    
O35   Zn9   2.019901 S    
C29   O69   1.382881 S    
C8    C16   1.433865 S    
C52   O38   1.284476 A    
C25   C41   1.403299 A    
C11   C125  1.403057 A    
C21   C76   1.446279 S    
C38   O78   1.383419 S    
O12   Zn8   2.015744 S    
C54   O48   1.284419 A    
C22   C75   1.446385 S    
N5    O90   1.301072 A    
C72   N16   1.437030 S    
O16   Zn6   2.015689 S    
C14   C134  1.402247 A    
O13   C7    1.278412 A    
O28   C22   1.281322 A    
C96   C120  1.402558 A    
C131  O59   1.382915 S    
C39   C45   1.402444 A    
O30   C24   1.281305 A    
C110  C113  1.384148 A    
O58   H26   0.990233 S    
O18   C18   1.281307 A    
C40   O80   1.383412 S    
C65   C77   1.405745 A    
N1    O81   1.301088 A    
C38   C46   1.402434 A    
C84   C98   1.415131 A    
C37   C47   1.403436 A    
C31   C41   1.402402 A    
