data_mof_unit_57081.cif
_audit_creation_date              2012-12-10T20:41:49-0500
_audit_creation_method            fapswitch 2.2
_symmetry_space_group_name_H-M    P1
_symmetry_Int_Tables_number       1
_space_group_crystal_system       triclinic
_cell_length_a                    15.018524
_cell_length_b                    15.06397
_cell_length_c                    9.956223
_cell_angle_alpha                 91.185022
_cell_angle_beta                  91.276396
_cell_angle_gamma                 90.191773
_cell_volume                      2251.42502739

loop_
_atom_site_label
_atom_site_type_symbol
_atom_type_description
_atom_site_fract_x
_atom_site_fract_y
_atom_site_fract_z
_atom_type_partial_charge
C1    C     C_R   0.379398 0.881124 0.498394 0.876951
C2    C     C_R   0.382407 0.122224 0.500164 0.871238
C3    C     C_R   0.879301 0.381214 0.498420 0.879126
C4    C     C_R   0.882341 0.622104 0.500185 0.871671
C5    C     C_3   0.257365 0.187050 0.738780 -0.496596
C6    C     C_3   0.181896 0.887468 0.618502 -0.505493
C7    C     C_3   0.752637 0.681734 0.735071 -0.491834
C8    C     C_3   0.683537 0.386061 0.625596 -0.504510
C9    C     C_R   0.438079 0.952537 0.067045 0.209286
C10   C     C_R   0.942985 0.446737 0.067058 0.204923
C11   C     C_R   0.566570 0.038275 0.078520 -0.173255
C12   C     C_R   0.061613 0.545863 0.078482 -0.170478
C13   C     C_R   0.567728 0.039975 0.936064 0.109650
C14   C     C_R   0.062601 0.547300 0.936288 0.158736
C15   C     C_R   0.438420 0.951885 0.925443 0.201507
C16   C     C_R   0.943249 0.446317 0.925330 0.196553
C17   C     C_3   0.339720 0.960718 0.917054 -0.519494
C18   C     C_3   0.844076 0.446597 0.916803 -0.515678
C19   C     C_3   0.339573 0.962436 0.069791 -0.500948
C20   C     C_3   0.843897 0.447644 0.069452 -0.498710
C21   C     C_R   0.620456 0.118902 0.501568 0.871838
C22   C     C_R   0.622200 0.882468 0.500227 0.863793
C23   C     C_R   0.120535 0.618838 0.501618 0.865576
C24   C     C_R   0.122438 0.382720 0.500198 0.866323
C25   C     C_R   0.297270 0.233222 0.622870 0.142366
C26   C     C_R   0.250060 0.816878 0.595151 0.134217
C27   C     C_R   0.794534 0.730380 0.623146 0.143102
C28   C     C_R   0.751135 0.315748 0.597037 0.128460
C29   C     C_R   0.327910 0.199124 0.501354 -0.107587
C30   C     C_R   0.314450 0.813860 0.496968 -0.086447
C31   C     C_R   0.827410 0.698573 0.501750 -0.106586
C32   C     C_R   0.814372 0.313920 0.497083 -0.087165
C33   C     C_R   0.307529 0.242661 0.381364 -0.232793
C34   C     C_R   0.322339 0.740350 0.410198 -0.232297
C35   C     C_R   0.808777 0.743851 0.382738 -0.233831
C36   C     C_R   0.821384 0.241233 0.408501 -0.234763
C37   C     C_R   0.744016 0.808928 0.382814 -0.227169
C38   C     C_R   0.758573 0.174160 0.412726 -0.226419
C39   C     C_R   0.242920 0.307876 0.381419 -0.227662
C40   C     C_R   0.259504 0.673299 0.414564 -0.230241
C41   C     C_R   0.698878 0.827667 0.501892 -0.101926
C42   C     C_R   0.690130 0.181219 0.505498 -0.077470
C43   C     C_R   0.199613 0.328527 0.501465 -0.105362
C44   C     C_R   0.190283 0.681124 0.505863 -0.087225
C45   C     C_R   0.730732 0.794574 0.623237 0.116593
C46   C     C_R   0.689078 0.249420 0.601210 0.098977
C47   C     C_R   0.233612 0.297618 0.622938 0.123874
C48   C     C_R   0.188081 0.750389 0.599808 0.098256
C49   C     C_3   0.681787 0.753178 0.735292 -0.473988
C50   C     C_3   0.615189 0.312233 0.631853 -0.486782
C51   C     C_3   0.186816 0.258755 0.739071 -0.470804
C52   C     C_3   0.113641 0.813693 0.625387 -0.489779
H1    H     H_    0.336026 0.222202 0.286672 0.172690
H2    H     H_    0.375573 0.735774 0.338685 0.158428
H3    H     H_    0.838983 0.725000 0.288602 0.172058
H4    H     H_    0.873889 0.237317 0.335702 0.158652
H5    H     H_    0.318916 0.027400 0.113883 0.212324
H6    H     H_    0.306615 0.903423 0.112242 0.205257
H7    H     H_    0.817381 0.510250 0.113934 0.212400
H8    H     H_    0.816434 0.385717 0.111428 0.205499
H9    H     H_    0.725194 0.839286 0.288709 0.169957
H10   H     H_    0.761455 0.118867 0.341560 0.153091
H11   H     H_    0.222576 0.336588 0.286740 0.171756
H12   H     H_    0.263002 0.617370 0.344628 0.154672
H13   H     H_    0.683572 0.795637 0.828008 0.198185
H14   H     H_    0.589134 0.303060 0.734292 0.196907
H15   H     H_    0.190598 0.303002 0.829833 0.206210
H16   H     H_    0.085961 0.806582 0.727212 0.193893
H17   H     H_    0.614630 0.728154 0.703585 0.206676
H18   H     H_    0.563520 0.314342 0.550168 0.201889
H19   H     H_    0.119034 0.233437 0.711557 0.206826
H20   H     H_    0.063151 0.814327 0.541927 0.202831
H21   H     H_    0.301768 0.189742 0.829631 0.203127
H22   H     H_    0.192239 0.923840 0.715675 0.198578
H23   H     H_    0.795318 0.682792 0.827778 0.202265
H24   H     H_    0.695492 0.420607 0.723896 0.200153
H25   H     H_    0.230551 0.120112 0.710684 0.198173
H26   H     H_    0.171793 0.930696 0.530228 0.199778
H27   H     H_    0.726735 0.615139 0.703067 0.197445
H28   H     H_    0.672260 0.430903 0.539520 0.199123
H29   H     H_    0.619266 0.069127 0.138941 0.159579
H30   H     H_    0.110473 0.582882 0.138331 0.167463
H31   H     H_    0.318081 0.024073 0.871919 0.209539
H32   H     H_    0.307918 0.899948 0.872620 0.205509
H33   H     H_    0.816986 0.508168 0.872076 0.207440
H34   H     H_    0.817468 0.383560 0.871782 0.208500
N1    N     N_R   0.499140 0.000000 0.142800 -0.118973
N2    N     N_R   0.999140 0.500000 0.142800 -0.123198
N3    N     N_R   0.499160 0.000000 0.857150 -0.119333
N4    N     N_R   0.999160 0.500000 0.857150 -0.127460
O1    O     O_R   0.408400 0.908380 0.614690 -0.612715
O2    O     O_R   0.408400 0.091620 0.614690 -0.615323
O3    O     O_R   0.908400 0.408380 0.614690 -0.612445
O4    O     O_R   0.908400 0.591620 0.614690 -0.616051
O5    O     O_R   0.408370 0.908370 0.385350 -0.615844
O6    O     O_R   0.408370 0.091630 0.385350 -0.619106
O7    O     O_R   0.908370 0.408370 0.385350 -0.615968
O8    O     O_R   0.908370 0.591630 0.385350 -0.618625
O9    O     O_R   0.591610 0.091610 0.614650 -0.633372
O10   O     O_R   0.591610 0.908390 0.614650 -0.632851
O11   O     O_R   0.091610 0.591610 0.614650 -0.641695
O12   O     O_R   0.091610 0.408390 0.614650 -0.630726
O13   O     O_R   0.591590 0.091600 0.385310 -0.628831
O14   O     O_R   0.591590 0.908400 0.385310 -0.619077
O15   O     O_R   0.091590 0.591600 0.385310 -0.626990
O16   O     O_R   0.091590 0.408400 0.385310 -0.618601
Zn1   Zn    Zn3+2 0.500010 0.000000 0.653130 0.930647
Zn2   Zn    Zn3+2 0.000010 0.500000 0.653130 0.927524
Zn3   Zn    Zn3+2 0.499980 1.000000 0.346870 0.934343
Zn4   Zn    Zn3+2 0.999980 0.500000 0.346870 0.933543
C53   C     C_3   0.647096 0.090032 0.883331 -0.354040
C54   C     C_3   0.719671 0.027479 0.830480 -0.302085
C55   C     C_3   0.807608 0.076315 0.811148 -0.919834
H35   H     H_    0.798444 0.131497 0.740448 0.273494
H36   H     H_    0.833917 0.103272 0.908790 0.258597
H37   H     H_    0.857315 0.029559 0.769333 0.253234
H38   H     H_    0.731568 0.973501 0.903209 0.199441
H39   H     H_    0.699180 0.996524 0.733638 0.262744
H40   H     H_    0.626625 0.143901 0.816937 0.218583
H41   H     H_    0.679404 0.129787 0.966479 0.160896
C56   C     C_3   0.134986 0.605960 0.882926 -0.353363
C57   C     C_3   0.213905 0.552615 0.827681 -0.286894
C58   C     C_3   0.269076 0.509390 0.939226 -0.920040
H42   H     H_    0.294921 0.560523 0.012167 0.258832
H43   H     H_    0.228226 0.460398 0.992728 0.261575
H44   H     H_    0.326490 0.474007 0.894761 0.250463
H45   H     H_    0.190712 0.499763 0.756672 0.259445
H46   H     H_    0.257784 0.598201 0.772683 0.203202
H47   H     H_    0.106021 0.655397 0.815215 0.194863
H48   H     H_    0.163171 0.650920 0.963348 0.155421

loop_
_geom_bond_atom_site_label_1
_geom_bond_atom_site_label_2
_ccdc_geom_bond_type
O15   Zn4   S    
C16   N4    A    
O8    Zn4   S    
C4    O8    A    
C53   C54   S    
C56   H48   S    
C51   H15   S    
C7    C27   S    
C58   H42   S    
C6    C26   S    
C11   H29   S    
O4    Zn2   S    
C33   C39   A    
C49   H13   S    
C2    C29   S    
C34   C40   A    
C32   C36   A    
C1    C30   S    
C35   C37   A    
C38   C42   A    
O3    Zn2   S    
O14   Zn3   S    
C21   O9    A    
C6    H26   S    
C22   C41   S    
C23   O15   A    
C29   C33   A    
C8    H24   S    
C22   O14   A    
C53   H40   S    
C42   C46   A    
C57   H45   S    
C14   N4    A    
C9    C19   S    
C11   N1    A    
O12   Zn2   S    
C20   H8    S    
C25   C47   A    
C40   C44   A    
C18   C20   S    
C52   H16   S    
C26   C48   A    
C55   H37   S    
N2    Zn4   S    
C27   C45   A    
O11   Zn2   S    
C1    O1    A    
C14   C56   S    
C49   H17   S    
C25   C29   A    
C51   H19   S    
C54   C55   S    
C6    H22   S    
C19   H6    S    
C33   H1    S    
C18   H33   S    
C22   O10   A    
C12   N2    A    
C27   C31   A    
O1    Zn1   S    
C28   C32   A    
C7    C49   S    
O5    Zn3   S    
C10   C20   S    
C30   C34   A    
C58   H44   S    
C7    H23   S    
C35   H3    S    
C19   H5    S    
C23   C44   S    
C55   H36   S    
C53   H41   S    
C17   H31   S    
C52   H20   S    
C15   N3    A    
C3    O7    A    
O2    Zn1   S    
C37   H9    S    
C45   C49   S    
C1    O5    A    
C10   N2    A    
N3    Zn1   S    
C12   H30   S    
C3    O3    A    
C18   H34   S    
C20   H7    S    
C2    O2    A    
C50   H14   S    
C56   C57   S    
C4    O4    A    
C12   C14   A    
C34   H2    S    
C8    C28   S    
C5    C25   S    
C24   O16   A    
C5    H25   S    
C8    C50   S    
O9    Zn1   S    
C7    H27   S    
C55   H35   S    
O16   Zn4   S    
C15   C17   S    
O10   Zn1   S    
C13   N3    A    
C5    H21   S    
C56   H47   S    
C47   C51   S    
C57   H46   S    
C26   C30   A    
N1    Zn3   S    
C39   H11   S    
O6    Zn3   S    
C46   C50   S    
C40   H12   S    
O13   Zn3   S    
C54   H38   S    
C28   C46   A    
C17   H32   S    
C36   C38   A    
C9    C15   A    
N4    Zn2   S    
C13   C53   S    
C10   C16   A    
C9    N1    A    
C54   H39   S    
O7    Zn4   S    
C11   C13   A    
C23   O11   A    
C31   C35   A    
C2    O6    A    
C36   H4    S    
C17   C19   S    
C24   O12   A    
C37   C41   A    
C3    C32   S    
C50   H18   S    
C4    C31   S    
C58   H43   S    
C21   C42   S    
C21   O13   A    
C48   C52   S    
C39   C43   A    
C16   C18   S    
C8    H28   S    
C24   C43   S    
C41   C45   A    
C5    C51   S    
C6    C52   S    
C57   C58   S    
C43   C47   A    
C44   C48   A    
C38   H10   S    
