data_mof_unit_12025.cif
_audit_creation_date              2012-12-10T17:18:57-0500
_audit_creation_method            fapswitch 2.2
_symmetry_space_group_name_H-M    P1
_symmetry_Int_Tables_number       1
_space_group_crystal_system       triclinic
_cell_length_a                    9.658219
_cell_length_b                    10.945335
_cell_length_c                    13.532523
_cell_angle_alpha                 94.45466
_cell_angle_beta                  75.326846
_cell_angle_gamma                 92.88621
_cell_volume                      1379.02189798

loop_
_atom_site_label
_atom_site_type_symbol
_atom_type_description
_atom_site_fract_x
_atom_site_fract_y
_atom_site_fract_z
_atom_type_partial_charge
C1    C     C_R   0.505637 0.736015 0.489207 0.842175
C2    C     C_R   0.387044 0.505955 0.812485 -0.111432
C3    C     C_R   0.270634 0.867491 0.432425 0.427499
C4    C     C_R   0.425462 0.499945 0.699222 0.833167
C5    C     C_R   0.132101 0.906600 0.477737 -0.318245
C6    C     C_R   0.112995 0.013296 0.543467 0.397993
C7    C     C_R   0.231398 0.090986 0.548344 -0.227488
C8    C     C_R   0.370712 0.050694 0.503147 0.012873
C9    C     C_R   0.385298 0.926889 0.466476 -0.021819
C10   C     C_R   0.511319 0.867840 0.469487 -0.094957
C11   C     C_R   0.636000 0.939692 0.463962 -0.121285
C12   C     C_R   0.445103 0.544923 0.978044 0.040223
C13   C     C_R   0.629557 0.067020 0.467120 -0.151282
C14   C     C_R   0.496661 0.125387 0.494169 -0.036620
C15   C     C_R   0.890652 0.334399 0.367676 -0.198463
C16   C     C_R   0.497146 0.261558 0.500574 0.817464
C17   C     C_R   0.971528 0.242735 0.311115 -0.292943
C18   C     C_R   0.108063 0.228574 0.319888 0.430846
C19   C     C_R   0.170533 0.315790 0.378874 -0.139500
C20   C     C_R   0.089678 0.411823 0.439242 0.194062
C21   C     C_R   0.942056 0.416127 0.436503 0.278548
C22   C     C_R   0.910620 0.583771 0.558024 0.003823
C23   C     C_R   0.491587 0.521118 0.871020 -0.042948
C24   C     C_R   0.058143 0.583720 0.558041 0.019377
C25   C     C_R   0.575988 0.504573 0.301445 0.889556
C26   C     C_R   0.787246 0.616742 0.047753 -0.145543
C27   C     C_R   0.618550 0.528705 0.191992 -0.077528
C28   C     C_R   0.240673 0.508820 0.863800 -0.171563
C29   C     C_R   0.197585 0.533549 0.969167 -0.131696
C30   C     C_R   0.298830 0.556021 0.025473 -0.037569
C31   C     C_R   0.547965 0.553663 0.035825 -0.003072
C32   C     C_R   0.689302 0.589564 0.988059 0.081341
C33   C     C_R   0.734308 0.573717 0.881336 -0.235817
C34   C     C_R   0.641183 0.509737 0.829439 0.365296
C35   C     C_R   0.523787 0.500290 0.129708 0.380512
C36   C     C_R   0.749049 0.591673 0.151134 -0.206497
Cu1   Cu    Cu3+1 0.359340 0.500010 0.500010 1.029995
Cu2   Cu    Cu3+1 0.640660 0.499990 0.499990 1.009748
H1    H     H_    0.823813 0.616237 0.197586 0.188499
H2    H     H_    0.085162 0.536671 0.007423 0.154042
H3    H     H_    0.737964 0.897714 0.454959 0.184972
H4    H     H_    0.518632 0.830313 0.243429 0.375516
H5    H     H_    0.040908 0.855577 0.460886 0.181864
H6    H     H_    0.789585 0.179921 0.598274 0.430938
H7    H     H_    0.842677 0.651817 0.606452 0.145002
H8    H     H_    0.005278 0.999682 0.341017 0.316310
H9    H     H_    0.282041 0.309796 0.370880 0.228636
H10   H     H_    0.372214 0.285973 0.000220 0.369818
H11   H     H_    0.262867 0.581618 0.106559 0.211823
H12   H     H_    0.213638 0.177751 0.592755 0.205661
H13   H     H_    0.510892 0.251368 0.791230 0.360415
H14   H     H_    0.728982 0.119488 0.450256 0.180017
H15   H     H_    0.787015 0.333459 0.355294 0.217814
H16   H     H_    0.924819 0.179696 0.261715 0.201597
H17   H     H_    0.848158 0.577718 0.845174 0.158107
H18   H     H_    0.099566 0.652262 0.606007 0.125234
H19   H     H_    0.893135 0.653818 0.013987 0.152783
H20   H     H_    0.158385 0.495655 0.822126 0.180969
N1    N     N_R   0.852480 0.498790 0.499000 -0.189391
N2    N     N_R   0.148360 0.498710 0.498970 -0.177384
O1    O     O_R   0.381190 0.680360 0.500010 -0.572601
O2    O     O_2   0.251559 0.817499 0.235736 -0.187937
O3    O     O_3   0.481932 0.751858 0.273707 -0.588473
O4    O     O_2   0.837824 0.947179 0.618811 -0.331353
O5    O     O_2   0.949657 0.095247 0.723216 -0.192352
O6    O     O_3   0.891339 0.170473 0.562028 -0.547523
O7    O     O_2   0.238573 0.115890 0.141580 -0.151471
O8    O     O_2   0.320543 0.070414 0.291687 -0.264816
O9    O     O_3   0.069311 0.982253 0.272148 -0.486165
O10   O     O_2   0.475295 0.280975 0.211703 -0.271200
O11   O     O_2   0.271720 0.381579 0.176768 -0.343668
O12   O     O_R   0.618760 0.680340 0.500000 -0.593935
O13   O     O_3   0.460740 0.281339 0.023834 -0.449132
O14   O     O_2   0.836780 0.382914 0.690252 -0.268781
O15   O     O_2   0.744312 0.296807 0.855140 -0.195042
O16   O     O_3   0.580629 0.279961 0.729652 -0.539152
O17   O     O_R   0.323240 0.499990 0.650990 -0.596074
O18   O     O_R   0.560820 0.499960 0.650980 -0.535899
O19   O     O_R   0.381240 0.319660 0.500000 -0.622164
O20   O     O_R   0.618810 0.319640 0.499990 -0.576395
O21   O     O_R   0.439180 0.500040 0.349020 -0.506143
O22   O     O_R   0.676760 0.500010 0.349010 -0.640537
O23   O     O_2   0.230834 0.645951 0.339903 -0.278512
S1    S     S_3+6 0.304891 0.768018 0.318819 0.038359
S2    S     S_3+6 0.942535 0.053957 0.616033 0.014997
S3    S     S_3+6 0.192803 0.098088 0.254216 0.102936
S4    S     S_3+6 0.428512 0.358159 0.139755 0.036513
S5    S     S_3+6 0.704453 0.364880 0.774542 0.055050

loop_
_geom_bond_atom_site_label_1
_geom_bond_atom_site_label_2
_ccdc_geom_bond_type
C33   H17   S    
C26   C32   A    
O8    S3    D    
H6    O6    S    
C19   C20   A    
O6    S2    S    
C7    C8    A    
Cu1   O19   S    
C12   C23   A    
C29   C30   A    
C6    S2    S    
C15   H15   S    
C28   C29   A    
C21   N1    A    
C5    C6    A    
C19   H9    S    
C18   C19   A    
O13   S4    S    
H8    O9    S    
C31   C35   A    
C35   S4    S    
C31   C32   A    
C8    C9    A    
C20   N2    A    
C9    C10   A    
O16   S5    S    
C5    H5    S    
C13   C14   A    
Cu2   O22   S    
C25   O21   A    
Cu1   O21   S    
O10   S4    D    
C33   C34   A    
Cu2   O12   S    
C1    O12   A    
H13   O16   S    
C22   N1    A    
C18   S3    S    
Cu2   O18   S    
C27   C35   A    
Cu1   O17   S    
C16   O20   A    
C2    C4    S    
C4    O18   A    
Cu1   Cu2   S    
C3    C9    A    
C13   H14   S    
O23   S1    D    
C24   N2    A    
C23   C34   A    
C17   C18   A    
C34   S5    S    
O11   S4    D    
C26   C36   A    
C30   H11   S    
C12   C31   A    
C25   O22   A    
C14   C16   S    
C25   C27   S    
O4    S2    D    
C2    C23   A    
C15   C17   A    
O2    S1    D    
O7    S3    D    
C8    C14   A    
C12   C30   A    
H10   O13   S    
C36   H1    S    
C1    C10   S    
C7    H12   S    
C3    C5    A    
C1    O1    A    
Cu1   O1    S    
O5    S2    D    
C6    C7    A    
C28   H20   S    
C27   C36   A    
C24   H18   S    
O3    S1    S    
C16   O19   A    
C32   C33   A    
C4    O17   A    
C11   C13   A    
Cu2   O20   S    
H4    O3    S    
C29   H2    S    
C11   H3    S    
C22   C24   A    
C26   H19   S    
Cu1   N2    S    
C10   C11   A    
Cu2   N1    S    
O15   S5    D    
C15   C21   A    
C22   H7    S    
C20   C21   A    
C3    S1    S    
C2    C28   A    
O14   S5    D    
C17   H16   S    
O9    S3    S    
