data_mof_unit_66771.cif
_audit_creation_date              2012-12-11T14:19:37-0500
_audit_creation_method            fapswitch 2.2
_symmetry_space_group_name_H-M    P1
_symmetry_Int_Tables_number       1
_space_group_crystal_system       triclinic
_cell_length_a                    8.244595
_cell_length_b                    12.61907
_cell_length_c                    15.0478
_cell_angle_alpha                 95.857442
_cell_angle_beta                  99.358217
_cell_angle_gamma                 97.652856
_cell_volume                      1518.66565385

loop_
_atom_site_label
_atom_site_type_symbol
_atom_type_description
_atom_site_fract_x
_atom_site_fract_y
_atom_site_fract_z
_atom_type_partial_charge
Ba1   Ba    Ba6+2 0.153570 0.551840 0.456200 1.675624
Ba2   Ba    Ba6+2 0.656590 0.448150 0.543720 1.678700
C1    C     C_3   0.307777 0.794664 0.107479 0.533066
C2    C     C_R   0.730052 0.814978 0.463316 -0.232926
C3    C     C_R   0.694399 0.995325 0.430565 -0.075188
C4    C     C_3   0.882097 0.839212 0.246212 0.300874
C5    C     C_R   0.630513 0.885942 0.425136 0.019011
C6    C     C_R   0.889187 0.851586 0.513789 0.060006
C7    C     C_R   0.953150 0.964619 0.523261 -0.059288
C8    C     C_R   0.854619 0.037676 0.480470 -0.051481
C9    C     C_R   0.918981 0.150888 0.490238 0.071741
C10   C     C_R   0.178248 0.115688 0.576297 -0.006051
C11   C     C_R   0.114013 0.006545 0.571719 -0.097868
C12   C     C_3   0.364877 0.773775 0.204741 0.349531
C13   C     C_R   0.229034 0.469841 0.767835 -0.220624
C14   C     C_R   0.132222 0.429740 0.828004 0.061385
C15   C     C_R   0.197710 0.439881 0.920821 -0.052593
C16   C     C_3   0.826863 0.927837 0.192616 -0.315698
C17   C     C_R   0.364622 0.488431 0.954678 0.028911
C18   C     C_R   0.460137 0.526385 0.890833 -0.083925
C19   C     C_R   0.391276 0.520351 0.799428 0.049968
C20   C     C_R   0.597668 0.562288 0.088169 -0.128556
C21   C     C_R   0.665736 0.576352 0.180023 0.011428
C22   C     C_R   0.415364 0.478028 0.212498 0.057608
C23   C     C_3   0.448495 0.793406 0.732861 0.382376
C24   C     C_R   0.348279 0.459848 0.119458 -0.110212
C25   C     C_R   0.436710 0.503811 0.054954 -0.009034
C26   C     C_R   0.572189 0.538580 0.242603 -0.288964
C27   C     C_3   0.670239 0.265632 0.260297 0.453161
C28   C     C_3   0.770750 0.338836 0.208816 -0.311965
C29   C     C_3   0.962412 0.724396 0.737654 0.224752
C30   C     C_3   0.039135 0.752649 0.838557 0.534168
C31   C     C_3   0.229292 0.228167 0.350797 0.288849
C32   C     C_3   0.206097 0.106038 0.331787 -0.307810
C33   C     C_3   0.432677 0.868200 0.816056 -0.258773
C34   C     C_3   0.917253 0.163601 0.754505 0.362327
C35   C     C_3   0.914509 0.057824 0.795116 -0.017345
C36   C     C_3   0.450815 0.216939 0.793194 0.310977
C37   C     C_3   0.500033 0.186297 0.887998 -0.296256
C38   C     C_R   0.078412 0.187249 0.539933 -0.293997
F1    F     F_    0.154774 0.686095 0.862518 -0.758257
F2    F     F_    0.404311 0.884610 0.088300 -0.667330
H1    H     H_    0.288888 0.697954 0.214924 0.001495
H2    H     H_    0.318780 0.724030 0.059622 0.009270
H3    H     H_    0.114516 0.078494 0.268641 0.137381
H4    H     H_    0.160655 0.068720 0.388262 0.052466
H5    H     H_    0.326226 0.079237 0.323662 0.158053
H6    H     H_    0.497766 0.763411 0.213291 -0.091541
H7    H     H_    0.328335 0.745336 0.701427 0.088214
H8    H     H_    0.552642 0.921160 0.843647 0.146173
H9    H     H_    0.336152 0.919517 0.797642 0.103945
H10   H     H_    0.400441 0.820780 0.870416 0.188283
H11   H     H_    0.176087 0.807767 0.097482 0.105255
H12   H     H_    0.688691 0.363878 0.151383 0.059065
H13   H     H_    0.794748 0.993042 0.238862 0.107212
H14   H     H_    0.830790 0.149462 0.688101 0.058900
H15   H     H_    0.045179 0.189684 0.743152 -0.085278
H16   H     H_    0.785366 0.026448 0.801314 0.125307
H17   H     H_    0.961155 0.997599 0.750502 0.035133
H18   H     H_    0.318426 0.228161 0.783887 -0.049019
H19   H     H_    0.528232 0.294355 0.788428 0.085719
H20   H     H_    0.474901 0.248882 0.939314 0.094855
H21   H     H_    0.634196 0.179370 0.901863 0.170195
H22   H     H_    0.987167 0.874406 0.301821 0.070139
H23   H     H_    0.833396 0.410500 0.256333 0.114250
H24   H     H_    0.427583 0.107687 0.894272 0.165422
H25   H     H_    0.615147 0.046290 0.397360 0.108433
H26   H     H_    0.193157 0.955140 0.604139 0.131557
H27   H     H_    0.130080 0.271509 0.544827 0.062639
H28   H     H_    0.678932 0.730570 0.457989 0.073036
H29   H     H_    0.676260 0.596581 0.045036 0.110589
H30   H     H_    0.115075 0.410863 0.964546 0.077608
H31   H     H_    0.229000 0.409464 0.099543 0.094119
H32   H     H_    0.587416 0.562980 0.909373 0.106384
H33   H     H_    0.626157 0.549651 0.314051 0.072178
H34   H     H_    0.865271 0.296815 0.180930 0.154579
H35   H     H_    0.775640 0.805918 0.276959 -0.059879
H36   H     H_    0.175747 0.465802 0.696695 0.048779
H37   H     H_    0.927412 0.961456 0.157919 0.160934
H38   H     H_    0.716137 0.894317 0.140214 0.204131
H39   H     H_    0.597066 0.312239 0.300958 -0.006947
H40   H     H_    0.955693 0.636330 0.718754 0.097660
H41   H     H_    0.839307 0.750304 0.724565 0.058628
H42   H     H_    0.100903 0.837660 0.852109 0.082655
H43   H     H_    0.113565 0.253375 0.367450 0.012302
H44   H     H_    0.332289 0.253808 0.409539 0.065498
I1    I     I_    0.864644 0.741634 0.928151 -0.403405
I2    I     I_    0.540753 0.889700 0.640559 -0.470275
I3    I     I_    0.063614 0.079752 0.927969 -0.422032
I4    I     I_    0.505638 0.148474 0.162121 -0.342085
O1    O     O_2   0.168170 0.764170 0.543850 -0.436888
O2    O     O_2   0.794937 0.434886 0.821896 -0.473754
O3    O     O_3   0.865238 0.240064 0.813901 -0.593454
O4    O     O_3   0.898670 0.629780 0.545890 -0.491926
O5    O     O_3   0.409490 0.443300 0.392340 -0.498072
O6    O     O_2   0.674250 0.555830 0.719690 -0.450026
O7    O     O_3   0.568935 0.729947 0.757991 -0.625823
O8    O     O_2   0.508275 0.114975 0.557721 -0.451922
O9    O     O_3   0.476576 0.135342 0.728406 -0.581832
O10   O     O_3   0.365980 0.695510 0.380810 -0.479312
O11   O     O_2   0.293271 0.886364 0.433246 -0.464096
O12   O     O_3   0.264410 0.271188 0.272634 -0.604823
O13   O     O_3   0.065130 0.781267 0.688196 -0.689109
O14   O     O_3   0.342352 0.860490 0.265749 -0.589444
O15   O     O_2   0.136040 0.444100 0.280280 -0.464197
O16   O     O_3   0.934510 0.640480 0.335500 -0.486476
O17   O     O_2   0.000459 0.564814 0.175777 -0.485822
O18   O     O_3   0.935968 0.762485 0.187636 -0.584153
O19   O     O_2   0.642110 0.235770 0.456130 -0.481223
O20   O     O_3   0.911620 0.370210 0.454030 -0.491550
O21   O     O_3   0.444310 0.304480 0.619110 -0.496119
O22   O     O_3   0.778737 0.209847 0.311836 -0.647355
O23   O     O_3   0.400800 0.556680 0.607590 -0.470923
O24   O     O_3   0.875770 0.359510 0.664420 -0.493018
P1    P     P_3+3 0.998660 0.747790 0.570900 0.977250
P2    P     P_3+3 0.306970 0.411860 0.294270 0.996453
P3    P     P_3+3 0.884550 0.634081 0.218318 0.969853
P4    P     P_3+3 0.811620 0.252200 0.429030 0.970709
P5    P     P_3+3 0.917020 0.368161 0.782781 0.986167
P6    P     P_3+3 0.409524 0.833959 0.376881 0.991678
P7    P     P_3+3 0.500780 0.592880 0.721898 0.985651
P8    P     P_3+3 0.400193 0.165968 0.619923 0.975258

loop_
_geom_bond_atom_site_label_1
_geom_bond_atom_site_label_2
_ccdc_geom_bond_type
Ba2   O19   S    
Ba2   O24   S    
O15   P2    D    
C17   C18   A    
Ba2   O21   S    
C3    H25   S    
O20   P4    S    
C2    H28   S    
Ba2   P4    S    
C1    F2    S    
C28   H12   S    
C24   C25   A    
C29   H40   S    
O6    P7    D    
C34   C35   S    
Ba1   O4    S    
O2    P5    D    
C22   C24   A    
C26   H33   S    
C36   C37   S    
Ba2   O23   S    
C13   H36   S    
C13   C14   A    
C24   H31   S    
C29   H41   S    
Ba1   Ba2   S    
C4    H22   S    
C7    C11   A    
O7    P7    S    
C27   O22   S    
C6    P1    S    
C34   O3    S    
C6    C7    A    
C30   F1    S    
C32   H4    S    
Ba1   P2    S    
C17   C25   S    
C7    C8    A    
O24   P5    S    
C2    C6    A    
Ba1   O16   S    
C36   H19   S    
Ba1   O1    S    
O21   P8    S    
O3    P5    S    
C9    C38   A    
Ba1   O23   S    
C2    C5    A    
C4    C16   S    
O18   P3    S    
Ba1   O10   S    
C27   I4    S    
O19   P4    D    
C30   H42   S    
C1    H2    S    
C38   H27   S    
C31   O12   S    
Ba2   O4    S    
C34   H15   S    
C14   P5    S    
C3    C5    A    
C16   H37   S    
C4    H35   S    
C12   H6    S    
C30   I1    S    
C23   I2    S    
C29   O13   S    
C10   C38   A    
O13   P1    S    
C31   H44   S    
C27   H39   S    
C27   C28   S    
C34   H14   S    
Ba1   O20   S    
C28   H34   S    
C12   O14   S    
C29   C30   S    
O5    P2    S    
Ba1   O5    S    
C33   H8    S    
C31   C32   S    
C18   H32   S    
C32   H3    S    
C21   C26   A    
C10   C11   A    
C35   H17   S    
C1    C12   S    
C16   H13   S    
C23   C33   S    
O9    P8    S    
C36   H18   S    
C23   O7    S    
C22   P2    S    
C20   C25   A    
O16   P3    S    
C33   H9    S    
C37   H24   S    
C20   H29   S    
O8    P8    D    
C37   H20   S    
Ba2   O20   S    
C31   H43   S    
O11   P6    D    
C5    P6    S    
C22   C26   A    
C36   O9    S    
Ba2   O5    S    
C21   P3    S    
O4    P1    S    
O23   P7    S    
C37   H21   S    
C35   I3    S    
Ba2   O6    S    
C35   H16   S    
C3    C8    A    
O22   P4    S    
C1    H11   S    
C14   C15   A    
C15   C17   A    
O1    P1    D    
C19   P7    S    
O10   P6    S    
C23   H7    S    
C28   H23   S    
O12   P2    S    
C8    C9    A    
C13   C19   A    
C10   P8    S    
C18   C19   A    
C15   H30   S    
C16   H38   S    
C33   H10   S    
C4    O18   S    
C20   C21   A    
C32   H5    S    
Ba1   P1    S    
C9    P4    S    
O17   P3    D    
Ba1   O15   S    
C12   H1    S    
O14   P6    S    
C11   H26   S    
