data_mof_unit_48238.cif
_audit_creation_date              2012-12-10T18:58:10-0500
_audit_creation_method            fapswitch 2.2
_symmetry_space_group_name_H-M    P1
_symmetry_Int_Tables_number       1
_space_group_crystal_system       triclinic
_cell_length_a                    10.778971
_cell_length_b                    9.834121
_cell_length_c                    15.706301
_cell_angle_alpha                 91.949845
_cell_angle_beta                  90.766094
_cell_angle_gamma                 90.157587
_cell_volume                      1663.77340749

loop_
_atom_site_label
_atom_site_type_symbol
_atom_type_description
_atom_site_fract_x
_atom_site_fract_y
_atom_site_fract_z
_atom_type_partial_charge
C1    C     C_R   0.871612 0.503533 0.507117 -0.129023
C2    C     C_R   0.126114 0.501954 0.510539 -0.149863
C3    C     C_R   0.259335 0.500081 0.502669 0.875140
C4    C     C_R   0.739742 0.500634 0.501365 0.884298
C5    C     C_R   0.499219 0.497891 0.338729 0.901502
C6    C     C_R   0.497051 0.502256 0.661182 0.893422
C7    C     C_R   0.427627 0.631812 0.958796 0.051772
C8    C     C_R   0.405835 0.380135 0.038993 0.055063
C9    C     C_R   0.454716 0.625715 0.046366 0.050314
C10   C     C_R   0.401863 0.383089 0.949310 0.047542
C11   C     C_R   0.419741 0.508931 0.910662 0.032003
C12   C     C_R   0.443147 0.499216 0.085554 0.031921
C13   C     C_1   0.446598 0.510626 0.822291 -0.054914
C14   C     C_1   0.466251 0.493682 0.174824 -0.059797
C15   C     C_1   0.484074 0.493546 0.249702 -0.206704
C16   C     C_1   0.472195 0.507726 0.748833 -0.202501
C17   C     C_R   0.560167 0.075401 0.562924 -0.089529
C18   C     C_R   0.440156 0.924479 0.436930 -0.110184
C19   C     C_R   0.440736 0.068383 0.436685 -0.080398
C20   C     C_R   0.560287 0.931548 0.562915 -0.079475
C21   C     C_R   0.058407 0.381947 0.528128 0.033324
C22   C     C_R   0.938080 0.612823 0.473743 0.036228
C23   C     C_R   0.934827 0.399620 0.549109 0.057613
C24   C     C_R   0.060783 0.625720 0.499980 0.045791
H1    H     H_    0.608314 0.132507 0.613207 0.123931
H2    H     H_    0.391411 0.867093 0.386905 0.140026
H3    H     H_    0.393609 0.120076 0.385989 0.136808
H4    H     H_    0.608428 0.879891 0.613247 0.128869
N1    N     N_R   0.500000 0.857200 0.500000 -0.075138
N2    N     N_R   0.500000 0.142800 0.500000 -0.076058
O1    O     O_R   0.316770 0.614620 0.499990 -0.619736
O2    O     O_R   0.683230 0.385380 0.500010 -0.618690
O3    O     O_R   0.683230 0.614620 0.500010 -0.624507
O4    O     O_R   0.316770 0.385380 0.499990 -0.626836
O5    O     O_R   0.499980 0.614630 0.378020 -0.610580
O6    O     O_R   0.500020 0.385370 0.621980 -0.616710
O7    O     O_R   0.500020 0.614630 0.621980 -0.621202
O8    O     O_R   0.499980 0.385370 0.378020 -0.618274
Zn1   Zn    Zn3+2 0.500000 0.653120 0.500000 0.929140
Zn2   Zn    Zn3+2 0.500000 0.346880 0.500000 0.928868
C25   C     C_3   0.501893 0.750304 0.097397 -0.402504
C26   C     C_3   0.397302 0.822187 0.146126 -0.324437
C27   C     C_3   0.448605 0.938624 0.202911 -0.909760
H5    H     H_    0.516180 0.899389 0.249975 0.266728
H6    H     H_    0.495487 0.014927 0.163881 0.259433
H7    H     H_    0.371774 0.988517 0.238135 0.246717
H8    H     H_    0.328591 0.862830 0.100382 0.217915
H9    H     H_    0.348729 0.749220 0.186768 0.229530
H10   H     H_    0.575183 0.719376 0.142972 0.210964
H11   H     H_    0.550241 0.822394 0.056175 0.182112
C28   C     C_3   0.383512 0.253744 0.894046 -0.404581
C29   C     C_3   0.507166 0.178040 0.882771 -0.317126
C30   C     C_3   0.506734 0.086430 0.802338 -0.926075
H12   H     H_    0.435086 0.006276 0.805796 0.266642
H13   H     H_    0.487991 0.147338 0.745384 0.272616
H14   H     H_    0.598597 0.036818 0.795233 0.244634
H15   H     H_    0.584318 0.252340 0.878150 0.232630
H16   H     H_    0.526269 0.115448 0.938985 0.204775
H17   H     H_    0.312674 0.185974 0.920623 0.188421
H18   H     H_    0.344022 0.279096 0.830858 0.213170
C31   C     C_3   0.391207 0.764589 0.917754 -0.409191
C32   C     C_3   0.250760 0.763117 0.897299 -0.324156
C33   C     C_3   0.194776 0.905612 0.897662 -0.925267
H19   H     H_    0.238617 0.968207 0.849212 0.262729
H20   H     H_    0.206964 0.956644 0.961430 0.259347
H21   H     H_    0.093957 0.898182 0.882747 0.252546
H22   H     H_    0.233903 0.712032 0.833941 0.217545
H23   H     H_    0.200343 0.704580 0.945506 0.222584
H24   H     H_    0.412542 0.854885 0.959233 0.212612
H25   H     H_    0.444599 0.777953 0.858627 0.195608
C34   C     C_3   0.361526 0.255980 0.085474 -0.409809
C35   C     C_3   0.220819 0.265769 0.097928 -0.329062
C36   C     C_3   0.173547 0.154437 0.154156 -0.921091
H26   H     H_    0.071979 0.165692 0.162790 0.253146
H27   H     H_    0.220073 0.163669 0.217507 0.263797
H28   H     H_    0.191920 0.052687 0.124449 0.264728
H29   H     H_    0.197598 0.365953 0.128606 0.224112
H30   H     H_    0.172079 0.257661 0.035150 0.215039
H31   H     H_    0.385164 0.159481 0.051122 0.194308
H32   H     H_    0.408679 0.248700 0.148364 0.213245
C37   C     C_3   0.101353 0.236896 0.508033 -0.379239
C38   C     C_3   0.109286 0.211238 0.410942 -0.296130
C39   C     C_3   0.106659 0.059514 0.387654 -0.969909
H33   H     H_    0.184162 0.007910 0.420029 0.263902
H34   H     H_    0.017107 0.014832 0.406888 0.260516
H35   H     H_    0.115508 0.042374 0.317984 0.258138
H36   H     H_    0.028862 0.259089 0.378565 0.219300
H37   H     H_    0.195177 0.256759 0.385996 0.227487
H38   H     H_    0.188782 0.211472 0.541718 0.221287
H39   H     H_    0.032818 0.162790 0.531146 0.189478
C40   C     C_3   0.886771 0.707156 0.406547 -0.409711
C41   C     C_3   0.846878 0.626987 0.325039 -0.316087
C42   C     C_3   0.802299 0.721965 0.256329 -0.894637
H40   H     H_    0.719093 0.778787 0.278266 0.268984
H41   H     H_    0.876594 0.795268 0.240841 0.259827
H42   H     H_    0.777697 0.661091 0.197693 0.241560
H43   H     H_    0.926964 0.567251 0.300334 0.210540
H44   H     H_    0.770808 0.554823 0.338066 0.215298
H45   H     H_    0.810270 0.771215 0.431833 0.230617
H46   H     H_    0.959934 0.778928 0.387077 0.192220
C43   C     C_3   0.878023 0.317183 0.619277 -0.418334
C44   C     C_3   0.835056 0.410893 0.693301 -0.324607
C45   C     C_3   0.779606 0.329453 0.764353 -0.911016
H47   H     H_    0.697743 0.271146 0.739748 0.274789
H48   H     H_    0.749604 0.400022 0.816754 0.249092
H49   H     H_    0.849256 0.258029 0.790030 0.258673
H50   H     H_    0.915518 0.470621 0.719441 0.213546
H51   H     H_    0.764121 0.483601 0.671173 0.212638
H52   H     H_    0.801374 0.251720 0.594097 0.222588
H53   H     H_    0.948110 0.247836 0.646646 0.187565
C46   C     C_3   0.111458 0.767867 0.522092 -0.386388
C47   C     C_3   0.153772 0.782395 0.615927 -0.301726
C48   C     C_3   0.205888 0.924388 0.636353 -0.884173
H54   H     H_    0.280051 0.949679 0.591150 0.275932
H55   H     H_    0.130964 0.001258 0.632802 0.243242
H56   H     H_    0.246248 0.928292 0.701620 0.250017
H57   H     H_    0.073412 0.764422 0.657819 0.202160
H58   H     H_    0.225855 0.706586 0.631428 0.236317
H59   H     H_    0.185725 0.795578 0.477841 0.221132
H60   H     H_    0.037654 0.845206 0.514372 0.187079

loop_
_geom_bond_atom_site_label_1
_geom_bond_atom_site_label_2
_ccdc_geom_bond_type
C31   H25   S    
C47   H58   S    
C33   H20   S    
C42   H40   S    
C25   C26   S    
C46   C47   S    
C18   H2    S    
C34   H31   S    
C37   C38   S    
C41   H44   S    
C30   H12   S    
C7    C11   A    
O3    Zn1   S    
C32   H22   S    
O4    Zn2   S    
C47   H57   S    
C43   H52   S    
C38   H36   S    
C17   C20   A    
C46   H59   S    
C18   C19   A    
C36   H26   S    
C34   H32   S    
C35   H30   S    
C7    C31   S    
C32   C33   S    
O1    Zn1   S    
C22   C40   S    
C44   H51   S    
C40   H46   S    
C19   H3    S    
C48   H56   S    
C37   H38   S    
C33   H21   S    
C1    C22   A    
C42   H41   S    
C5    O8    A    
C17   N2    A    
C36   H27   S    
C31   C32   S    
C24   C46   S    
C10   C28   S    
C25   H10   S    
C47   C48   S    
C9    C12   A    
C41   H43   S    
C20   N1    A    
C30   H13   S    
C28   C29   S    
C43   C44   S    
O6    Zn2   S    
C10   C11   A    
C40   C41   S    
C20   H4    S    
C3    O4    A    
C43   H53   S    
C46   H60   S    
O5    Zn1   S    
C27   H5    S    
C35   H29   S    
C39   H33   S    
C8    C12   A    
N1    Zn1   S    
C2    C21   A    
C6    O7    A    
N2    Zn2   S    
C44   H50   S    
C45   H48   S    
C18   N1    A    
C26   H9    S    
C3    O1    A    
C27   H6    S    
C4    O2    A    
C29   H16   S    
C37   H39   S    
C39   H34   S    
C12   C14   S    
C1    C23   A    
C42   H42   S    
C21   C23   A    
C2    C24   A    
C36   H28   S    
C22   C24   A    
C28   H17   S    
C26   C27   S    
C25   H11   S    
C29   C30   S    
C48   H54   S    
C30   H14   S    
C31   H24   S    
C7    C9    A    
C4    O3    A    
C8    C34   S    
C21   C37   S    
C35   C36   S    
C9    C25   S    
C32   H23   S    
C1    C4    S    
C17   H1    S    
C2    C3    S    
C34   C35   S    
O7    Zn1   S    
O8    Zn2   S    
C11   C13   S    
C23   C43   S    
C38   H37   S    
C5    O5    A    
C41   C42   S    
C6    O6    A    
C45   H49   S    
C26   H8    S    
O2    Zn2   S    
C44   C45   S    
C27   H7    S    
C5    C15   S    
C29   H15   S    
C6    C16   S    
C33   H19   S    
C39   H35   S    
C8    C10   A    
C38   C39   S    
C13   C16   T    
C45   H47   S    
C14   C15   T    
C28   H18   S    
C40   H45   S    
C19   N2    A    
C48   H55   S    
