data_mof_unit_64122.cif
_audit_creation_date              2013-03-05T16:05:13-0500
_audit_creation_method            fapswitch 2.2
_symmetry_space_group_name_H-M    P1
_symmetry_Int_Tables_number       1
_space_group_crystal_system       triclinic
_cell_length_a                    8.287684
_cell_length_b                    15.097196
_cell_length_c                    15.047265
_cell_angle_alpha                 99.385268
_cell_angle_beta                  98.278658
_cell_angle_gamma                 98.26255
_cell_volume                      1811.01565095

loop_
_atom_site_label
_atom_site_type_symbol
_atom_site_description
_atom_site_fract_x
_atom_site_fract_y
_atom_site_fract_z
_atom_type_partial_charge
P1    P     P_3+3 0.996570 0.418570 0.288410 0.479492
O1    O     O_2   0.826460 0.445380 0.275370 -0.386313
O2    O     O_3   0.098920 0.448470 0.388920 -0.416220
O3    O     O_3   0.628660 0.613390 0.338240 -0.391530
O4    O     O_2   0.697783 0.550655 0.175342 -0.352347
O5    O     O_3   0.958283 0.300371 0.249386 -0.550843
O6    O     O_3   0.640881 0.718411 0.199708 -0.523149
H1    H     H_    0.736372 0.784240 0.331795 0.179952
C1    C     C_3   0.628699 0.876997 0.252440 -0.012767
H2    H     H_    0.639849 0.876479 0.179278 0.208878
P2    P     P_3+3 0.693070 0.712070 0.580610 0.514462
P3    P     P_3+3 0.108323 0.777991 0.395353 0.450195
O7    O     O_2   0.863170 0.725020 0.553760 -0.327821
O8    O     O_3   0.060910 0.661460 0.386100 -0.363965
O9    O     O_2   0.999057 0.822568 0.458381 -0.370449
O10   O     O_3   0.733576 0.750172 0.698917 -0.553478
O11   O     O_3   0.037609 0.801733 0.287957 -0.570542
C2    C     C_3   0.126265 0.762483 0.223253 0.292067
H3    H     H_    0.058071 0.693128 0.189678 0.138353
H4    H     H_    0.253613 0.755999 0.253567 -0.035672
C3    C     C_3   0.143627 0.823577 0.152195 0.532788
H5    H     H_    0.210918 0.893028 0.187540 0.034456
C4    C     C_3   0.279514 0.736475 0.664748 0.285197
H6    H     H_    0.391260 0.711130 0.645981 0.042972
H7    H     H_    0.176998 0.717279 0.605198 0.130886
C5    C     C_3   0.318777 0.840318 0.691079 -0.092536
H8    H     H_    0.417751 0.861257 0.752291 0.162082
H9    H     H_    0.362648 0.869819 0.634272 0.100967
Ba1   Ba    Ba6+2 0.844900 0.542440 0.457470 1.612210
C6    C     C_3   0.882521 0.253899 0.309528 0.880363
H10   H     H_    0.795404 0.292992 0.342098 -0.108425
C7    C     C_3   0.781133 0.163230 0.255163 -0.029983
H11   H     H_    0.676642 0.176289 0.206395 0.103404
H12   H     H_    0.729106 0.121786 0.302111 0.111564
C8    C     C_3   0.775624 0.681204 0.746106 0.157559
H13   H     H_    0.889517 0.657286 0.725451 0.110820
H14   H     H_    0.670478 0.622006 0.732148 0.113327
C9    C     C_3   0.809787 0.725022 0.848236 0.433207
H15   H     H_    0.725777 0.775416 0.860500 0.165052
P4    P     P_3+3 0.193140 0.581510 0.711600 0.500302
O12   O     O_2   0.363260 0.554650 0.724690 -0.366514
O13   O     O_3   0.090800 0.551610 0.611090 -0.349060
O14   O     O_3   0.561050 0.386690 0.661770 -0.288836
O15   O     O_3   0.235662 0.700710 0.739858 -0.560995
P5    P     P_3+3 0.086427 0.219110 0.601586 0.559874
O16   O     O_3   0.598950 0.388690 0.448890 -0.379020
O17   O     O_3   0.128800 0.338610 0.613910 -0.363048
O18   O     O_2   0.221250 0.179708 0.554391 -0.301766
O19   O     O_3   0.127825 0.196124 0.712240 -0.474237
Ba2   Ba    Ba6+2 0.344940 0.457640 0.542540 1.665360
P6    P     P_3+3 0.581202 0.608479 0.220561 0.478986
C10   C     C_3   0.629849 0.782147 0.277049 0.374757
H16   H     H_    0.515611 0.763042 0.304654 -0.026629
H17   H     H_    0.507943 0.898539 0.261196 0.106105
O20   O     O_3   0.590770 0.611390 0.551120 -0.393249
C11   C     C_3   0.406465 0.326364 0.263748 0.363430
H18   H     H_    0.299942 0.346107 0.294345 0.108009
H19   H     H_    0.510610 0.384813 0.279691 0.025676
C12   C     C_3   0.355250 0.301165 0.161149 0.045761
H20   H     H_    0.317193 0.360942 0.134951 0.107911
H21   H     H_    0.463758 0.282743 0.130525 0.111997
P7    P     P_3+3 0.499771 0.274682 0.413752 0.538950
O21   O     O_2   0.326540 0.275010 0.446300 -0.276717
O22   O     O_3   0.455316 0.250388 0.294809 -0.540826
C13   C     C_3   0.061305 0.259306 0.770265 0.316815
H22   H     H_    0.127892 0.329871 0.774612 0.101365
H23   H     H_    0.928630 0.256660 0.742453 -0.014414
C14   C     C_3   0.076765 0.239618 0.867804 0.417235
H24   H     H_    0.979295 0.266573 0.901781 0.073300
P8    P     P_3+3 0.604605 0.394117 0.780463 0.561882
C15   C     C_3   0.603893 0.226338 0.802045 0.852416
H25   H     H_    0.735442 0.255043 0.823851 -0.114024
O23   O     O_2   0.508762 0.466351 0.821709 -0.324587
O24   O     O_3   0.505175 0.294575 0.809051 -0.479727
H26   H     H_    0.655050 0.114372 0.869139 0.247864
C16   C     C_3   0.561345 0.160154 0.865248 -0.827596
H27   H     H_    0.437479 0.117281 0.838613 0.264673
H28   H     H_    0.561570 0.197988 0.935504 0.247371
C17   C     C_R   0.359650 0.560011 0.175159 0.157404
H29   H     H_    0.323117 0.531145 0.307064 0.174365
H30   H     H_    0.494217 0.634779 0.044882 0.207610
C18   C     C_R   0.105288 0.477830 0.207244 0.323351
C19   C     C_R   0.929670 0.468008 0.764316 -0.037080
C20   C     C_R   0.828514 0.436626 0.823753 0.124268
C21   C     C_R   0.890909 0.448105 0.916773 -0.308915
C22   C     C_R   0.052520 0.495767 0.953988 0.141307
C23   C     C_R   0.146899 0.537309 0.893477 -0.060533
C24   C     C_R   0.121113 0.505514 0.049868 0.087996
C25   C     C_R   0.285451 0.553802 0.082451 -0.003053
C26   C     C_R   0.371670 0.595491 0.022092 -0.046660
C27   C     C_R   0.302784 0.589283 0.930800 -0.039548
C28   C     C_R   0.034392 0.466825 0.114133 -0.236832
C29   C     C_R   0.266391 0.525405 0.236509 -0.536230
C30   C     C_R   0.083813 0.524491 0.797090 0.136266
H31   H     H_    0.912380 0.426579 0.094016 0.154076
H32   H     H_    0.807471 0.421724 0.958535 0.172232
H33   H     H_    0.375714 0.624769 0.889409 0.177679
C31   C     C_R   0.329747 0.820666 0.441611 0.201629
H34   H     H_    0.365222 0.690138 0.472172 0.174324
H35   H     H_    0.187308 0.946840 0.372274 0.186839
C32   C     C_R   0.585093 0.789751 0.520497 0.286391
C33   C     C_R   0.773750 0.221289 0.502767 -0.426267
C34   C     C_R   0.874070 0.166069 0.540189 0.261732
C35   C     C_R   0.810458 0.073770 0.533612 -0.179908
C36   C     C_R   0.644233 0.036330 0.490261 0.096383
C37   C     C_R   0.544956 0.094964 0.449545 -0.074196
C38   C     C_R   0.572427 0.943218 0.487527 0.083131
C39   C     C_R   0.404425 0.911523 0.445386 -0.027155
C40   C     C_R   0.313744 0.969773 0.405360 -0.364928
C41   C     C_R   0.382087 0.058320 0.402907 0.553774
C42   C     C_R   0.659418 0.880739 0.527065 -0.251280
C43   C     C_R   0.422685 0.759945 0.475807 -0.546422
C44   C     C_R   0.611487 0.189013 0.459394 0.235163
H36   H     H_    0.783998 0.900463 0.564226 0.190650
H37   H     H_    0.825640 0.290337 0.502750 0.171562
H38   H     H_    0.892618 0.033769 0.564205 0.158268
Br1   Br    Br    0.123206 0.889431 0.717309 -0.370674
O25   O     O_3   0.005517 0.235681 0.374802 -0.724092
H39   H     H_    0.035067 0.291483 0.423348 0.327008
Br2   Br    Br    0.915111 0.092541 0.185515 -0.364022
O26   O     O_3   0.755978 0.941327 0.310059 -0.727899
H40   H     H_    0.860891 0.931774 0.288080 0.384845
O27   O     O_3   0.973879 0.771328 0.874928 -0.616160
H41   H     H_    0.045428 0.724135 0.878883 0.347050
Br3   Br    Br    0.758894 0.639323 0.927188 -0.559875
O28   O     O_3   0.221539 0.228159 0.139282 -0.593259
H42   H     H_    0.230191 0.191704 0.079517 0.380980
O29   O     O_3   0.231023 0.785125 0.086877 -0.768107
H43   H     H_    0.271289 0.834904 0.055322 0.352295
Br4   Br    Br    0.281043 0.306853 0.942430 -0.607697
O30   O     O_3   0.059962 0.145814 0.868756 -0.662296
H44   H     H_    0.166522 0.127138 0.857565 0.378858
Br5   Br    Br    0.559488 0.159018 0.677879 -0.518382
Br6   Br    Br    0.861294 0.426278 0.636813 -0.439713
O31   O     O_3   0.290343 0.107595 0.351761 -0.651731
H45   H     H_    0.171771 0.077971 0.336832 0.358478
Br7   Br    Br    0.926694 0.837325 0.092425 -0.386007

loop_
_geom_bond_atom_site_label_1
_geom_bond_atom_site_label_2
_geom_bond_distance
_ccdc_geom_bond_type
O28   H42   0.992609 S    
C23   C27   1.398615 A    
Ba1   O13   2.823760 S    
C2    C3    1.530516 S    
Ba1   O20   2.917471 S    
C8    H13   1.124196 S    
C5    Br1   1.940836 S    
C3    Br7   1.945969 S    
O29   H43   0.995760 S    
C18   C28   1.412372 A    
O27   H41   0.993933 S    
C21   C22   1.414527 A    
C39   C40   1.390419 A    
C12   O28   1.405965 S    
C36   C38   1.437203 A    
C5    H8    1.110893 S    
O19   C13   1.412176 S    
O16   P7    1.757592 S    
O1    Ba1   2.860816 S    
O7    Ba1   2.869588 S    
C8    H14   1.124478 S    
C16   H28   1.116261 S    
O6    C10   1.406892 S    
C17   C29   1.403299 A    
C32   C43   1.390300 A    
O10   C8    1.408522 S    
C9    H15   1.114051 S    
C21   H32   1.076715 S    
C22   C24   1.448042 A    
C23   C30   1.440614 A    
C31   C39   1.410047 A    
C11   H18   1.108215 S    
P1    O1    1.516630 D    
C4    C5    1.527859 S    
O2    Ba1   2.918076 S    
O25   H39   0.995893 S    
C19   Br6   1.894487 S    
P7    O22   1.740894 S    
C33   H37   1.069055 S    
P5    C34   1.864829 S    
C35   H38   1.076502 S    
C20   C21   1.394011 A    
C24   C28   1.434060 A    
C14   H24   1.106841 S    
C13   H23   1.111400 S    
P3    O11   1.749295 S    
P8    O24   1.754861 S    
C1    O26   1.405418 S    
C4    H6    1.107145 S    
C11   O22   1.397083 S    
P8    C20   1.858230 S    
C1    H2    1.116808 S    
H1    C10   1.110433 S    
P4    O15   1.751721 S    
P3    C31   1.847494 S    
O3    Ba1   2.798289 S    
P4    O13   1.583789 S    
C12   H20   1.109657 S    
C18   C29   1.394405 A    
C3    H5    1.121564 S    
Ba2   O21   2.869817 S    
C41   O31   1.380074 S    
C1    C10   1.537389 S    
C7    Br2   1.944510 S    
C35   C36   1.428286 A    
O2    Ba2   2.824354 S    
O17   Ba2   2.801703 S    
Ba1   Ba2   4.580776 S    
P5    O17   1.761419 S    
C12   H21   1.117058 S    
C31   C43   1.393220 A    
C37   C44   1.422973 A    
P1    O5    1.752620 S    
O31   H45   0.996746 S    
C8    C9    1.539075 S    
C16   H27   1.113262 S    
P7    C44   1.858077 S    
C22   C23   1.443797 A    
C2    H3    1.116327 S    
O3    P6    1.744693 S    
P1    C18   1.882938 S    
C19   C30   1.403800 A    
C28   H31   1.076380 S    
C4    O15   1.400669 S    
P1    O2    1.583820 S    
C7    H12   1.109424 S    
C14   O30   1.405570 S    
H26   C16   1.112948 S    
P7    O21   1.582658 D    
P2    O10   1.746745 S    
C19   C20   1.402543 A    
P3    O9    1.544906 D    
P5    O19   1.751754 S    
C6    H10   1.113481 S    
C38   C39   1.423019 A    
C13   C14   1.535572 S    
P8    O23   1.541293 D    
P1    Ba1   3.404930 S    
O11   C2    1.407793 S    
P2    C32   1.846319 S    
C27   H33   1.079076 S    
C3    O29   1.402633 S    
C14   Br4   1.935033 S    
O26   H40   0.994729 S    
O13   Ba2   2.918914 S    
H30   C26   1.077561 S    
P4    O12   1.517056 D    
O5    C6    1.396260 S    
P3    O8    1.724685 S    
O14   P8    1.752163 S    
O8    Ba1   2.800962 S    
O30   H44   0.993327 S    
O12   Ba2   2.861362 S    
C9    Br3   1.937005 S    
P2    O20   1.589768 S    
C10   H16   1.107232 S    
C37   C41   1.416504 A    
P5    O18   1.545476 D    
C38   C42   1.420720 A    
C9    O27   1.406185 S    
P4    C30   1.920786 S    
C15   Br5   1.932443 S    
C15   O24   1.404778 S    
O14   Ba2   2.797637 S    
C32   C42   1.403973 A    
C6    O25   1.399940 S    
C36   C37   1.441169 A    
O16   Ba2   2.916631 S    
C5    H9    1.108304 S    
Ba2   O20   2.832443 S    
C11   C12   1.510514 S    
Ba1   O16   2.833033 S    
C7    H11   1.113798 S    
H29   C29   1.081757 S    
O6    P6    1.753908 S    
C15   H25   1.094944 S    
C33   C44   1.388171 A    
C40   C41   1.383383 A    
C6    C7    1.534683 S    
P2    O7    1.516368 D    
C26   C27   1.392324 A    
C15   C16   1.527222 S    
P4    Ba2   3.405530 S    
H34   C43   1.081630 S    
C11   H19   1.110686 S    
C42   H36   1.076304 S    
C2    H4    1.112289 S    
C4    H7    1.110883 S    
C33   C34   1.385951 A    
P6    C17   1.860960 S    
C17   C25   1.423625 A    
H35   C40   1.074718 S    
C24   C25   1.425687 A    
P2    Ba1   3.409558 S    
C13   H22   1.114306 S    
C34   C35   1.399385 A    
O4    P6    1.548103 D    
C1    H17   1.114560 S    
C25   C26   1.405582 A    
