data_mof_unit_50087.cif
_audit_creation_date              2012-12-10T16:59:18-0500
_audit_creation_method            fapswitch 2.2
_symmetry_space_group_name_H-M    P1
_symmetry_Int_Tables_number       1
_space_group_crystal_system       triclinic
_cell_length_a                    7.721181
_cell_length_b                    8.617035
_cell_length_c                    27.769729
_cell_angle_alpha                 91.115351
_cell_angle_beta                  86.361727
_cell_angle_gamma                 93.405056
_cell_volume                      1840.41497071

loop_
_atom_site_label
_atom_site_type_symbol
_atom_type_description
_atom_site_fract_x
_atom_site_fract_y
_atom_site_fract_z
_atom_type_partial_charge
C1    C     C_R   0.544983 0.794324 0.498570 0.918151
C2    C     C_R   0.455017 0.205676 0.501429 0.918163
C3    C     C_R   0.501642 0.501387 0.898231 -0.049644
C4    C     C_R   0.498260 0.498678 0.101774 -0.049646
C5    C     C_R   0.539067 0.640847 0.872997 -0.022629
C6    C     C_R   0.460829 0.359220 0.127008 -0.022612
C7    C     C_R   0.575574 0.778800 0.898318 -0.141369
C8    C     C_R   0.424303 0.221270 0.101687 -0.141376
C9    C     C_R   0.465256 0.362559 0.872223 -0.022950
C10   C     C_R   0.534664 0.637502 0.127782 -0.022932
C11   C     C_R   0.509498 0.498331 0.646676 -0.090641
C12   C     C_R   0.490499 0.501703 0.353329 -0.090582
C13   C     C_R   0.537802 0.641291 0.025926 0.048089
C14   C     C_R   0.462090 0.358774 0.974079 0.048090
C15   C     C_R   0.461488 0.358050 0.025141 0.048187
C16   C     C_R   0.538397 0.642017 0.974864 0.048187
C17   C     C_R   0.499200 0.499338 0.050709 0.071985
C18   C     C_R   0.500692 0.500728 0.949296 0.071986
C19   C     C_R   0.574814 0.778191 0.053371 -0.225554
C20   C     C_R   0.425088 0.221872 0.946633 -0.225550
C21   C     C_R   0.572885 0.775962 0.103232 -0.138808
C22   C     C_R   0.427033 0.224099 0.896772 -0.138805
C23   C     C_R   0.503137 0.498640 0.593977 0.870696
C24   C     C_R   0.496865 0.501373 0.406025 0.870682
C25   C     C_R   0.575481 0.779774 0.948180 -0.224408
C26   C     C_R   0.424392 0.220296 0.051825 -0.224412
C27   C     C_2   0.562832 0.954626 0.490420 -0.247506
C28   C     C_2   0.437167 0.045374 0.509579 -0.247510
C29   C     C_R   0.539648 0.638790 0.822635 0.508726
C30   C     C_R   0.460257 0.361276 0.177370 0.508714
C31   C     C_R   0.467690 0.365650 0.821883 0.511214
C32   C     C_R   0.532251 0.634409 0.178121 0.511205
C33   C     C_R   0.649117 0.446259 0.720085 -0.135343
C34   C     C_R   0.351047 0.554171 0.279927 -0.135272
C35   C     C_R   0.652050 0.443425 0.669878 -0.041384
C36   C     C_R   0.348141 0.556997 0.330134 -0.041521
C37   C     C_R   0.367765 0.554514 0.674715 -0.204876
C38   C     C_R   0.632024 0.445152 0.325287 -0.204995
C39   C     C_R   0.366911 0.556724 0.724646 -0.095895
C40   C     C_R   0.632854 0.442952 0.275356 -0.095812
C41   C     C_R   0.507212 0.502518 0.747188 0.300766
C42   C     C_R   0.492742 0.497540 0.252818 0.300604
H1    H     H_    0.257334 0.597735 0.658073 0.177981
H2    H     H_    0.742295 0.401629 0.341929 0.177920
H3    H     H_    0.014537 0.383557 0.463491 0.201121
H4    H     H_    0.985463 0.616443 0.536509 0.201139
H5    H     H_    0.256981 0.599872 0.745924 0.147419
H6    H     H_    0.742623 0.399515 0.254076 0.147540
H7    H     H_    0.605127 0.887345 0.879649 0.191618
H8    H     H_    0.394741 0.112728 0.120357 0.191620
H9    H     H_    0.243771 0.596640 0.261579 0.145005
H10   H     H_    0.756539 0.404086 0.738438 0.144874
H11   H     H_    0.602103 0.883964 0.122500 0.194184
H12   H     H_    0.397825 0.116095 0.877503 0.194183
H13   H     H_    0.606511 0.890260 0.037778 0.140402
H14   H     H_    0.393389 0.109802 0.962226 0.140397
H15   H     H_    0.605572 0.891607 0.964385 0.139319
H16   H     H_    0.394287 0.108465 0.035621 0.139324
N1    N     N_R   0.504640 0.502414 0.798423 -0.357914
N2    N     N_R   0.495293 0.497647 0.201583 -0.357889
N3    N     N_2   0.950320 0.457960 0.486880 -0.161508
N4    N     N_2   0.049680 0.542040 0.513120 -0.161479
O1    O     O_R   0.389250 0.738570 0.503220 -0.610172
O2    O     O_R   0.610750 0.261430 0.496780 -0.610174
O3    O     O_R   0.678390 0.711630 0.494810 -0.620045
O4    O     O_R   0.321610 0.288370 0.505190 -0.620033
O5    O     O_R   0.355440 0.513440 0.575450 -0.612113
O6    O     O_R   0.644560 0.486560 0.424550 -0.612142
O7    O     O_R   0.644590 0.486500 0.567040 -0.624604
O8    O     O_R   0.355410 0.513500 0.432960 -0.624621
O9    O     O_2   0.575753 0.771424 0.797928 -0.532788
O10   O     O_2   0.424126 0.228645 0.202076 -0.532851
O11   O     O_2   0.567107 0.766535 0.203538 -0.530474
O12   O     O_2   0.432874 0.233519 0.796464 -0.530406
Zn1   Zn    Zn3+2 0.306940 0.517990 0.505620 0.983988
Zn2   Zn    Zn3+2 0.693060 0.482010 0.494380 0.983966
C43   C     C_1   0.199729 0.620514 0.356184 0.206165
N5    N     N_1   0.080639 0.671372 0.376930 -0.169972
C44   C     C_1   0.800712 0.380316 0.643838 0.206070
N6    N     N_1   0.920002 0.329783 0.623100 -0.170104
C45   C     C_1   0.698971 0.004435 0.454209 0.242494
N7    N     N_1   0.807028 0.043555 0.425450 -0.186694
C46   C     C_1   0.301027 0.995565 0.545790 0.242525
N8    N     N_1   0.192969 0.956445 0.574548 -0.186685

loop_
_geom_bond_atom_site_label_1
_geom_bond_atom_site_label_2
_ccdc_geom_bond_type
C21   H11   S    
C8    C26   A    
C14   C18   A    
C34   C42   A    
C20   H14   S    
C45   N7    T    
C24   O8    A    
C39   C41   A    
C43   N5    T    
C33   H10   S    
C34   H9    S    
O3    Zn2   S    
H4    N4    S    
C19   C21   A    
C36   C43   S    
C9    C22   A    
C23   O5    A    
C3    C18   A    
C15   C17   A    
C11   C23   S    
C11   C37   A    
C23   O7    A    
C29   N1    A    
C30   N2    A    
C1    O3    A    
C12   C36   A    
C40   C42   A    
N3    Zn2   S    
C28   C46   S    
C25   H15   S    
C1    O1    A    
C2    O2    A    
C5    C29   A    
C10   C21   A    
C13   C19   A    
C14   C20   A    
C27   C45   S    
C41   N1    S    
C22   H12   S    
C42   N2    S    
C32   O11   S    
C5    C7    A    
C9    C31   A    
C31   O12   S    
C6    C8    A    
C3    C5    A    
C31   N1    A    
C37   H1    S    
C38   H2    S    
C3    C9    A    
C46   N8    T    
O2    Zn2   S    
C26   H16   S    
C7    H7    S    
C4    C17   A    
C4    C6    A    
C6    C30   A    
C20   C22   A    
N4    Zn1   S    
C35   C44   S    
O5    Zn1   S    
C32   N2    A    
C4    C10   A    
C8    H8    S    
O8    Zn1   S    
C39   H5    S    
C19   H13   S    
C16   C25   A    
C40   H6    S    
C15   C26   A    
C30   O10   S    
C2    O4    A    
O6    Zn2   S    
C12   C24   S    
C7    C25   A    
C13   C17   A    
C33   C41   A    
C11   C35   A    
C37   C39   A    
C38   C40   A    
O1    Zn1   S    
O4    Zn1   S    
H3    N3    S    
C33   C35   A    
C34   C36   A    
C12   C38   A    
N3    N4    D    
C24   O6    A    
C44   N6    T    
C10   C32   A    
O7    Zn2   S    
C16   C18   A    
C13   C16   A    
C27   C28   D    
C1    C27   S    
C14   C15   A    
C2    C28   S    
C29   O9    S    
