data_mof_unit_65158.cif
_audit_creation_date              2012-12-10T18:50:47-0500
_audit_creation_method            fapswitch 2.2
_symmetry_space_group_name_H-M    P1
_symmetry_Int_Tables_number       1
_space_group_crystal_system       triclinic
_cell_length_a                    36.800336
_cell_length_b                    30.276788
_cell_length_c                    21.736426
_cell_angle_alpha                 89.230438
_cell_angle_beta                  124.68858
_cell_angle_gamma                 90.64184
_cell_volume                      19911.9740559

loop_
_atom_site_label
_atom_site_type_symbol
_atom_type_description
_atom_site_fract_x
_atom_site_fract_y
_atom_site_fract_z
_atom_type_partial_charge
C1    C     C_R   0.413807 0.499939 0.912536 0.939774
C2    C     C_R   0.702933 0.465665 0.172176 0.582610
C3    C     C_R   0.500072 0.134359 0.499031 -0.030323
C4    C     C_R   0.999984 0.726108 0.498185 0.106220
C5    C     C_R   0.499984 0.226105 0.498185 0.107765
C6    C     C_R   0.460352 0.702857 0.470813 -0.155759
C7    C     C_R   0.539956 0.703463 0.533050 -0.154509
C8    C     C_R   0.960789 0.203292 0.455289 -0.159455
C9    C     C_R   0.040131 0.203111 0.548723 -0.159966
C10   C     C_R   0.460332 0.657114 0.470014 -0.177171
C11   C     C_R   0.539994 0.657686 0.532580 -0.176305
C12   C     C_R   0.960624 0.157530 0.454547 -0.183303
C13   C     C_R   0.797123 0.034690 0.824276 0.557793
C14   C     C_R   0.040023 0.157348 0.547833 -0.180495
C15   C     C_R   0.500153 0.634315 0.500879 -0.040366
C16   C     C_R   0.000255 0.134342 0.500768 -0.035470
C17   C     C_R   0.032584 0.297642 0.499529 -0.197940
C18   C     C_R   0.968771 0.296829 0.505797 -0.198462
C19   C     C_R   0.531420 0.797180 0.566713 -0.194319
C20   C     C_R   0.468466 0.797229 0.436787 -0.194956
C21   C     C_R   0.500131 0.726170 0.502128 0.154804
C22   C     C_R   0.000530 0.226207 0.502400 0.157178
C23   C     C_R   0.000386 0.366085 0.501619 -0.229727
C24   C     C_R   0.203011 0.036001 0.175991 0.557132
C25   C     C_R   0.499876 0.866063 0.501077 -0.229608
C26   C     C_R   0.032676 0.343449 0.499056 0.343735
C27   C     C_R   0.968381 0.342641 0.505134 0.343346
C28   C     C_R   0.531609 0.842999 0.566660 0.344914
C29   C     C_R   0.468140 0.843022 0.435995 0.345185
C30   C     C_2   0.529335 0.473859 0.745619 -0.273710
C31   C     C_2   0.470598 0.526101 0.254308 -0.272884
C32   C     C_2   0.029377 0.973873 0.745667 -0.271507
C33   C     C_2   0.970690 0.026147 0.254404 -0.269494
C34   C     C_2   0.495405 0.490519 0.680403 0.238728
C35   C     C_R   0.343128 0.465644 0.872567 -0.362299
C36   C     C_2   0.504600 0.509617 0.319614 0.236853
C37   C     C_2   0.995394 0.990394 0.680379 0.236064
C38   C     C_2   0.004604 0.009460 0.319606 0.234871
C39   C     C_2   0.526291 0.469092 0.809476 -0.128427
C40   C     C_2   0.473659 0.530874 0.190469 -0.101808
C41   C     C_2   0.026311 0.969105 0.809500 -0.097781
C42   C     C_2   0.973745 0.030918 0.190562 -0.120162
C43   C     C_3   0.285375 0.425571 0.907046 -0.321365
C44   C     C_3   0.714318 0.428677 0.092516 -0.323938
C45   C     C_3   0.771357 0.104639 0.792859 -0.293735
C46   C     C_R   0.656751 0.466836 0.127117 -0.362586
C47   C     C_3   0.229135 0.105929 0.207418 -0.290831
C48   C     C_R   0.842956 0.032987 0.871345 -0.339765
C49   C     C_R   0.157163 0.034108 0.128882 -0.338899
C50   C     C_R   0.365920 0.499455 0.863206 -0.188390
C51   C     C_R   0.634075 0.499916 0.136598 -0.188576
C52   C     C_R   0.865987 0.000038 0.862476 -0.196968
C53   C     C_R   0.586190 0.500074 0.087436 0.940067
C54   C     C_R   0.134011 0.000477 0.137712 -0.196944
C55   C     C_R   0.342681 0.531310 0.806093 0.416659
C56   C     C_R   0.657420 0.531290 0.193698 0.416132
C57   C     C_R   0.842968 0.968568 0.805318 0.410578
C58   C     C_R   0.156913 0.968554 0.194947 0.411062
C59   C     C_R   0.296936 0.529232 0.759913 -0.295451
C60   C     C_R   0.703164 0.529446 0.239816 -0.295447
C61   C     C_R   0.797157 0.969828 0.759244 -0.274280
C62   C     C_R   0.202722 0.970040 0.241081 -0.273999
C63   C     C_R   0.274181 0.496065 0.770402 -0.084647
C64   C     C_R   0.913822 0.999919 0.912481 0.941618
C65   C     C_R   0.725799 0.496983 0.229271 -0.084847
C66   C     C_R   0.774217 0.002220 0.769223 -0.095817
C67   C     C_R   0.225790 0.003088 0.231083 -0.096094
C68   C     C_R   0.202800 0.498978 0.755593 -0.099979
C69   C     C_R   0.797270 0.500795 0.244326 -0.098661
C70   C     C_R   0.703783 0.002548 0.644264 -0.186565
C71   C     C_R   0.296286 0.002559 0.355942 -0.186551
C72   C     C_R   0.157085 0.500212 0.710628 -0.203229
C73   C     C_R   0.842993 0.501705 0.289371 -0.203306
C74   C     C_R   0.657958 0.001882 0.599409 -0.183132
C75   C     C_R   0.086179 0.000051 0.087545 0.941682
C76   C     C_R   0.342098 0.001608 0.400712 -0.182650
C77   C     C_R   0.134463 0.498882 0.632556 -0.035644
C78   C     C_R   0.865536 0.499285 0.367414 -0.036195
C79   C     C_R   0.634471 0.000133 0.632390 -0.035589
C80   C     C_R   0.365522 0.000506 0.367647 -0.035551
C81   C     C_R   0.503022 0.500480 0.884167 0.932475
C82   C     C_R   0.497001 0.499521 0.115861 0.934758
C83   C     C_R   0.002995 0.000478 0.884135 0.935156
C84   C     C_R   0.996986 0.999520 0.115841 0.934427
C85   C     C_R   0.158052 0.496286 0.599915 -0.151903
C86   C     C_2   0.510740 0.502975 0.826387 -0.229434
C87   C     C_R   0.841864 0.496016 0.399960 -0.153384
C88   C     C_R   0.657213 0.998784 0.710522 -0.177865
C89   C     C_R   0.342718 0.000203 0.289498 -0.179565
C90   C     C_R   0.203877 0.495031 0.645083 -0.155109
C91   C     C_R   0.796021 0.495050 0.354700 -0.155791
C92   C     C_R   0.702968 0.999445 0.755213 -0.077444
C93   C     C_R   0.296968 0.001178 0.244882 -0.078480
C94   C     C_R   0.226205 0.496188 0.722911 0.181347
C95   C     C_R   0.773771 0.497204 0.276889 0.180910
C96   C     C_R   0.726251 0.001582 0.722141 0.157338
C97   C     C_2   0.489332 0.497033 0.173701 -0.246942
C98   C     C_R   0.273758 0.002553 0.278056 0.157715
C99   C     C_R   0.499931 0.413711 0.499853 0.860766
C100  C     C_R   0.999931 0.913711 0.499852 0.864491
C101  C     C_R   0.499137 0.497838 0.618290 0.855513
C102  C     C_R   0.500864 0.502193 0.381711 0.852487
C103  C     C_R   0.999135 0.997808 0.618287 0.853598
C104  C     C_R   0.000864 0.002154 0.381712 0.855655
C105  C     C_R   0.500069 0.586314 0.500166 0.871180
C106  C     C_R   0.000080 0.086323 0.500119 0.866072
C107  C     C_R   0.000049 0.413807 0.500428 1.004142
C108  C     C_2   0.010667 0.002960 0.826298 -0.240928
C109  C     C_R   0.499988 0.913800 0.500363 1.002159
C110  C     C_R   0.086434 0.499835 0.585757 0.894445
C111  C     C_R   0.913569 0.499895 0.414245 0.895004
C112  C     C_R   0.586433 0.999949 0.585743 0.895207
C113  C     C_R   0.413563 0.000002 0.414259 0.895062
C114  C     C_R   0.000014 0.586402 0.499652 0.856771
C115  C     C_R   0.500014 0.086402 0.499652 0.855253
C116  C     C_R   0.462163 0.297012 0.443098 -0.169606
C117  C     C_R   0.537838 0.296845 0.553429 -0.169681
C118  C     C_R   0.962176 0.797014 0.443063 -0.163006
C119  C     C_2   0.989269 0.997025 0.173621 -0.231112
C120  C     C_R   0.037827 0.796846 0.553463 -0.163214
C121  C     C_R   0.000695 0.274282 0.502781 -0.037766
C122  C     C_R   0.499995 0.774250 0.501934 -0.035686
C123  C     C_R   0.461968 0.342802 0.443963 -0.177755
C124  C     C_R   0.537861 0.342611 0.553816 -0.180054
C125  C     C_R   0.961979 0.842804 0.443929 -0.170491
C126  C     C_R   0.037850 0.842612 0.553849 -0.173570
C127  C     C_R   0.499866 0.365757 0.499254 -0.027348
C128  C     C_R   0.999866 0.865758 0.499254 -0.030391
C129  C     C_R   0.500031 0.274031 0.498027 0.107799
C130  C     C_R   0.296932 0.464226 0.827451 0.582388
C131  C     C_R   0.000032 0.774033 0.498026 0.104411
C132  C     C_R   0.012027 0.702974 0.563296 -0.165286
C133  C     C_R   0.987956 0.703438 0.433440 -0.164100
C134  C     C_R   0.512078 0.202971 0.563324 -0.170841
C135  C     C_R   0.487905 0.203434 0.433414 -0.170211
C136  C     C_R   0.011834 0.657208 0.563624 -0.182133
C137  C     C_R   0.988270 0.657622 0.433978 -0.182941
C138  C     C_R   0.511886 0.157206 0.563652 -0.185399
C139  C     C_R   0.488219 0.157619 0.433951 -0.186202
C140  C     C_R   0.000072 0.634361 0.499031 -0.031673
Cl1   Cl    Cl    0.074717 0.371224 0.498015 -0.593087
Cl2   Cl    Cl    0.630984 0.571721 0.212620 -0.538701
Cl3   Cl    Cl    0.869855 0.928346 0.786992 -0.539552
Cl4   Cl    Cl    0.129880 0.927405 0.213247 -0.547822
Cl5   Cl    Cl    0.926182 0.369392 0.505526 -0.594134
Cl6   Cl    Cl    0.573243 0.870232 0.648767 -0.595410
Cl7   Cl    Cl    0.426433 0.870221 0.353334 -0.595209
Cl8   Cl    Cl    0.441733 0.496859 0.660935 -0.549135
Cl9   Cl    Cl    0.558326 0.503651 0.339163 -0.546210
Cl10  Cl    Cl    0.941673 0.996419 0.660834 -0.549277
Cl11  Cl    Cl    0.058273 0.003079 0.339078 -0.552269
Cl12  Cl    Cl    0.369246 0.572731 0.787277 -0.547091
H1    H     H_    0.559697 0.463879 0.752413 0.150383
H2    H     H_    0.858684 0.494058 0.460094 0.175028
H3    H     H_    0.639733 0.997184 0.737139 0.173765
H4    H     H_    0.360145 0.999175 0.262813 0.173188
H5    H     H_    0.221945 0.493002 0.619595 0.156948
H6    H     H_    0.777881 0.492385 0.380097 0.156641
H7    H     H_    0.720254 0.998036 0.815501 0.160382
H8    H     H_    0.279625 0.000516 0.184581 0.160016
H9    H     H_    0.057190 0.280254 0.496763 0.181139
H10   H     H_    0.944215 0.278794 0.508802 0.180999
H11   H     H_    0.555705 0.779445 0.617370 0.180688
H12   H     H_    0.440152 0.535874 0.247394 0.153106
H13   H     H_    0.444264 0.779552 0.386390 0.180301
H14   H     H_    0.432711 0.279482 0.400344 0.137480
H15   H     H_    0.567322 0.279207 0.595880 0.137273
H16   H     H_    0.932733 0.779485 0.400282 0.141356
H17   H     H_    0.067302 0.779207 0.595941 0.140933
H18   H     H_    0.432411 0.360193 0.401198 0.158679
H19   H     H_    0.567381 0.359821 0.597057 0.157427
H20   H     H_    0.932431 0.860197 0.401138 0.161947
H21   H     H_    0.067361 0.859822 0.597117 0.160311
H22   H     H_    0.021111 0.720367 0.613447 0.141622
H23   H     H_    0.059808 0.964061 0.752564 0.154098
H24   H     H_    0.978815 0.721219 0.382989 0.141978
H25   H     H_    0.521202 0.220363 0.613497 0.138822
H26   H     H_    0.478723 0.221215 0.382940 0.138694
H27   H     H_    0.021181 0.639755 0.614435 0.159417
H28   H     H_    0.978943 0.640453 0.383531 0.158882
H29   H     H_    0.521274 0.139751 0.614484 0.158977
H30   H     H_    0.478851 0.140449 0.383483 0.158301
H31   H     H_    0.429411 0.720033 0.447574 0.148470
H32   H     H_    0.570868 0.721147 0.556622 0.148465
H33   H     H_    0.930034 0.220811 0.418503 0.146001
H34   H     H_    0.940336 0.036152 0.247615 0.155597
H35   H     H_    0.070999 0.220470 0.586008 0.146292
H36   H     H_    0.429239 0.639674 0.445716 0.169742
H37   H     H_    0.571071 0.640681 0.556412 0.169559
H38   H     H_    0.929585 0.140394 0.417534 0.165373
H39   H     H_    0.070956 0.140058 0.584258 0.166484
H40   H     H_    0.537229 0.438800 0.842479 0.165102
H41   H     H_    0.462618 0.561119 0.157347 0.173119
H42   H     H_    0.037323 0.938849 0.842595 0.171869
H43   H     H_    0.962838 0.061223 0.157596 0.168849
H44   H     H_    0.504526 0.534568 0.797600 0.191248
H45   H     H_    0.139546 0.502392 0.737010 0.163013
H46   H     H_    0.495661 0.465474 0.202627 0.179894
H47   H     H_    0.004364 0.034525 0.797397 0.180875
H48   H     H_    0.995458 0.965425 0.202379 0.190563
H49   H     H_    0.361390 0.440434 0.915001 0.178556
H50   H     H_    0.638406 0.441969 0.084674 0.177207
H51   H     H_    0.860486 0.057341 0.915137 0.185697
H52   H     H_    0.139721 0.058818 0.085046 0.187469
H53   H     H_    0.278938 0.553750 0.715915 0.195906
H54   H     H_    0.721252 0.553564 0.283856 0.196100
H55   H     H_    0.779308 0.945267 0.715919 0.200128
H56   H     H_    0.860603 0.504481 0.263069 0.162966
H57   H     H_    0.220473 0.945116 0.284420 0.200023
H58   H     H_    0.219964 0.500706 0.815776 0.135637
H59   H     H_    0.780180 0.503302 0.184165 0.136182
H60   H     H_    0.721742 0.004221 0.618468 0.154224
H61   H     H_    0.278385 0.003623 0.381816 0.154421
H62   H     H_    0.289087 0.458095 0.933551 0.140440
H63   H     H_    0.316033 0.405825 0.941566 0.173477
H64   H     H_    0.258678 0.407255 0.905756 0.204919
H65   H     H_    0.710705 0.461590 0.066017 0.141651
H66   H     H_    0.683593 0.408854 0.058005 0.172029
H67   H     H_    0.641007 0.002930 0.539201 0.167050
H68   H     H_    0.740947 0.410939 0.093772 0.204830
H69   H     H_    0.752666 0.097309 0.732021 0.164909
H70   H     H_    0.804540 0.118480 0.813371 0.166644
H71   H     H_    0.752848 0.130362 0.800013 0.197371
H72   H     H_    0.247849 0.097935 0.268259 0.164694
H73   H     H_    0.196031 0.119437 0.187017 0.167195
H74   H     H_    0.247729 0.132159 0.200193 0.197311
H75   H     H_    0.359089 0.001864 0.460931 0.167216
H76   H     H_    0.141179 0.495149 0.539761 0.175217
O1    O     O_R   0.434530 0.536960 0.934530 -0.578450
O2    O     O_R   0.934540 0.500010 0.383460 -0.633757
O3    O     O_R   0.565460 0.000010 0.616540 -0.610390
O4    O     O_R   0.434540 0.000010 0.383460 -0.610116
O5    O     O_R   0.000010 0.565480 0.448930 -0.629705
O6    O     O_R   0.999990 0.565480 0.551070 -0.629339
O7    O     O_R   0.500010 0.065480 0.448930 -0.630347
O8    O     O_R   0.499990 0.065480 0.551070 -0.629907
O9    O     O_R   0.434530 0.463040 0.934530 -0.628473
O10   O     O_R   0.565470 0.463040 0.065470 -0.632116
O11   O     O_R   0.934530 0.963040 0.934530 -0.572879
O12   O     O_R   0.565470 0.536960 0.065470 -0.574970
O13   O     O_R   0.065470 0.963040 0.065470 -0.576342
O14   O     O_R   0.500010 0.536960 0.909550 -0.603589
O15   O     O_R   0.499990 0.536960 0.090450 -0.592844
O16   O     O_R   0.000010 0.036960 0.909550 -0.630336
O17   O     O_R   0.999990 0.036960 0.090450 -0.619759
O18   O     O_R   0.500010 0.463040 0.909550 -0.619277
O19   O     O_R   0.499990 0.463040 0.090450 -0.631442
O20   O     O_R   0.000010 0.963040 0.909550 -0.593766
O21   O     O_R   0.999990 0.963040 0.090450 -0.603680
O22   O     O_R   0.536960 0.434530 0.536970 -0.623428
O23   O     O_R   0.934530 0.036960 0.934530 -0.636046
O24   O     O_R   0.463040 0.434530 0.463030 -0.620871
O25   O     O_R   0.036960 0.934530 0.536970 -0.621419
O26   O     O_R   0.963040 0.934530 0.463030 -0.618756
O27   O     O_R   0.536950 0.500000 0.627420 -0.647073
O28   O     O_R   0.463050 0.500000 0.372580 -0.648173
O29   O     O_R   0.036950 1.000000 0.627420 -0.646974
O30   O     O_R   0.963050 0.000000 0.372580 -0.647062
O31   O     O_R   0.463030 0.500000 0.553490 -0.560436
O32   O     O_R   0.536970 0.500000 0.446510 -0.559949
O33   O     O_R   0.963030 0.000000 0.553490 -0.559592
O34   O     O_R   0.065470 0.036960 0.065470 -0.632265
O35   O     O_R   0.036970 0.000000 0.446510 -0.559541
O36   O     O_R   0.536960 0.565470 0.536960 -0.619920
O37   O     O_R   0.463040 0.565470 0.463040 -0.623186
O38   O     O_R   0.036960 0.065470 0.536960 -0.621402
O39   O     O_R   0.963040 0.065470 0.463040 -0.623950
O40   O     O_R   0.000000 0.434540 0.448940 -0.583639
O41   O     O_R   0.000000 0.434540 0.551060 -0.584032
O42   O     O_R   0.500000 0.934540 0.448940 -0.581884
O43   O     O_R   0.500000 0.934540 0.551060 -0.582573
O44   O     O_3   0.273410 0.430014 0.832951 -0.586919
O45   O     O_R   0.065470 0.500010 0.514410 -0.609487
O46   O     O_3   0.726318 0.432067 0.166628 -0.587316
O47   O     O_3   0.774757 0.066905 0.834494 -0.613828
O48   O     O_3   0.225509 0.068841 0.165722 -0.613541
O49   O     O_R   0.934530 0.500010 0.485590 -0.609827
O50   O     O_R   0.565470 0.000010 0.514410 -0.632854
O51   O     O_R   0.434530 0.000010 0.485590 -0.632629
O52   O     O_R   0.065460 0.500010 0.616540 -0.633974
Zn1   Zn    Zn3+2 0.500000 0.549350 0.000000 1.079290
Zn2   Zn    Zn3+2 0.999990 0.500010 0.568190 1.010568
Zn3   Zn    Zn3+2 0.500010 0.000010 0.431810 1.011843
Zn4   Zn    Zn3+2 0.499990 0.000010 0.568190 1.011783
Zn5   Zn    Zn3+2 0.000000 0.049350 0.000000 0.979335
Zn6   Zn    Zn3+2 0.500000 0.450640 0.000000 0.982314
Zn7   Zn    Zn3+2 0.000000 0.950640 0.000000 1.078316
Zn8   Zn    Zn3+2 0.549360 0.500000 0.549360 1.005603
Zn9   Zn    Zn3+2 0.450640 0.500000 0.450640 1.004579
Zn10  Zn    Zn3+2 0.049360 0.000000 0.549360 1.009197
Zn11  Zn    Zn3+2 0.950640 1.000000 0.450640 1.009458
Zn12  Zn    Zn3+2 0.000010 0.500010 0.431810 1.010723

loop_
_geom_bond_atom_site_label_1
_geom_bond_atom_site_label_2
_ccdc_geom_bond_type
O30   Zn11  S    
C58   C62   A    
C44   O46   S    
C47   H72   S    
C28   Cl6   S    
C19   C122  A    
C133  C137  A    
C41   C108  D    
C55   C59   A    
C93   H8    S    
C120  C131  A    
C70   H60   S    
O31   Zn9   S    
O25   Zn10  S    
O8    Zn4   S    
C93   C98   A    
C37   Cl10  S    
C136  C140  A    
C2    C65   A    
C43   H63   S    
C115  O7    A    
O43   Zn4   S    
O28   Zn9   S    
C55   Cl12  S    
C4    C132  A    
C46   H50   S    
C2    C46   A    
C25   C28   A    
C7    C11   A    
C20   H13   S    
C124  H19   S    
C63   C94   S    
C106  O39   A    
C109  O42   A    
C112  O3    A    
C62   C67   A    
C113  O4    A    
C92   H7    S    
C45   H70   S    
C111  O49   A    
O5    Zn12  S    
C101  O27   A    
C117  C124  A    
O52   Zn2   S    
C51   C56   A    
C87   C91   A    
C10   C15   A    
O19   Zn6   S    
C24   O48   S    
C71   C76   A    
C82   O15   A    
C120  C126  A    
C36   Cl9   S    
C63   C130  A    
C114  O6    A    
C82   O19   A    
C43   H64   S    
C105  O37   A    
C49   C54   A    
C110  O45   A    
C101  O31   A    
C92   C96   A    
C31   C40   S    
C36   C102  S    
O24   Zn9   S    
C23   C26   A    
C80   C89   A    
C125  H20   S    
C138  H29   S    
C115  O8    A    
C64   O11   A    
C38   C104  S    
C118  C131  A    
C24   C67   A    
C86   H44   S    
C72   H45   S    
C31   H12   S    
C11   C15   A    
C61   C66   A    
C30   H1    S    
C116  C129  A    
C12   C16   A    
C91   H6    S    
C44   H68   S    
C74   H67   S    
C70   C74   A    
C125  C128  A    
C8    C22   A    
C32   C41   S    
C69   C73   A    
C33   H34   S    
C69   H59   S    
C104  O35   A    
C23   C27   A    
O42   Zn3   S    
O40   Zn12  S    
O49   Zn2   S    
C117  C129  A    
C1    C50   S    
C113  O51   A    
O14   Zn1   S    
C110  O52   A    
C81   C86   S    
C67   C98   S    
C8    C12   A    
C40   H41   S    
C56   Cl2   S    
C59   H53   S    
C5    C129  S    
C134  C138  A    
C49   H52   S    
C77   C85   A    
O16   Zn5   S    
C134  H25   S    
C76   H75   S    
O37   Zn9   S    
C103  O29   A    
C116  H14   S    
C42   H43   S    
C34   Cl8   S    
C99   O22   A    
C100  O26   A    
O9    Zn6   S    
C97   H46   S    
C53   O12   A    
C111  O2    A    
C79   C88   A    
C137  C140  A    
O29   Zn10  S    
C90   C94   A    
C114  O5    A    
C21   C122  S    
C13   C66   A    
C25   C29   A    
C5    C134  A    
C32   H23   S    
C106  O38   A    
C34   C101  S    
C32   C37   D    
C30   C34   D    
C65   C95   S    
O17   Zn5   S    
C119  H48   S    
C45   H71   S    
C88   H3    S    
C88   C92   A    
O3    Zn4   S    
C44   H66   S    
C68   C72   A    
C41   H42   S    
O2    Zn12  S    
C52   C64   S    
C40   C97   D    
C37   C103  S    
C57   Cl3   S    
C47   O48   S    
C35   H49   S    
C89   H4    S    
C99   C127  S    
O6    Zn2   S    
C45   O47   S    
C73   C78   A    
C46   C51   A    
O7    Zn3   S    
C56   C60   A    
O35   Zn10  S    
C84   O17   A    
C51   C53   S    
O36   Zn8   S    
C81   O14   A    
C83   O20   A    
C116  C123  A    
C70   C96   A    
C9    C14   A    
C137  H28   S    
C29   Cl7   S    
C72   C77   A    
C75   O13   A    
C1    O1    A    
C2    O46   S    
C64   O23   A    
C130  O44   S    
C68   H58   S    
C123  C127  A    
C18   C27   A    
C47   H73   S    
O1    Zn1   S    
O50   Zn3   S    
C27   Cl5   S    
C23   C107  S    
C35   C50   A    
C132  H22   S    
C103  O33   A    
C87   H2    S    
O38   Zn10  S    
C85   H76   S    
C104  O30   A    
O51   Zn4   S    
O13   Zn7   S    
C19   C28   A    
C126  H21   S    
C35   C130  A    
C83   C108  S    
C78   C111  S    
C139  H30   S    
C17   H9    S    
C61   H55   S    
C124  C127  A    
C14   H39   S    
C79   C112  S    
C17   C121  A    
C107  O41   A    
C118  C125  A    
C73   H56   S    
C60   C65   A    
C114  C140  S    
C74   C79   A    
C112  O50   A    
C82   C97   S    
C14   C16   A    
O41   Zn2   S    
O18   Zn6   S    
C3    C139  A    
C17   C26   A    
C100  O25   A    
C26   Cl1   S    
C78   C87   A    
O20   Zn7   S    
C38   Cl11  S    
C107  O40   A    
C12   H38   S    
C22   C121  S    
C66   C96   S    
C54   C58   A    
O11   Zn7   S    
C24   C49   A    
C5    C135  A    
C132  C136  A    
C71   C98   A    
C126  C128  A    
O45   Zn12  S    
C84   O21   A    
C100  C128  S    
C20   C122  A    
C81   O18   A    
C44   H65   S    
C76   C80   A    
C135  H26   S    
C99   O24   A    
C69   C95   A    
O10   Zn6   S    
C53   O10   A    
C6    C10   A    
C13   C48   A    
C85   C90   A    
C57   C61   A    
C25   C109  S    
C8    H33   S    
C18   H10   S    
C43   O44   S    
C135  C139  A    
C59   C63   A    
C50   C55   A    
C6    H31   S    
O12   Zn1   S    
C1    O9    A    
C42   C119  D    
C15   C105  S    
C108  H47   S    
O39   Zn11  S    
C45   H69   S    
C109  O43   A    
C71   H61   S    
O15   Zn1   S    
C7    C21   A    
C39   H40   S    
C6    C21   A    
C60   H54   S    
C16   C106  S    
C47   H74   S    
C117  H15   S    
C84   C119  S    
C3    C138  A    
C4    C133  A    
O33   Zn11  S    
C118  H16   S    
C7    H32   S    
C62   H57   S    
C102  O32   A    
C30   C39   S    
C102  O28   A    
O4    Zn3   S    
C89   C93   A    
C77   C110  S    
C120  H17   S    
C133  H24   S    
C68   C94   A    
C75   O34   A    
C123  H18   S    
C52   C57   A    
C13   O47   S    
C18   C121  A    
C91   C95   A    
C54   C75   S    
C9    H35   S    
C58   Cl4   S    
C48   C52   A    
O34   Zn5   S    
C80   C113  S    
O32   Zn8   S    
C20   C29   A    
C9    C22   A    
O21   Zn7   S    
C4    C131  S    
O27   Zn8   S    
C105  O36   A    
O22   Zn8   S    
C31   C36   D    
C90   H5    S    
C33   C38   D    
C3    C115  S    
O23   Zn5   S    
C39   C86   D    
C11   H37   S    
C43   H62   S    
C10   H36   S    
C136  H27   S    
O26   Zn11  S    
C48   H51   S    
C33   C42   S    
C83   O16   A    
C19   H11   S    
