data_mof_unit_20683.cif
_audit_creation_date              2013-03-05T15:50:20-0500
_audit_creation_method            fapswitch 2.2
_symmetry_space_group_name_H-M    P1
_symmetry_Int_Tables_number       1
_space_group_crystal_system       triclinic
_cell_length_a                    21.562968
_cell_length_b                    7.233944
_cell_length_c                    20.013357
_cell_angle_alpha                 89.652801
_cell_angle_beta                  87.494422
_cell_angle_gamma                 89.621508
_cell_volume                      3118.68494743

loop_
_atom_site_label
_atom_site_type_symbol
_atom_site_description
_atom_site_fract_x
_atom_site_fract_y
_atom_site_fract_z
_atom_type_partial_charge
O1    O     O_R   0.688010 0.379840 0.189360 -0.594393
O2    O     O_R   0.311990 0.620160 0.810640 -0.591686
O3    O     O_R   0.811990 0.879840 0.310640 -0.569926
O4    O     O_R   0.188010 0.120160 0.689360 -0.570717
O5    O     O_R   0.808630 0.708850 0.184280 -0.564056
O6    O     O_R   0.191370 0.291150 0.815720 -0.564709
O7    O     O_R   0.691370 0.208850 0.315720 -0.573047
O8    O     O_R   0.308630 0.791150 0.684280 -0.575395
C1    C     C_R   0.830382 0.540869 0.166572 0.944822
C2    C     C_R   0.169585 0.459141 0.833389 0.944763
C3    C     C_R   0.669541 0.041048 0.333333 0.945319
C4    C     C_R   0.330457 0.958954 0.666667 0.951272
O9    O     O_R   0.688260 0.709510 0.181570 -0.570780
O10   O     O_R   0.311740 0.290490 0.818430 -0.563720
O11   O     O_R   0.811740 0.209510 0.318430 -0.602296
O12   O     O_R   0.188260 0.790490 0.681570 -0.602563
O13   O     O_R   0.690760 0.880550 0.307920 -0.557144
O14   O     O_R   0.309240 0.119450 0.692080 -0.556099
O15   O     O_R   0.809240 0.380550 0.192080 -0.564912
O16   O     O_R   0.190760 0.619450 0.807920 -0.565313
C5    C     C_R   0.669012 0.541604 0.165089 0.927820
C6    C     C_R   0.330993 0.458404 0.834857 0.924657
C7    C     C_R   0.830421 0.039747 0.335369 0.925059
C8    C     C_R   0.169579 0.960252 0.664631 0.923643
O17   O     O_3   0.750960 0.546580 0.291460 -0.273632
O18   O     O_3   0.249040 0.453420 0.708540 -0.275628
O19   O     O_3   0.749040 0.046580 0.208540 -0.273208
O20   O     O_3   0.250960 0.953420 0.791460 -0.270554
V1    V     V_3+5 0.749820 0.821150 0.242310 1.186557
V2    V     V_3+5 0.250180 0.178850 0.757690 1.193120
V3    V     V_3+5 0.750180 0.321150 0.257690 1.156188
V4    V     V_3+5 0.249820 0.678850 0.742310 1.156863
C9    C     C_R   0.073201 0.844993 0.616503 -0.191504
C10   C     C_R   0.926797 0.155009 0.383500 -0.191494
C11   C     C_R   0.426498 0.598773 0.876375 -0.181985
C12   C     C_R   0.573919 0.399418 0.122953 -0.180286
C13   C     C_R   0.121735 0.972617 0.613335 -0.214971
C14   C     C_R   0.878264 0.027382 0.386666 -0.215580
C15   C     C_R   0.379474 0.467059 0.885539 -0.207684
C16   C     C_R   0.620255 0.533470 0.114615 -0.216144
C17   C     C_R   0.123002 0.111661 0.563012 -0.002060
C18   C     C_R   0.876996 0.888339 0.436990 -0.002045
C19   C     C_R   0.379756 0.346740 0.941762 0.011175
C20   C     C_R   0.619116 0.656399 0.059206 -0.006629
C21   C     C_R   0.073730 0.123803 0.517974 0.101783
C22   C     C_R   0.926267 0.876200 0.482029 0.101810
C23   C     C_R   0.428223 0.359994 0.987588 0.089214
C24   C     C_R   0.570672 0.643341 0.013364 0.094695
C25   C     C_R   0.024367 0.995162 0.522835 0.049542
C26   C     C_R   0.975630 0.004841 0.477168 0.049576
C27   C     C_R   0.475040 0.495726 0.977764 0.026187
C28   C     C_R   0.523354 0.509607 0.023678 0.034863
C29   C     C_R   0.024045 0.855467 0.572728 -0.002843
C30   C     C_R   0.975952 0.144537 0.427276 -0.002767
C31   C     C_R   0.473832 0.616892 0.921959 -0.023238
C32   C     C_R   0.524829 0.387771 0.079219 -0.015555
C33   C     C_R   0.073210 0.259694 0.467262 -0.306207
C34   C     C_R   0.926786 0.740313 0.532743 -0.306121
C35   C     C_R   0.430443 0.242259 0.043728 -0.314366
C36   C     C_R   0.569064 0.759214 0.956692 -0.318697
C37   C     C_R   0.025282 0.272086 0.422649 0.344771
C38   C     C_R   0.974714 0.727921 0.577356 0.344844
C39   C     C_R   0.477695 0.254282 0.089118 0.334828
C40   C     C_R   0.521287 0.749615 0.911821 0.337908
H1    H     H_    0.074044 0.737845 0.654360 0.177899
H2    H     H_    0.925954 0.262158 0.345643 0.177925
H3    H     H_    0.426358 0.684775 0.832006 0.183912
H4    H     H_    0.576586 0.304019 0.164541 0.180825
H5    H     H_    0.110734 0.357110 0.460472 0.178539
H6    H     H_    0.889261 0.642901 0.539534 0.178492
H7    H     H_    0.394726 0.140539 0.053976 0.182331
H8    H     H_    0.604869 0.860811 0.946607 0.183821
C41   C     C_1   0.382722 0.968745 0.614593 -0.298806
C42   C     C_1   0.617268 0.031264 0.385396 -0.292301
C43   C     C_1   0.117381 0.469417 0.885518 -0.300771
C44   C     C_1   0.882531 0.530665 0.114376 -0.300739
C45   C     C_1   0.426317 0.979484 0.571807 0.060895
C46   C     C_1   0.573667 0.020533 0.428175 0.066101
C47   C     C_1   0.073772 0.480175 0.928281 0.066250
C48   C     C_1   0.926113 0.519962 0.071580 0.067654
C49   C     C_1   0.478124 0.993810 0.521274 0.012179
C50   C     C_1   0.521857 0.006212 0.478704 0.013827
C51   C     C_1   0.021858 0.494088 0.978695 0.013770
C52   C     C_1   0.978018 0.506071 0.021152 0.013779
C53   C     C_R   0.178054 0.233677 0.554315 0.103682
C54   C     C_R   0.235604 0.159043 0.532184 -0.165728
C55   C     C_R   0.286959 0.274067 0.521319 -0.083795
C56   C     C_R   0.281172 0.464139 0.532073 -0.082519
C57   C     C_R   0.224070 0.539365 0.553947 -0.034234
C58   C     C_R   0.172832 0.424526 0.566098 -0.094443
H9    H     H_    0.240482 0.012379 0.522697 0.094418
H10   H     H_    0.331090 0.216145 0.503873 0.123660
H11   H     H_    0.320818 0.553313 0.523092 0.109468
H12   H     H_    0.219552 0.686816 0.561053 0.094671
H13   H     H_    0.128780 0.484122 0.583044 0.120770
C59   C     C_R   0.821944 0.766322 0.445684 0.103755
C60   C     C_R   0.827167 0.575470 0.433908 -0.094488
C61   C     C_R   0.775927 0.460635 0.446054 -0.034080
C62   C     C_R   0.718823 0.535866 0.467917 -0.082036
C63   C     C_R   0.713036 0.725941 0.478665 -0.084640
C64   C     C_R   0.764392 0.840961 0.467806 -0.164973
H14   H     H_    0.871220 0.515870 0.416969 0.120789
H15   H     H_    0.780445 0.313182 0.438952 0.094542
H16   H     H_    0.679175 0.446695 0.476894 0.108758
H17   H     H_    0.668902 0.783868 0.496103 0.121893
H18   H     H_    0.759513 0.987627 0.477288 0.093993
C65   C     C_R   0.328145 0.213279 0.953591 0.104183
C66   C     C_R   0.338712 0.022387 0.946345 -0.087564
C67   C     C_R   0.289722 0.897997 0.955696 -0.072128
C68   C     C_R   0.229845 0.963061 0.971995 -0.068041
C69   C     C_R   0.218954 0.152666 0.979459 -0.072059
C70   C     C_R   0.267864 0.277602 0.970336 -0.161142
H19   H     H_    0.384817 0.970149 0.933932 0.154965
H20   H     H_    0.298156 0.751224 0.950282 0.099694
H21   H     H_    0.191930 0.866532 0.978938 0.105272
H22   H     H_    0.172568 0.202872 0.992175 0.116733
H23   H     H_    0.258756 0.424214 0.975889 0.087738
C71   C     C_R   0.670048 0.791883 0.047839 0.114085
C72   C     C_R   0.730309 0.730614 0.029383 -0.156288
C73   C     C_R   0.778523 0.857814 0.020159 -0.071904
C74   C     C_R   0.766850 0.046605 0.028981 -0.067823
C75   C     C_R   0.706949 0.108479 0.047057 -0.065294
C76   C     C_R   0.658683 0.981717 0.056928 -0.103874
H24   H     H_    0.739914 0.584634 0.022554 0.088058
H25   H     H_    0.824941 0.810006 0.006208 0.116803
H26   H     H_    0.804192 0.144994 0.021782 0.103964
H27   H     H_    0.698038 0.254623 0.053461 0.098259
H28   H     H_    0.612519 0.030793 0.071426 0.122714
N1    N     N_R   0.028222 0.414725 0.372416 0.229209
O21   O     O_R   0.041512 0.583117 0.388973 -0.401956
O22   O     O_R   0.029257 0.371078 0.309398 -0.388026
N2    N     N_R   0.971773 0.585286 0.627590 0.229233
O23   O     O_R   0.958480 0.416894 0.611035 -0.401858
O24   O     O_R   0.970740 0.628936 0.690608 -0.387687
N3    N     N_R   0.476358 0.130179 0.145453 0.229593
O25   O     O_R   0.465138 0.955546 0.136843 -0.394137
O26   O     O_R   0.474778 0.195692 0.205924 -0.385910
N4    N     N_R   0.522555 0.875274 0.855848 0.233238
O27   O     O_R   0.574597 0.905670 0.822332 -0.368957
O28   O     O_R   0.475469 0.984079 0.846218 -0.435465

loop_
_geom_bond_atom_site_label_1
_geom_bond_atom_site_label_2
_geom_bond_distance
_ccdc_geom_bond_type
C34   C38   1.397068 A    
C55   C56   1.396929 A    
O1    C5    1.333149 A    
O19   V1    1.761724 S    
O13   V1    1.839573 S    
C65   C70   1.405062 A    
O3    C7    1.330860 A    
C69   C70   1.398639 A    
C48   C52   1.477251 S    
O15   V3    1.839789 S    
C10   H2    1.081223 S    
C49   C50   1.246229 T    
C9    H1    1.081222 S    
N3    O25   1.301703 A    
C40   N4    1.437786 S    
C72   H24   1.083106 S    
O7    C3    1.344309 A    
C21   C33   1.409005 A    
C63   H17   1.081895 S    
C26   C30   1.416175 A    
C18   C59   1.487430 S    
O9    V1    2.014722 S    
C14   C18   1.418608 A    
C54   H9    1.082577 S    
C70   H23   1.082833 S    
O4    C8    1.330860 A    
C36   H8    1.081223 S    
C61   H15   1.080143 S    
C61   C62   1.396687 A    
C60   C61   1.398630 A    
O1    V3    1.998299 S    
C66   C67   1.397794 A    
O2    V4    1.998299 S    
C18   C22   1.424968 A    
C75   H27   1.080653 S    
O3    V1    2.005569 S    
C68   C69   1.397816 A    
C71   C72   1.404912 A    
C1    O15   1.338990 A    
C51   C52   1.246076 T    
C2    O16   1.338881 A    
N2    O23   1.301383 A    
O2    C6    1.332731 A    
C65   C66   1.405432 A    
C69   H22   1.082200 S    
O14   V2    1.839575 S    
C1    C44   1.502743 S    
C11   H3    1.081246 S    
C16   C20   1.418172 A    
C60   H14   1.082282 S    
C37   N1    1.436007 S    
O11   C7    1.336284 A    
C62   H16   1.082458 S    
O12   C8    1.336284 A    
C10   C14   1.399222 A    
C4    C41   1.502911 S    
C22   C34   1.409006 A    
O10   V2    2.014722 S    
C24   C36   1.407753 A    
O5    V1    1.867062 S    
C9    C29   1.405738 A    
O7    V3    1.868225 S    
C11   C31   1.405652 A    
C27   C28   1.423365 A    
O8    V4    1.868228 S    
C38   N2    1.436009 S    
C12   C16   1.400982 A    
C59   C64   1.404856 A    
N4    O27   1.301254 A    
C73   H25   1.082386 S    
C34   H6    1.080057 S    
C15   C19   1.418586 A    
C53   C54   1.404860 A    
C9    C13   1.399226 A    
C39   N3    1.436381 S    
C66   H19   1.080489 S    
C11   C15   1.401437 A    
C59   C60   1.404952 A    
O5    C1    1.343644 A    
C12   C32   1.405965 A    
C29   C38   1.412339 A    
C46   C50   1.477484 S    
C62   C63   1.396928 A    
C20   C71   1.485970 S    
O8    C4    1.344301 A    
C31   C40   1.415099 A    
C8    C13   1.488803 S    
C32   C39   1.413421 A    
O9    C5    1.334105 A    
C19   C65   1.488307 S    
C72   C73   1.398354 A    
C33   C37   1.397066 A    
C74   C75   1.397513 A    
N4    O28   1.300855 A    
C67   H20   1.081321 S    
O6    V2    1.867063 S    
C10   C30   1.405735 A    
C25   C26   1.423661 A    
C73   C74   1.397915 A    
N1    O21   1.301382 A    
O16   V4    1.839787 S    
C64   H18   1.082576 S    
N3    O26   1.301366 A    
C56   H11   1.082460 S    
C3    O13   1.340082 A    
C17   C21   1.424966 A    
C54   C55   1.398137 A    
O17   V3    1.769493 S    
C44   C48   1.245886 T    
C3    C42   1.502869 S    
C58   H13   1.082284 S    
C57   H12   1.080142 S    
C23   C27   1.419610 A    
C53   C58   1.404950 A    
C12   H4    1.081209 S    
O11   V3    2.001745 S    
O18   V4    1.769495 S    
C30   C37   1.412338 A    
O12   V4    2.001744 S    
C7    C14   1.488806 S    
C17   C53   1.487428 S    
C22   C26   1.418221 A    
C35   C39   1.397841 A    
C36   C40   1.398269 A    
O10   C6    1.333915 A    
O20   V2    1.761723 S    
C57   C58   1.398628 A    
C74   H26   1.082520 S    
C67   C68   1.397125 A    
C47   C51   1.477237 S    
C76   H28   1.082791 S    
C5    C16   1.491186 S    
C19   C23   1.424332 A    
C25   C29   1.416176 A    
C6    C15   1.489940 S    
C63   C64   1.398136 A    
C21   C25   1.418220 A    
C27   C31   1.416569 A    
C71   C76   1.404857 A    
C13   C17   1.418605 A    
O6    C2    1.343743 A    
C23   C35   1.408035 A    
C28   C32   1.415706 A    
C24   C28   1.418355 A    
C56   C57   1.396691 A    
N2    O24   1.301188 A    
C45   C49   1.477487 S    
C42   C46   1.246076 T    
C4    O14   1.340052 A    
C41   C45   1.246079 T    
C33   H5    1.080059 S    
C75   C76   1.398393 A    
C55   H10   1.081898 S    
C43   C47   1.245889 T    
C68   H21   1.082470 S    
O4    V2    2.005573 S    
C20   C24   1.424087 A    
C35   H7    1.080976 S    
N1    O22   1.301189 A    
C2    C43   1.502744 S    
