data_mof_unit_39712.cif
_audit_creation_date              2012-12-11T14:35:57-0500
_audit_creation_method            fapswitch 2.2
_symmetry_space_group_name_H-M    P1
_symmetry_Int_Tables_number       1
_space_group_crystal_system       triclinic
_cell_length_a                    13.516309
_cell_length_b                    13.542926
_cell_length_c                    27.492473
_cell_angle_alpha                 90.773084
_cell_angle_beta                  89.99325
_cell_angle_gamma                 59.962178
_cell_volume                      4356.08346131

loop_
_atom_site_label
_atom_site_type_symbol
_atom_type_description
_atom_site_fract_x
_atom_site_fract_y
_atom_site_fract_z
_atom_type_partial_charge
C1    C     C_R   0.619547 0.100726 0.570501 0.548429
C2    C     C_1   0.661176 0.685788 0.654378 -0.010108
C3    C     C_3   0.078726 0.148465 0.737096 0.240755
C4    C     C_R   0.600539 0.777966 0.568093 0.541524
C5    C     C_3   0.170048 0.075260 0.774184 0.130334
C6    C     C_1   0.092939 0.204577 0.901354 0.004616
C7    C     C_1   0.223935 0.142614 0.616114 0.016382
C8    C     C_3   0.041353 0.256820 0.769160 -0.096951
C9    C     C_3   0.135803 0.181516 0.806170 -0.019670
C10   C     C_3   0.131816 0.274474 0.742216 0.051403
C11   C     C_3   0.165821 0.168828 0.709787 0.121000
C12   C     C_1   0.637339 0.721426 0.613675 0.009119
C13   C     C_3   0.224742 0.203176 0.779806 -0.153618
C14   C     C_3   0.256725 0.096521 0.747512 0.216030
C15   C     C_1   0.117003 0.189701 0.858760 -0.029418
C16   C     C_R   0.276767 0.122610 0.569223 0.544589
C17   C     C_1   0.191699 0.156617 0.657712 0.045789
C18   C     C_3   0.632186 0.269881 0.740158 -0.085315
C19   C     C_3   0.553657 0.261848 0.778640 0.263709
C20   C     C_1   0.689211 0.207546 0.903923 0.010704
C21   C     C_1   0.631855 0.130335 0.619447 0.013505
C22   C     C_3   0.737606 0.190942 0.771881 -0.078561
C23   C     C_3   0.709979 0.541364 0.765006 0.236516
C24   C     C_3   0.656525 0.185116 0.809954 0.064527
C25   C     C_3   0.743925 0.086327 0.746392 0.119398
C26   C     C_3   0.641440 0.163074 0.714828 0.030198
C27   C     C_3   0.665817 0.078336 0.784881 -0.142724
C28   C     C_R   0.623297 0.099884 0.431339 0.587077
C29   C     C_3   0.560315 0.156741 0.752958 -0.134198
C30   C     C_1   0.669968 0.196778 0.862080 0.003409
C31   C     C_1   0.637212 0.147761 0.662175 -0.011958
C32   C     C_R   0.740661 0.697445 0.362076 -0.175904
C33   C     C_R   0.754554 0.674991 0.312066 -0.023467
C34   C     C_3   0.694263 0.633044 0.803158 0.057741
C35   C     C_R   0.767520 0.652734 0.210038 0.034201
C36   C     C_R   0.854949 0.658090 0.236015 0.123910
C37   C     C_R   0.846086 0.672009 0.286879 -0.105825
C38   C     C_R   0.774752 0.634358 0.159520 -0.165283
C39   C     C_R   0.685237 0.632965 0.134373 0.022430
C40   C     C_R   0.603959 0.772343 0.431421 0.532789
C41   C     C_R   0.579251 0.664373 0.362632 0.226825
C42   C     C_R   0.584457 0.655171 0.311901 0.066414
C43   C     C_R   0.671045 0.662844 0.286471 0.015820
C44   C     C_R   0.502012 0.642806 0.285978 -0.117497
C45   C     C_3   0.603691 0.629884 0.737915 0.142792
C46   C     C_R   0.497937 0.650276 0.235666 -0.163381
C47   C     C_R   0.582260 0.660312 0.209932 0.006371
C48   C     C_R   0.673660 0.658790 0.235446 0.004026
C49   C     C_R   0.582263 0.662712 0.158930 0.225782
C50   C     C_R   0.646959 0.702630 0.386599 -0.014324
C51   C     C_R   0.221424 0.054591 0.356703 -0.108901
C52   C     C_R   0.278452 0.120543 0.430840 0.540808
C53   C     C_R   0.202528 0.063703 0.306236 0.023387
C54   C     C_R   0.171828 0.082583 0.204007 0.035836
C55   C     C_R   0.183794 0.984965 0.228580 0.115865
C56   C     C_3   0.679972 0.658075 0.706033 0.018560
C57   C     C_R   0.204066 0.973783 0.279172 0.137941
C58   C     C_R   0.155192 0.096829 0.152790 0.096577
C59   C     C_R   0.116097 0.206153 0.133344 -0.000905
C60   C     C_R   0.194676 0.244677 0.360316 -0.117339
C61   C     C_R   0.180087 0.255065 0.310062 0.019647
C62   C     C_R   0.185185 0.163249 0.282633 -0.009340
C63   C     C_R   0.168955 0.352455 0.286855 0.135389
C64   C     C_3   0.788921 0.567626 0.732904 -0.160993
C65   C     C_R   0.171079 0.354104 0.235681 0.146248
C66   C     C_R   0.160211 0.269979 0.208983 0.000677
C67   C     C_3   0.588417 0.721292 0.775433 0.092655
C68   C     C_R   0.172490 0.171644 0.231898 -0.026804
C69   C     C_R   0.126415 0.288078 0.160698 -0.147635
C70   C     C_R   0.223129 0.142384 0.383158 -0.023933
C71   C     C_R   0.570008 0.241323 0.364127 0.041948
C72   C     C_R   0.575778 0.258465 0.313941 0.024758
C73   C     C_R   0.580377 0.286432 0.212498 0.021276
C74   C     C_R   0.497735 0.374300 0.242151 -0.125961
C75   C     C_R   0.494597 0.360089 0.291915 -0.107608
C76   C     C_3   0.770424 0.661149 0.771156 0.092745
C77   C     C_R   0.588294 0.301993 0.162298 0.054162
C78   C     C_3   0.664430 0.749854 0.744041 0.150422
C79   C     C_R   0.672876 0.211331 0.133952 0.019072
C80   C     C_R   0.742885 0.054372 0.356307 0.226335
C81   C     C_R   0.750091 0.071185 0.306332 0.013342
C82   C     C_R   0.662374 0.170602 0.284792 -0.036525
C83   C     C_R   0.841962 0.989378 0.277313 0.088913
C84   C     C_R   0.834056 0.994976 0.226141 0.260609
C85   C     C_R   0.741964 0.090991 0.204593 0.070191
C86   C     C_R   0.661910 0.182869 0.233989 -0.034463
C87   C     C_R   0.734194 0.101650 0.153897 0.103825
C88   C     C_1   0.702089 0.599254 0.898764 0.007531
C89   C     C_1   0.698349 0.618263 0.855943 -0.003911
C90   C     C_R   0.648623 0.135623 0.384404 0.051132
C91   C     C_R   0.048832 0.236562 0.949784 0.542389
C92   C     C_R   0.712356 0.561431 0.947853 0.543293
C93   C     C_R   0.721869 0.225371 0.951228 0.539491
C94   C     C_R   0.050283 0.244154 0.087853 0.539451
C95   C     C_R   0.707525 0.574794 0.086733 0.567866
C96   C     C_R   0.716616 0.233304 0.088630 0.556146
Cr1   Cr    Cr6+3 0.417550 0.169090 0.500530 1.053224
Cr2   Cr    Cr6+3 0.669180 0.913420 0.499920 1.061067
Cr3   Cr    Cr6+3 0.413260 0.917540 0.499520 1.060582
Cr4   Cr    Cr6+3 0.909170 0.177380 0.020380 1.038056
Cr5   Cr    Cr6+3 0.912710 0.429210 0.018220 1.034506
Cr6   Cr    Cr6+3 0.657170 0.432570 0.019030 1.088588
H1    H     H_    0.285247 0.225814 0.796972 0.128471
H2    H     H_    0.911073 0.679486 0.306915 0.094343
H3    H     H_    0.430981 0.643260 0.217210 0.113854
H4    H     H_    0.437040 0.632605 0.304505 0.161951
H5    H     H_    0.240856 0.977209 0.375410 0.173617
H6    H     H_    0.098222 0.371119 0.145402 0.169501
H7    H     H_    0.194872 0.312639 0.381406 0.168015
H8    H     H_    0.434217 0.454892 0.227327 0.096221
H9    H     H_    0.427658 0.429952 0.312738 0.123734
H10   H     H_    0.897990 0.695968 0.759569 0.245166
H11   H     H_    0.921557 0.606287 0.805361 0.229451
H12   H     H_    0.953363 0.324357 0.778715 0.153236
H13   H     H_    0.090280 0.438991 0.754042 0.231030
H14   H     H_    0.187038 0.371726 0.709530 0.237402
H15   H     H_    0.401981 0.386174 0.768729 0.315628
H16   H     H_    0.900927 0.949366 0.757652 0.229844
H17   H     H_    0.826839 0.930610 0.713159 0.259382
H18   H     H_    0.921290 0.719952 0.187589 0.260474
H19   H     H_    0.007019 0.657560 0.235034 0.227138
H20   H     H_    0.417935 0.738182 0.151291 0.307096
H21   H     H_    0.532214 0.618236 0.420347 0.338956
H22   H     H_    0.182748 0.021923 0.084433 0.245004
H23   H     H_    0.614625 0.348977 0.721378 0.151054
H24   H     H_    0.273739 0.944028 0.126135 0.223305
H25   H     H_    0.090509 0.942433 0.183623 0.307304
H26   H     H_    0.235172 0.848083 0.182636 0.236394
H27   H     H_    0.608490 0.913101 0.763594 0.225822
H28   H     H_    0.580667 0.896232 0.705714 0.268690
H29   H     H_    0.307707 0.834060 0.317749 0.238147
H30   H     H_    0.224608 0.810932 0.280422 0.251548
H31   H     H_    0.221385 0.410423 0.176625 0.219117
H32   H     H_    0.254338 0.442642 0.228716 0.220031
H33   H     H_    0.082712 0.479091 0.336193 0.224003
H34   H     H_    0.486256 0.145288 0.744785 0.122259
H35   H     H_    0.145721 0.515624 0.294457 0.244968
H36   H     H_    0.524074 0.472696 0.157385 0.264060
H37   H     H_    0.429176 0.428000 0.144374 0.220733
H38   H     H_    0.402688 0.347331 0.381568 0.249335
H39   H     H_    0.490288 0.401792 0.393204 0.245980
H40   H     H_    0.732242 0.013958 0.093150 0.217009
H41   H     H_    0.865168 0.984319 0.110687 0.295858
H42   H     H_    0.497472 0.848924 0.824275 0.217693
H43   H     H_    0.449524 0.757131 0.816500 0.233848
H44   H     H_    0.979207 0.851103 0.215236 0.321494
H45   H     H_    0.684618 0.000639 0.805090 0.126889
H46   H     H_    0.960299 0.824331 0.291823 0.201477
H47   H     H_    0.013177 0.915013 0.286824 0.275090
H48   H     H_    0.816033 0.892141 0.360137 0.324483
H49   H     H_    0.478447 0.591819 0.749977 0.253956
H50   H     H_    0.449565 0.687042 0.705974 0.252217
H51   H     H_    0.762876 0.386784 0.746268 0.322655
H52   H     H_    0.227662 0.906453 0.763258 0.268186
H53   H     H_    0.251324 0.940928 0.819306 0.246261
H54   H     H_    0.985872 0.078657 0.738557 0.348097
H55   H     H_    0.413572 0.008514 0.764121 0.322489
H56   H     H_    0.811498 0.202041 0.780801 0.145625
H57   H     H_    0.852106 0.615096 0.139974 0.165834
H58   H     H_    0.871110 0.503535 0.715886 0.149545
H59   H     H_    0.797352 0.719695 0.380982 0.137159
N1    N     N_3   0.859479 0.681841 0.789578 -0.612891
N2    N     N_3   0.158110 0.447323 0.315763 -0.651925
N3    N     N_3   0.513680 0.409387 0.140066 -0.579511
N4    N     N_3   0.482850 0.328657 0.394560 -0.601660
N5    N     N_3   0.785030 0.001217 0.123020 -0.557751
N6    N     N_3   0.480116 0.803400 0.797945 -0.626309
N7    N     N_3   0.945699 0.906096 0.299984 -0.576241
N8    N     N_3   0.513678 0.610065 0.719959 -0.610645
N9    N     N_3   0.190527 0.965757 0.791801 -0.619563
N10   N     N_3   0.110174 0.383909 0.724036 -0.636583
N11   N     N_3   0.848618 0.988750 0.727806 -0.592476
N12   N     N_3   0.951643 0.650231 0.210655 -0.606120
N13   N     N_3   0.186568 0.000116 0.120897 -0.621571
N14   N     N_3   0.164730 0.901519 0.204340 -0.650396
N15   N     N_3   0.643592 0.863022 0.732400 -0.614610
N16   N     N_3   0.224932 0.871863 0.303940 -0.619981
N17   N     N_3   0.187330 0.439016 0.211451 -0.614493
O1    O     O_R   0.301710 0.195650 0.554160 -0.507582
O2    O     O_R   0.635520 0.542770 0.964420 -0.498827
O3    O     O_R   0.665950 0.325030 0.970100 -0.489531
O4    O     O_R   0.522390 0.158990 0.550460 -0.497173
O5    O     O_R   0.816620 0.158530 0.074540 -0.528148
O6    O     O_R   0.004460 0.188870 0.069750 -0.482505
O7    O     O_R   0.025800 0.341780 0.072300 -0.523624
O8    O     O_R   0.807650 0.528950 0.067500 -0.520435
O9    O     O_R   0.633420 0.550490 0.071810 -0.430869
O10   O     O_R   0.664000 0.332180 0.069640 -0.455810
O11   O     O_3   0.826350 0.346390 0.019210 -0.263366
O12   O     O_R   0.658900 0.818120 0.449760 -0.507252
O13   O     O_R   0.694390 0.003530 0.554040 -0.494841
O14   O     O_R   0.657700 0.819660 0.549320 -0.497089
O15   O     O_R   0.501930 0.803280 0.552920 -0.500561
O16   O     O_R   0.318170 0.023580 0.549580 -0.485656
O17   O     O_R   0.303010 0.193990 0.446760 -0.515669
O18   O     O_R   0.523600 0.157450 0.450900 -0.471824
O19   O     O_R   0.695690 0.001860 0.446640 -0.460565
O20   O     O_3   0.453289 0.354710 0.797063 -0.681747
O21   O     O_3   0.486777 0.684811 0.132308 -0.686462
O22   O     O_3   0.501947 0.644565 0.387296 -0.708592
O23   O     O_R   0.503220 0.801620 0.445520 -0.487042
O24   O     O_3   0.919550 0.914041 0.196318 -0.713062
O25   O     O_3   0.822343 0.953769 0.377230 -0.627811
O26   O     O_3   0.731119 0.432582 0.776547 -0.708140
O27   O     O_3   0.004170 0.119953 0.713986 -0.679434
O28   O     O_3   0.367730 0.012064 0.735478 -0.703927
O29   O     O_R   0.319370 0.022040 0.450020 -0.495239
O30   O     O_3   0.499990 0.000010 0.499990 -0.267408
O31   O     O_R   0.818720 0.150820 0.967160 -0.510995
O32   O     O_R   0.006410 0.181720 0.970200 -0.495390
O33   O     O_R   0.027890 0.334070 0.964920 -0.503041
O34   O     O_R   0.809600 0.521790 0.967960 -0.495891

loop_
_geom_bond_atom_site_label_1
_geom_bond_atom_site_label_2
_ccdc_geom_bond_type
C66   C68   A    
C20   C93   S    
C63   C65   A    
C52   C70   S    
C1    C21   S    
C23   C45   S    
C27   C29   S    
C52   O29   A    
Cr6   O2    S    
C41   C42   A    
C4    O14   A    
C76   N1    S    
Cr4   O11   S    
C18   C26   S    
C24   C27   S    
Cr2   O12   S    
C2    C12   T    
C79   C87   A    
C81   C82   A    
H29   N16   S    
C95   O9    A    
Cr1   O4    S    
C47   C49   A    
C20   C30   T    
C85   C86   A    
Cr5   O33   S    
C63   N2    S    
H47   N7    S    
Cr3   O16   S    
C94   O6    A    
C83   C84   A    
Cr1   O18   S    
C36   C37   A    
C76   C78   S    
C38   H57   S    
Cr5   O11   S    
C91   O32   A    
C18   H23   S    
C54   C58   A    
C38   C39   A    
C11   C14   S    
H31   N17   S    
Cr1   O1    S    
C66   C69   A    
C54   C68   A    
C65   N17   S    
C67   N6    S    
C6    C91   S    
C46   H3    S    
Cr4   O31   S    
Cr6   O11   S    
C56   C78   S    
C87   N5    S    
H52   N9    S    
C18   C19   S    
C73   C74   A    
C61   C63   A    
Cr4   O5    S    
C96   O10   A    
C9    C13   S    
C60   H7    S    
C92   O2    A    
C6    C15   T    
C46   C47   A    
C23   O26   S    
C93   O3    A    
H19   N12   S    
C88   C92   S    
C45   C56   S    
C8    C9    S    
C7    C17   T    
C22   C25   S    
C45   C67   S    
C5    N9    S    
C56   C64   S    
H27   N15   S    
C59   C94   S    
H16   N11   S    
H20   O21   S    
C4    C12   S    
C43   C48   A    
H24   N13   S    
C16   O1    A    
C8    H12   S    
H17   N11   S    
H51   O26   S    
C88   C89   T    
C77   N3    S    
C85   C87   A    
H11   N1    S    
C26   C31   S    
C13   C14   S    
Cr3   O23   S    
C78   N15   S    
Cr6   O3    S    
Cr2   O30   S    
C58   N13   S    
C67   C78   S    
C42   C44   A    
H48   O25   S    
C41   O22   S    
Cr5   O7    S    
C35   C48   A    
C81   C83   A    
C69   H6    S    
C44   C46   A    
C24   C30   S    
C77   C79   A    
Cr5   O34   S    
H25   N14   S    
C4    O15   A    
C79   C96   S    
C74   C75   A    
H42   N6    S    
C33   C43   A    
H21   O22   S    
C35   C38   A    
C3    C11   S    
C84   C85   A    
Cr2   O14   S    
C3    C8    S    
H35   N2    S    
C53   C57   A    
C80   C81   A    
C22   H56   S    
H28   N15   S    
C25   C26   S    
C82   C86   A    
C33   C37   A    
H14   N10   S    
Cr3   O29   S    
C60   C61   A    
C51   C53   A    
C35   C36   A    
C3    O27   S    
H41   N5    S    
C5    C9    S    
H40   N5    S    
C21   C31   T    
C53   C62   A    
C47   C48   A    
C60   C70   A    
C23   C34   S    
C55   N14   S    
C32   H59   S    
C64   H58   S    
C64   C76   S    
C40   O12   A    
H32   N17   S    
H54   O27   S    
C10   N10   S    
C39   C95   S    
C5    C14   S    
C59   C69   A    
C1    O13   A    
C25   N11   S    
C91   O33   A    
C23   C64   S    
C51   C70   A    
C14   O28   S    
C93   O31   A    
H46   N7    S    
C22   C24   S    
C92   O34   A    
H13   N10   S    
C13   H1    S    
C42   C43   A    
C96   O5    A    
Cr5   O8    S    
C19   C29   S    
C41   C50   A    
C49   O21   S    
C84   O24   S    
H38   N4    S    
C54   C55   A    
C11   C17   S    
H26   N14   S    
Cr2   O19   S    
C39   C49   A    
C18   C22   S    
C19   O20   S    
H33   N2    S    
C8    C10   S    
C7    C16   S    
H55   O28   S    
Cr6   O9    S    
Cr2   O13   S    
C3    C5    S    
C10   C13   S    
C45   N8    S    
C34   C67   S    
C74   H8    S    
C37   H2    S    
H36   N3    S    
C1    O4    A    
H30   N16   S    
C44   H4    S    
C25   C27   S    
H10   N1    S    
C83   N7    S    
Cr3   O15   S    
H37   N3    S    
C75   H9    S    
C28   O19   A    
C94   O7    A    
C62   C68   A    
Cr3   O30   S    
H39   N4    S    
Cr1   O17   S    
C55   C57   A    
C19   C24   S    
C9    C15   S    
C34   C89   S    
C71   C72   A    
H44   O24   S    
C27   H45   S    
C2    C56   S    
C32   C33   A    
C57   N16   S    
H50   N8    S    
H53   N9    S    
C72   C75   A    
C71   C90   A    
H43   N6    S    
H49   N8    S    
C40   C50   S    
Cr4   O32   S    
C28   O18   A    
C32   C50   A    
Cr1   O30   S    
C80   C90   A    
C61   C62   A    
Cr4   O6    S    
C58   C59   A    
C73   C86   A    
C16   O16   A    
C10   C11   S    
C80   O25   S    
H18   N12   S    
C36   N12   S    
C29   H34   S    
H22   N13   S    
C40   O23   A    
C52   O17   A    
C26   C29   S    
C51   H5    S    
C65   C66   A    
C71   N4    S    
C73   C77   A    
C28   C90   S    
Cr6   O10   S    
C72   C82   A    
H15   O20   S    
C95   O8    A    
C34   C76   S    
