data_mof_unit_22251.cif
_audit_creation_date              2012-10-26T18:32:22-0400
_audit_creation_method            fapswitch 2.2
_symmetry_space_group_name_H-M    P1
_symmetry_Int_Tables_number       1
_space_group_crystal_system       triclinic
_cell_length_a                    12.32249
_cell_length_b                    13.14245
_cell_length_c                    15.858726
_cell_angle_alpha                 77.958886
_cell_angle_beta                  101.24826
_cell_angle_gamma                 116.586089
_cell_volume                      2230.95221045

loop_
_atom_site_label
_atom_site_type_symbol
_atom_type_description
_atom_site_fract_x
_atom_site_fract_y
_atom_site_fract_z
_atom_type_partial_charge
C1    C     C_R   0.854856 0.286579 0.505405 0.529083
C2    C     C_R   0.228119 0.835098 0.469368 0.012963
C3    C     C_R   0.817959 0.082035 0.543877 -0.113711
C4    C     C_R   0.999841 0.500070 0.659605 0.555301
C5    C     C_R   0.740858 0.965203 0.552374 0.218855
C6    C     C_R   0.615946 0.929146 0.526234 -0.115218
C7    C     C_R   0.567068 0.009257 0.486941 -0.008150
C8    C     C_R   0.648922 0.125792 0.466599 0.012198
C9    C     C_R   0.439526 0.976923 0.465361 0.038924
C10   C     C_R   0.396910 0.056849 0.413940 0.057052
C11   C     C_R   0.480308 0.166315 0.383798 -0.125899
C12   C     C_3   0.956977 0.381441 0.063304 -0.240912
C13   C     C_R   0.604452 0.199994 0.408838 -0.107998
C14   C     C_R   0.352826 0.868014 0.495124 -0.124407
C15   C     C_R   0.187061 0.914726 0.418828 -0.098657
C16   C     C_R   0.145182 0.713616 0.487377 0.561086
C17   C     C_R   0.773065 0.163598 0.503345 -0.048898
C18   C     C_R   0.345701 0.327286 0.636682 -0.130451
C19   C     C_R   0.760219 0.646392 0.384273 0.051969
C20   C     C_R   0.664186 0.678803 0.359200 -0.151308
C21   C     C_R   0.560426 0.623596 0.402665 -0.098673
C22   C     C_R   0.551616 0.534892 0.472384 0.021071
C23   C     C_3   0.010234 0.506929 0.083350 0.033552
C24   C     C_R   0.652879 0.505106 0.496090 0.202784
C25   C     C_R   0.446994 0.475160 0.519700 0.003055
C26   C     C_R   0.446148 0.387390 0.589246 0.039784
C27   C     C_R   0.545690 0.360219 0.611499 -0.158035
C28   C     C_R   0.000411 0.500241 0.340427 0.553822
C29   C     C_R   0.646799 0.418070 0.566338 -0.078075
C30   C     C_R   0.342326 0.498225 0.501493 0.061841
C31   C     C_R   0.246089 0.354245 0.615562 0.057254
C32   C     C_3   0.959616 0.380811 0.966290 -0.229454
C33   C     C_3   0.924588 0.561092 0.929991 -0.220683
C34   C     C_3   0.144797 0.578873 0.055629 0.441516
C35   C     C_3   0.922370 0.557535 0.027841 -0.244659
C36   C     C_1   0.002457 0.501952 0.250836 0.045623
C37   C     C_3   0.006143 0.504891 0.917287 -0.019973
C38   C     C_3   0.138792 0.574783 0.956605 -0.160135
C39   C     C_1   0.005782 0.504197 0.175403 0.027930
C40   C     C_1   0.002686 0.503090 0.824848 -0.054261
C41   C     C_1   0.000633 0.501597 0.749188 0.000598
C42   C     C_R   0.271190 0.025521 0.391811 -0.107746
Cu1   Cu    Cu3+1 0.098280 0.475420 0.519630 0.971010
Cu2   Cu    Cu3+1 0.901720 0.524580 0.480370 0.960663
H1    H     H_    0.860605 0.334096 0.078294 0.118729
H2    H     H_    0.866139 0.327374 0.936977 0.136630
H3    H     H_    0.664509 0.283591 0.379509 0.155061
H4    H     H_    0.168129 0.308176 0.651849 0.134810
H5    H     H_    0.545829 0.293548 0.664914 0.118568
H6    H     H_    0.344361 0.259981 0.689852 0.114413
H7    H     H_    0.334865 0.563227 0.449782 0.135193
H8    H     H_    0.840469 0.689868 0.350230 0.132148
H9    H     H_    0.488938 0.652228 0.380501 0.132411
H10   H     H_    0.670213 0.746990 0.305903 0.128917
H11   H     H_    0.718485 0.391589 0.589452 0.179607
H12   H     H_    0.019966 0.340688 0.960405 0.167065
H13   H     H_    0.959558 0.651710 0.897771 0.178102
H14   H     H_    0.829768 0.514938 0.899104 0.147415
H15   H     H_    0.827328 0.503162 0.044128 0.120072
H16   H     H_    0.944250 0.643683 0.042917 0.208409
H17   H     H_    0.197888 0.535920 0.945839 0.168855
H18   H     H_    0.174732 0.662552 0.919379 0.129333
H19   H     H_    0.177416 0.834400 0.954543 0.352296
H20   H     H_    0.862257 0.862930 0.479648 0.330557
H21   H     H_    0.446904 0.575868 0.130938 0.364456
H22   H     H_    0.005273 0.332323 0.105456 0.194119
H23   H     H_    0.090659 0.890452 0.398075 0.138765
H24   H     H_    0.449495 0.226579 0.341078 0.128751
H25   H     H_    0.238170 0.086004 0.352097 0.131255
H26   H     H_    0.380106 0.806774 0.538921 0.127894
H27   H     H_    0.913344 0.109019 0.569616 0.170340
H28   H     H_    0.559740 0.837937 0.534195 0.144109
N1    N     N_R   0.246300 0.438200 0.549400 -0.238710
N2    N     N_R   0.754300 0.561180 0.451130 -0.230058
O1    O     O_R   0.972520 0.318130 0.524690 -0.505216
O2    O     O_2   0.339934 0.789164 0.056881 -0.222077
O3    O     O_3   0.133035 0.800067 0.006474 -0.553982
O4    O     O_2   0.862555 0.888408 0.688219 -0.232129
O5    O     O_2   0.703588 0.743703 0.602645 -0.288278
O6    O     O_3   0.907262 0.879205 0.537830 -0.499646
O7    O     O_2   0.252891 0.515389 0.212753 -0.275334
O8    O     O_2   0.218016 0.403018 0.096767 -0.334286
O9    O     O_3   0.393107 0.606109 0.089840 -0.467258
O10   O     O_R   0.806530 0.359650 0.491530 -0.537571
O11   O     O_R   0.083030 0.479240 0.637150 -0.496698
O12   O     O_R   0.917040 0.520750 0.603990 -0.492230
O13   O     O_R   0.193470 0.640350 0.508470 -0.510393
O14   O     O_R   0.027480 0.681870 0.475310 -0.486731
O15   O     O_R   0.082960 0.479250 0.396010 -0.475680
O16   O     O_R   0.916970 0.520760 0.362850 -0.521807
O17   O     O_2   0.201902 0.735975 0.165468 -0.234628
S1    S     S_3+6 0.208122 0.728820 0.073319 0.050123
S2    S     S_3+6 0.801798 0.864642 0.598163 0.014191
S3    S     S_3+6 0.251373 0.520947 0.116901 0.029494

loop_
_geom_bond_atom_site_label_1
_geom_bond_atom_site_label_2
_ccdc_geom_bond_type
Cu1   N1    S    
C30   H7    S    
O3    S1    S    
C33   H14   S    
O8    S3    D    
C27   C29   A    
H20   O6    S    
C19   C20   A    
C18   C26   A    
Cu1   Cu2   S    
C7    C8    A    
C1    O10   A    
C6    H28   S    
C12   C23   S    
C26   C27   A    
Cu1   O15   S    
O5    S2    D    
C37   C40   S    
C5    C6    A    
C31   N1    A    
C4    O12   A    
C4    C41   S    
O4    S2    D    
C35   H15   S    
C24   C29   A    
C19   H8    S    
C22   C25   A    
C16   O13   A    
C28   O15   A    
C2    C16   S    
C9    C10   A    
C38   H17   S    
C21   C22   A    
C12   C32   S    
C14   H26   S    
Cu2   O12   S    
C19   N2    A    
Cu1   O1    S    
C1    O1    A    
C20   H10   S    
O17   S1    D    
C13   H3    S    
C30   N1    A    
C4    O11   A    
C29   H11   S    
C3    C5    A    
C25   C26   A    
O9    S3    S    
C12   H22   S    
C42   H25   S    
C33   C37   S    
C35   H16   S    
Cu1   O11   S    
C3    H27   S    
C9    C14   A    
C37   C38   S    
C23   C34   S    
C15   H23   S    
C32   C37   S    
Cu2   N2    S    
C2    C15   A    
O2    S1    D    
C40   C41   T    
C23   C35   S    
C31   H4    S    
C22   C24   A    
Cu2   O16   S    
C11   H24   S    
C18   H6    S    
H19   O3    S    
C25   C30   A    
C7    C9    A    
C10   C42   A    
C33   H13   S    
C34   C38   S    
C32   H2    S    
C36   C39   T    
C34   S3    S    
C15   C42   A    
C12   H1    S    
Cu2   O10   S    
C5    S2    S    
C6    C7    A    
C1    C17   S    
C8    C17   A    
Cu1   O13   S    
C21   H9    S    
O7    S3    D    
C11   C13   A    
C24   N2    A    
C23   C39   S    
C33   C35   S    
C3    C17   A    
C2    C14   A    
C34   S1    S    
H21   O9    S    
C10   C11   A    
C8    C13   A    
C20   C21   A    
C28   C36   S    
C16   O14   A    
C28   O16   A    
C18   C31   A    
O6    S2    S    
Cu2   O14   S    
C32   H12   S    
C27   H5    S    
C38   H18   S    
