data_mof_unit_54337.cif
_audit_creation_date              2012-12-10T18:35:03-0500
_audit_creation_method            fapswitch 2.2
_symmetry_space_group_name_H-M    P1
_symmetry_Int_Tables_number       1
_space_group_crystal_system       triclinic
_cell_length_a                    15.151927
_cell_length_b                    13.832744
_cell_length_c                    10.861558
_cell_angle_alpha                 90.410382
_cell_angle_beta                  89.884268
_cell_angle_gamma                 89.897647
_cell_volume                      2276.43683443

loop_
_atom_site_label
_atom_site_type_symbol
_atom_type_description
_atom_site_fract_x
_atom_site_fract_y
_atom_site_fract_z
_atom_type_partial_charge
C1    C     C_R   0.329830 0.499929 0.504591 0.865553
C2    C     C_R   0.670269 0.499636 0.495083 0.864641
C3    C     C_R   0.233048 0.500783 0.510421 -0.195446
C4    C     C_R   0.767213 0.499819 0.487762 -0.200528
C5    C     C_R   0.183234 0.428707 0.572465 0.032336
C6    C     C_R   0.817157 0.422599 0.434515 0.029372
C7    C     C_R   0.090326 0.434691 0.570126 0.465217
C8    C     C_R   0.910076 0.428953 0.435012 0.463034
C9    C     C_R   0.048417 0.509311 0.503950 -0.076146
C10   C     C_R   0.951988 0.508930 0.491137 -0.075887
C11   C     C_R   0.554969 0.107837 0.580098 0.046457
C12   C     C_R   0.442701 0.108555 0.418910 0.053421
C13   C     C_R   0.553278 0.209803 0.578300 0.027291
C14   C     C_R   0.445927 0.210410 0.421555 0.030556
C15   C     C_R   0.498933 0.054687 0.498635 0.035729
C16   C     C_R   0.421731 0.892788 0.520184 -0.346016
C17   C     C_R   0.576737 0.892635 0.473853 -0.307271
C18   C     C_R   0.423451 0.791198 0.520956 0.071891
C19   C     C_R   0.575862 0.791047 0.475585 0.114192
C20   C     C_R   0.499096 0.945456 0.497337 0.088969
C21   C     C_R   0.507850 0.499904 0.262268 0.814555
C22   C     C_R   0.493895 0.500694 0.738254 0.811845
C23   C     C_R   0.562402 0.673475 0.110179 0.364042
C24   C     C_R   0.456428 0.679856 0.899050 0.354527
C25   C     C_R   0.540282 0.762829 0.058785 0.319519
C26   C     C_R   0.482364 0.767009 0.958316 0.274057
C27   C     C_R   0.490275 0.590301 0.941758 -0.136253
C28   C     C_R   0.524071 0.587802 0.061818 -0.159357
C29   C     C_R   0.516755 0.500156 0.127723 -0.036369
C30   C     C_R   0.488441 0.502362 0.873413 -0.030064
C31   C     C_R   0.503571 0.413450 0.062965 -0.214342
C32   C     C_R   0.494763 0.414289 0.936047 -0.216728
C33   C     C_R   0.098431 0.581129 0.445766 0.501912
C34   C     C_R   0.902013 0.585470 0.540432 0.499925
C35   C     C_R   0.189875 0.577305 0.451812 -0.359609
C36   C     C_R   0.810565 0.581140 0.535843 -0.360099
Cu1   Cu    Cu3+1 0.500000 0.596430 0.500000 0.980499
Cu2   Cu    Cu3+1 0.500000 0.403570 0.500000 0.919419
H1    H     H_    0.500563 0.344791 0.110127 0.157106
H2    H     H_    0.491076 0.345794 0.887372 0.157906
H3    H     H_    0.360506 0.929974 0.540462 0.159177
H4    H     H_    0.637595 0.929689 0.452560 0.160854
H5    H     H_    0.363077 0.753123 0.541018 0.156706
H6    H     H_    0.636398 0.752750 0.455719 0.161436
H7    H     H_    0.227349 0.633641 0.406731 0.185469
H8    H     H_    0.773336 0.641293 0.574016 0.187758
H9    H     H_    0.594582 0.250714 0.640888 0.138979
H10   H     H_    0.404785 0.251822 0.359875 0.140144
N1    N     N_R   0.500000 0.258690 0.500000 -0.204655
N2    N     N_R   0.500000 0.741330 0.500000 -0.172153
O1    O     O_R   0.371460 0.581430 0.500010 -0.591703
O2    O     O_R   0.628540 0.581430 0.499990 -0.590806
O3    O     O_R   0.371470 0.418560 0.500010 -0.589910
O4    O     O_R   0.628530 0.418560 0.499990 -0.589273
O5    O     O_R   0.500000 0.581450 0.319650 -0.536821
O6    O     O_R   0.500000 0.581450 0.680350 -0.534604
O7    O     O_R   0.500010 0.418580 0.319650 -0.607303
O8    O     O_R   0.499990 0.418580 0.680350 -0.604505
O9    O     O_3   0.621567 0.671782 0.207118 -0.531934
C37   C     C_3   0.703420 0.636749 0.163731 -0.304552
H11   H     H_    0.730946 0.684786 0.091434 0.168951
H12   H     H_    0.698171 0.561391 0.128203 0.142750
H13   H     H_    0.750642 0.636036 0.241668 0.190458
O10   O     O_3   0.393068 0.682266 0.807543 -0.554076
C38   C     C_3   0.310464 0.659343 0.859545 -0.339888
H14   H     H_    0.259948 0.661438 0.785797 0.187971
H15   H     H_    0.291156 0.713245 0.931318 0.175230
H16   H     H_    0.310079 0.585177 0.898515 0.157636
O11   O     O_3   0.580777 0.845717 0.102429 -0.536943
C39   C     C_3   0.521915 0.895969 0.180350 -0.216512
H17   H     H_    0.559736 0.951491 0.231871 0.173865
H18   H     H_    0.471295 0.935288 0.126676 0.189634
H19   H     H_    0.489532 0.847418 0.248122 0.158512
O12   O     O_3   0.445975 0.856248 0.930446 -0.583182
C40   C     C_3   0.453014 0.877300 0.804617 -0.185717
H20   H     H_    0.460683 0.956569 0.794813 0.154193
H21   H     H_    0.510796 0.842141 0.758796 0.155524
H22   H     H_    0.390348 0.857436 0.758737 0.202009
O13   O     O_3   0.058279 0.658642 0.388589 -0.517270
C41   C     C_3   0.052132 0.639145 0.261369 -0.340062
H23   H     H_    0.000721 0.583829 0.243052 0.145025
H24   H     H_    0.116535 0.616572 0.220556 0.139627
H25   H     H_    0.031338 0.706307 0.214296 0.196419
O14   O     O_3   0.942225 0.667514 0.587351 -0.517541
C42   C     C_3   0.948010 0.659769 0.716389 -0.335821
H26   H     H_    0.998686 0.605530 0.742135 0.144261
H27   H     H_    0.883287 0.642282 0.759601 0.141180
H28   H     H_    0.969580 0.730481 0.754426 0.197121
C43   C     C_3   0.226543 0.347210 0.644589 -0.323027
C44   C     C_3   0.270179 0.384699 0.762235 -0.838040
H29   H     H_    0.304601 0.324406 0.809146 0.239540
H30   H     H_    0.318963 0.441775 0.741832 0.248939
H31   H     H_    0.219667 0.415088 0.825797 0.230952
H32   H     H_    0.178015 0.291505 0.672447 0.237395
H33   H     H_    0.274384 0.306724 0.586717 0.214473
C45   C     C_3   0.774307 0.334357 0.374469 -0.315649
C46   C     C_3   0.729197 0.359851 0.253237 -0.832291
H34   H     H_    0.696574 0.294623 0.214455 0.240915
H35   H     H_    0.678601 0.416652 0.266763 0.250764
H36   H     H_    0.778595 0.386103 0.185756 0.229357
H37   H     H_    0.823319 0.276934 0.353246 0.237744
H38   H     H_    0.727781 0.298741 0.438411 0.212419
O15   O     O_3   0.040489 0.362635 0.624586 -0.542884
C47   C     C_3   0.010032 0.394977 0.740609 -0.355604
H39   H     H_    0.949734 0.439752 0.730112 0.158643
H40   H     H_    0.061119 0.435274 0.793708 0.138675
H41   H     H_    0.991518 0.330938 0.795758 0.194459
O16   O     O_3   0.960058 0.352554 0.389493 -0.543181
C48   C     C_3   0.989730 0.374433 0.269724 -0.353737
H42   H     H_    0.049785 0.420091 0.273887 0.158182
H43   H     H_    0.938100 0.409567 0.212343 0.138532
H44   H     H_    0.008405 0.305888 0.222836 0.196239
C49   C     C_3   0.614170 0.060482 0.674649 -0.429857
C50   C     C_3   0.711702 0.075735 0.644455 -0.811729
H45   H     H_    0.727213 0.048347 0.550586 0.251477
H46   H     H_    0.728995 0.153619 0.649934 0.240609
H47   H     H_    0.752970 0.036071 0.711766 0.251564
H48   H     H_    0.599833 0.092267 0.766853 0.202797
H49   H     H_    0.601881 0.982048 0.683105 0.218034
C51   C     C_3   0.380563 0.062313 0.326570 -0.447136
C52   C     C_3   0.284059 0.081183 0.360449 -0.808130
H50   H     H_    0.269804 0.055282 0.454901 0.250860
H51   H     H_    0.268515 0.159538 0.355596 0.241751
H52   H     H_    0.240517 0.042174 0.294775 0.249077
H53   H     H_    0.393946 0.092519 0.233832 0.196634
H54   H     H_    0.390324 0.983459 0.318115 0.215720

loop_
_geom_bond_atom_site_label_1
_geom_bond_atom_site_label_2
_ccdc_geom_bond_type
C4    C36   A    
C50   H46   S    
C45   H38   S    
C24   C27   A    
C47   H40   S    
C46   H34   S    
Cu2   N1    S    
C42   H26   S    
C51   C52   S    
C23   O9    S    
C37   H13   S    
C28   C29   A    
C24   C26   A    
C48   H43   S    
Cu1   O1    S    
C51   H54   S    
C14   N1    A    
Cu2   O8    S    
C17   C20   A    
O16   C48   S    
C37   H12   S    
C43   H32   S    
C1    O3    A    
C17   H4    S    
C52   H52   S    
C17   C19   A    
C12   C51   S    
Cu1   O6    S    
C11   C15   A    
C38   H15   S    
C36   H8    S    
C39   H17   S    
C9    C10   S    
C32   H2    S    
O9    C37   S    
C24   O10   S    
C7    O15   S    
C45   H37   S    
C27   C30   A    
C9    C33   A    
C34   O14   S    
C41   H25   S    
C8    O16   S    
C47   H39   S    
C46   H35   S    
C50   H45   S    
C5    C7    A    
C42   H27   S    
C15   C20   S    
O12   C40   S    
O14   C42   S    
C4    C6    A    
C2    O4    A    
C48   H44   S    
C13   H9    S    
Cu1   O2    S    
C51   H53   S    
C33   O13   S    
C22   O6    A    
C25   C26   A    
C21   C29   S    
O13   C41   S    
C37   H11   S    
C1    C3    S    
C43   H33   S    
C2    C4    S    
C40   H20   S    
C21   O7    A    
Cu1   Cu2   S    
C33   C35   A    
Cu2   O7    S    
C1    O1    A    
C44   H30   S    
C31   C32   A    
Cu2   O4    S    
C12   C15   A    
C3    C35   A    
C16   C20   A    
C38   H16   S    
C45   C46   S    
C39   H19   S    
C10   C34   A    
C16   C18   A    
C49   H49   S    
C23   C28   A    
C40   H21   S    
C52   H50   S    
C2    O2    A    
C13   N1    A    
C41   H24   S    
C12   C14   A    
C6    C45   S    
C25   O11   S    
C35   H7    S    
O15   C47   S    
C46   H36   S    
C19   H6    S    
C18   N2    A    
C44   H31   S    
C21   O5    A    
C49   C50   S    
C42   H28   S    
C7    C9    A    
C22   C30   S    
C41   H23   S    
C3    C5    A    
C22   O8    A    
C6    C8    A    
O10   C38   S    
C29   C31   A    
C18   H5    S    
C30   C32   A    
Cu1   N2    S    
C11   C13   A    
C19   N2    A    
C44   H29   S    
Cu2   O3    S    
C26   O12   S    
C31   H1    S    
C34   C36   A    
C23   C25   A    
O11   C39   S    
C11   C49   S    
C40   H22   S    
C52   H51   S    
C50   H47   S    
C49   H48   S    
Cu1   O5    S    
C8    C10   A    
C38   H14   S    
C27   C28   A    
C14   H10   S    
C39   H18   S    
C43   C44   S    
C48   H42   S    
C16   H3    S    
C47   H41   S    
C5    C43   S    
