data_mof_unit_20542.cif
_audit_creation_date              2012-12-10T20:00:02-0500
_audit_creation_method            fapswitch 2.2
_symmetry_space_group_name_H-M    P1
_symmetry_Int_Tables_number       1
_space_group_crystal_system       triclinic
_cell_length_a                    15.011375
_cell_length_b                    14.314175
_cell_length_c                    8.877269
_cell_angle_alpha                 90.070826
_cell_angle_beta                  91.357624
_cell_angle_gamma                 90.039144
_cell_volume                      1906.96975552

loop_
_atom_site_label
_atom_site_type_symbol
_atom_type_description
_atom_site_fract_x
_atom_site_fract_y
_atom_site_fract_z
_atom_type_partial_charge
Br1   Br    Br    0.421318 0.254831 0.195394 -0.380428
Br2   Br    Br    0.642627 0.732711 0.721240 -0.415689
Br3   Br    Br    0.584017 0.256126 0.799957 -0.378173
Br4   Br    Br    0.357848 0.732796 0.278021 -0.424571
C1    C     C_R   0.327945 0.499859 0.500506 0.966014
C2    C     C_R   0.434591 0.894830 0.418531 0.385440
C3    C     C_R   0.500066 0.499989 0.218945 0.923231
C4    C     C_R   0.500117 0.500059 0.781070 0.943318
C5    C     C_R   0.500994 0.052432 0.499935 -0.141285
C6    C     C_R   0.500436 0.946262 0.500130 -0.126823
C7    C     C_1   0.500192 0.500024 0.065520 -0.115018
C8    C     C_1   0.500195 0.500124 0.934515 -0.104879
C9    C     C_R   0.093500 0.572815 0.565648 -0.276918
C10   C     C_R   0.909266 0.424266 0.543192 -0.278265
C11   C     C_R   0.904940 0.577986 0.427822 -0.260085
C12   C     C_R   0.672171 0.499971 0.498869 0.926550
C13   C     C_R   0.092736 0.431583 0.413780 -0.275875
C14   C     C_R   0.186417 0.572774 0.571441 0.477096
C15   C     C_R   0.816968 0.421565 0.544992 0.467074
C16   C     C_R   0.812706 0.576871 0.427784 0.477368
C17   C     C_R   0.184868 0.427203 0.423953 0.463552
C18   C     C_R   0.231715 0.499659 0.499129 -0.253045
C19   C     C_R   0.768412 0.499758 0.491617 -0.270570
C20   C     C_R   0.047906 0.503301 0.485554 0.033380
C21   C     C_R   0.952355 0.501879 0.484772 0.021493
C22   C     C_3   0.208342 0.728436 0.631357 -0.234613
C23   C     C_R   0.477571 0.201734 0.371769 0.207317
C24   C     C_3   0.780569 0.267739 0.519406 -0.231702
C25   C     C_3   0.750699 0.639039 0.215480 -0.239181
C26   C     C_3   0.216845 0.271840 0.429510 -0.226703
C27   C     C_3   0.573954 0.046242 0.179182 -0.182545
C28   C     C_3   0.703564 0.960031 0.565904 -0.226118
C29   C     C_3   0.429067 0.048695 0.822883 -0.185835
C30   C     C_3   0.299450 0.966318 0.429979 -0.243368
C31   C     C_R   0.561173 0.796098 0.586744 0.250993
C32   C     C_R   0.523857 0.202229 0.627654 0.214607
C33   C     C_R   0.439055 0.796200 0.413217 0.222301
C34   C     C_R   0.489722 0.103849 0.365736 0.371338
C35   C     C_R   0.566051 0.894666 0.581357 0.381239
C36   C     C_R   0.512397 0.104239 0.633984 0.373479
H1    H     H_    0.056373 0.624732 0.626892 0.163427
H2    H     H_    0.850101 0.241341 0.515519 0.131137
H3    H     H_    0.711927 0.699182 0.170367 0.209866
H4    H     H_    0.710402 0.574860 0.193744 0.136099
H5    H     H_    0.814231 0.635700 0.153538 0.158470
H6    H     H_    0.238713 0.278166 0.549886 0.149145
H7    H     H_    0.258114 0.216734 0.377936 0.204426
H8    H     H_    0.146392 0.248048 0.420991 0.128928
H9    H     H_    0.611049 0.996667 0.253546 0.116381
H10   H     H_    0.610290 0.113907 0.171747 0.164334
H11   H     H_    0.571859 0.014914 0.065032 0.237725
H12   H     H_    0.947578 0.366772 0.590611 0.164341
H13   H     H_    0.685519 0.018836 0.489705 0.118677
H14   H     H_    0.724315 0.897853 0.499688 0.168483
H15   H     H_    0.762047 0.982723 0.635386 0.190098
H16   H     H_    0.395635 0.117479 0.837028 0.173690
H17   H     H_    0.388961 0.002859 0.746174 0.109492
H18   H     H_    0.431466 0.014000 0.934341 0.238000
H19   H     H_    0.319790 0.026493 0.501908 0.126400
H20   H     H_    0.276496 0.907287 0.500577 0.124092
H21   H     H_    0.241740 0.989332 0.359093 0.189563
H22   H     H_    0.939507 0.637763 0.382231 0.169609
H23   H     H_    0.055897 0.378615 0.350976 0.163996
H24   H     H_    0.198133 0.741806 0.508519 0.170184
H25   H     H_    0.262512 0.775370 0.672419 0.184678
H26   H     H_    0.147650 0.746881 0.693956 0.151114
H27   H     H_    0.754189 0.282162 0.403397 0.149341
H28   H     H_    0.739144 0.211284 0.566979 0.197376
N1    N     N_R   0.500000 0.252470 0.500000 -0.195201
N2    N     N_R   0.500000 0.747530 0.500000 -0.188080
O1    O     O_R   0.369060 0.579480 0.500010 -0.554642
O2    O     O_3   0.774725 0.347195 0.613038 -0.553176
O3    O     O_3   0.766663 0.653234 0.371005 -0.578453
O4    O     O_3   0.229450 0.356348 0.350757 -0.554101
O5    O     O_3   0.485956 0.059045 0.227640 -0.528782
O6    O     O_3   0.633180 0.939462 0.662910 -0.512798
O7    O     O_3   0.516790 0.059668 0.772011 -0.528843
O8    O     O_3   0.368662 0.939630 0.334354 -0.506790
O9    O     O_R   0.630940 0.420520 0.499990 -0.579870
O10   O     O_R   0.630940 0.579480 0.499990 -0.546672
O11   O     O_R   0.369060 0.420520 0.500010 -0.585562
O12   O     O_R   0.500000 0.579460 0.285340 -0.593764
O13   O     O_R   0.500000 0.420540 0.714660 -0.577463
O14   O     O_R   0.500000 0.579460 0.714660 -0.586087
O15   O     O_R   0.500000 0.420540 0.285340 -0.573405
O16   O     O_3   0.234158 0.635464 0.661924 -0.578282
Zn1   Zn    Zn3+2 0.500000 0.606140 0.500000 1.057587
Zn2   Zn    Zn3+2 0.500000 0.393860 0.500000 1.041213

loop_
_geom_bond_atom_site_label_1
_geom_bond_atom_site_label_2
_ccdc_geom_bond_type
Br2   C31   S    
C29   H18   S    
C4    O13   A    
C31   C35   A    
O14   Zn1   S    
C9    H1    S    
C3    C7    S    
C14   O16   S    
C9    C14   A    
C26   H8    S    
C24   H28   S    
O10   Zn1   S    
C26   O4    S    
C11   C21   A    
C25   O3    S    
C23   C34   A    
O12   Zn1   S    
C22   H24   S    
C10   H12   S    
C1    C18   S    
C31   N2    A    
C5    C6    S    
C28   H15   S    
C23   N1    A    
C22   O16   S    
C29   H16   S    
O13   Zn2   S    
C4    O14   A    
C33   N2    A    
C25   H3    S    
C30   H20   S    
C15   O2    S    
C24   O2    S    
C27   H9    S    
N2    Zn1   S    
C28   H14   S    
O9    Zn2   S    
C34   O5    S    
C11   C16   A    
C13   C20   A    
C22   H26   S    
C26   H7    S    
C32   C36   A    
C24   H27   S    
C20   C21   S    
C17   O4    S    
C30   H21   S    
C13   C17   A    
C9    C20   A    
C25   H5    S    
C6    C35   A    
C12   O10   A    
C15   C19   A    
C2    C6    A    
C1    O11   A    
C27   O5    S    
C16   C19   A    
C4    C8    S    
C2    C33   A    
C35   O6    S    
N1    Zn2   S    
O1    Zn1   S    
C12   C19   S    
C25   H4    S    
C30   H19   S    
C27   H10   S    
C28   H13   S    
C32   N1    A    
O15   Zn2   S    
C29   H17   S    
C14   C18   A    
C22   H25   S    
C10   C15   A    
C26   H6    S    
C27   H11   S    
C28   O6    S    
C7    C8    T    
C12   O9    A    
C1    O1    A    
C13   H23   S    
C29   O7    S    
C3    O15   A    
Br3   C32   S    
C24   H2    S    
C5    C34   A    
C11   H22   S    
C16   O3    S    
C5    C36   A    
C10   C21   A    
O11   Zn2   S    
C2    O8    S    
C3    O12   A    
Br4   C33   S    
Br1   C23   S    
C36   O7    S    
C17   C18   A    
C30   O8    S    
