data_mof_unit_36356.cif
_audit_creation_date              2012-12-10T16:53:00-0500
_audit_creation_method            fapswitch 2.2
_symmetry_space_group_name_H-M    P1
_symmetry_Int_Tables_number       1
_space_group_crystal_system       triclinic
_cell_length_a                    7.938243
_cell_length_b                    8.568573
_cell_length_c                    11.528856
_cell_angle_alpha                 93.282052
_cell_angle_beta                  84.315774
_cell_angle_gamma                 93.431765
_cell_volume                      777.890371939

loop_
_atom_site_label
_atom_site_type_symbol
_atom_type_description
_atom_site_fract_x
_atom_site_fract_y
_atom_site_fract_z
_atom_type_partial_charge
C1    C     C_R   0.544940 0.793998 0.497373 0.947771
C2    C     C_2   0.431633 0.042357 0.504318 -0.381000
C3    C     C_3   0.012308 0.316155 0.409174 -0.141334
C4    C     C_3   0.928081 0.276105 0.297168 -0.859023
C5    C     C_3   0.987692 0.683847 0.590823 -0.141330
C6    C     C_3   0.071915 0.723904 0.702829 -0.859073
C7    C     C_R   0.455060 0.206002 0.502626 0.947770
C8    C     C_R   0.499671 0.500748 0.717562 0.889181
C9    C     C_R   0.500329 0.499252 0.282438 0.889184
C10   C     C_1   0.498961 0.500709 0.838299 -0.182864
C11   C     C_1   0.501039 0.499291 0.161701 -0.182868
C12   C     C_1   0.499455 0.500320 0.940604 -0.001616
C13   C     C_1   0.500545 0.499680 0.059395 -0.001616
C14   C     C_2   0.568366 0.957643 0.495682 -0.381002
H1    H     H_    0.697874 0.007852 0.487258 0.176463
H2    H     H_    0.004684 0.819349 0.753848 0.214018
H3    H     H_    0.009435 0.782971 0.532134 0.161129
H4    H     H_    0.854367 0.669839 0.621442 0.232275
H5    H     H_    0.302125 0.992148 0.512742 0.176467
H6    H     H_    0.794683 0.233087 0.315220 0.284190
H7    H     H_    0.936208 0.379537 0.242630 0.268268
H8    H     H_    0.995343 0.180690 0.246126 0.214010
H9    H     H_    0.145635 0.330166 0.378555 0.232272
H10   H     H_    0.990568 0.217027 0.467861 0.161124
H11   H     H_    0.063744 0.620492 0.757385 0.268255
H12   H     H_    0.205323 0.766881 0.684782 0.284215
N1    N     N_2   0.950330 0.457960 0.469510 -0.028508
N2    N     N_2   0.049670 0.542040 0.530490 -0.028502
O1    O     O_R   0.389250 0.738570 0.507480 -0.611971
O2    O     O_R   0.610750 0.261430 0.492520 -0.611968
O3    O     O_R   0.678390 0.711630 0.487940 -0.657654
O4    O     O_R   0.321610 0.288370 0.512060 -0.657651
O5    O     O_R   0.355420 0.513450 0.675320 -0.606749
O6    O     O_R   0.644580 0.486550 0.324680 -0.606755
O7    O     O_R   0.644570 0.486510 0.655780 -0.632869
O8    O     O_R   0.355430 0.513490 0.344220 -0.632872
Zn1   Zn    Zn3+2 0.306940 0.517990 0.513050 0.930318
Zn2   Zn    Zn3+2 0.693060 0.482010 0.486950 0.930315

loop_
_geom_bond_atom_site_label_1
_geom_bond_atom_site_label_2
_ccdc_geom_bond_type
C9    O8    A    
C5    H4    S    
C5    N2    S    
C11   C13   T    
C3    H9    S    
C2    C7    S    
O3    Zn2   S    
C1    O1    A    
C7    O2    A    
O4    Zn1   S    
C7    O4    A    
C4    H7    S    
C9    C11   S    
C3    H10   S    
C6    H12   S    
C10   C12   T    
N2    Zn1   S    
C5    C6    S    
C3    N1    S    
O8    Zn1   S    
C8    O5    A    
C9    O6    A    
C2    C14   D    
C6    H11   S    
C5    H3    S    
N1    Zn2   S    
C6    H2    S    
C3    C4    S    
C4    H6    S    
C1    O3    A    
O7    Zn2   S    
C4    H8    S    
C12   C13   S    
O2    Zn2   S    
C8    C10   S    
O1    Zn1   S    
N1    N2    D    
C14   H1    S    
C1    C14   S    
C2    H5    S    
O6    Zn2   S    
O5    Zn1   S    
C8    O7    A    
