data_mof_unit_59730.cif
_audit_creation_date              2013-03-05T16:34:52-0500
_audit_creation_method            fapswitch 2.2
_symmetry_space_group_name_H-M    P1
_symmetry_Int_Tables_number       1
_space_group_crystal_system       triclinic
_cell_length_a                    15.116869
_cell_length_b                    9.146036
_cell_length_c                    7.788043
_cell_angle_alpha                 89.952743
_cell_angle_beta                  89.999965
_cell_angle_gamma                 90.000168
_cell_volume                      1076.7700048

loop_
_atom_site_label
_atom_site_type_symbol
_atom_site_description
_atom_site_fract_x
_atom_site_fract_y
_atom_site_fract_z
_atom_type_partial_charge
O1    O     O_R   0.500000 0.288390 0.642760 -0.584586
O2    O     O_R   0.500000 0.711610 0.357240 -0.571576
O3    O     O_R   0.500000 0.711610 0.642760 -0.577832
O4    O     O_R   0.500000 0.288390 0.357240 -0.581225
H1    H     H_    0.922651 0.127204 0.542438 0.146276
H2    H     H_    0.076830 0.856904 0.385212 0.149538
H3    H     H_    0.923173 0.856903 0.385203 0.149547
H4    H     H_    0.077346 0.127203 0.542436 0.146274
C1    C     C_R   0.500000 0.219949 0.500061 0.850259
C2    C     C_R   0.500000 0.780058 0.499953 0.824915
O5    O     O_R   0.370260 0.500000 0.642800 -0.595347
O6    O     O_R   0.629740 0.500000 0.357200 -0.579801
O7    O     O_R   0.629740 0.500000 0.642800 -0.595346
O8    O     O_R   0.370260 0.500000 0.357200 -0.579796
C3    C     C_R   0.328842 0.497748 0.499937 0.823170
C4    C     C_R   0.671158 0.497750 0.499937 0.823167
Cu1   Cu    Cu3+1 0.500000 0.500000 0.669080 0.982684
Cu2   Cu    Cu3+1 0.500000 0.500000 0.330920 0.985177
N1    N     N_1   0.500000 0.500000 0.076820 -0.055525
N2    N     N_1   0.500000 0.500000 0.923180 -0.053371
C5    C     C_R   0.812753 0.627966 0.458309 0.060290
C6    C     C_R   0.187117 0.365620 0.531684 0.067405
C7    C     C_R   0.812883 0.365622 0.531688 0.067404
C8    C     C_R   0.187248 0.627966 0.458316 0.060283
C9    C     C_R   0.767450 0.497704 0.499373 -0.116518
C10   C     C_R   0.232550 0.497703 0.499373 -0.116526
C11   C     C_R   0.906214 0.363740 0.519605 0.090335
C12   C     C_R   0.093784 0.626935 0.454710 0.094565
C13   C     C_R   0.906217 0.626935 0.454707 0.094556
C14   C     C_R   0.093786 0.363739 0.519603 0.090337
C15   C     C_R   0.952959 0.495502 0.488104 0.009374
C16   C     C_R   0.047041 0.495502 0.488104 0.009371
C17   C     C_R   0.954255 0.232747 0.533802 -0.208439
C18   C     C_R   0.045625 0.754247 0.416644 -0.213870
C19   C     C_R   0.954377 0.754246 0.416640 -0.213887
C20   C     C_R   0.045744 0.232747 0.533801 -0.208439
C21   C     C_1   0.500000 0.065261 0.500134 -0.186381
C22   C     C_1   0.500000 0.934730 0.499955 -0.196542
C23   C     C_3   0.760628 0.766895 0.418323 -0.404350
C24   C     C_3   0.752687 0.790209 0.224403 -0.790326
H5    H     H_    0.818540 0.808925 0.165517 0.241484
H6    H     H_    0.721908 0.693192 0.163062 0.272116
H7    H     H_    0.710234 0.886465 0.197489 0.240044
H8    H     H_    0.693080 0.764645 0.473384 0.192578
H9    H     H_    0.791022 0.862552 0.482207 0.192266
C25   C     C_3   0.239834 0.227441 0.572484 -0.411098
C26   C     C_3   0.266934 0.150062 0.407432 -0.851621
H10   H     H_    0.207606 0.108753 0.338861 0.255018
H11   H     H_    0.303572 0.225228 0.321072 0.268970
H12   H     H_    0.311160 0.057368 0.439313 0.242839
H13   H     H_    0.300073 0.252846 0.647834 0.214851
H14   H     H_    0.203516 0.151720 0.658303 0.192268
C27   C     C_3   0.760165 0.227445 0.572495 -0.411093
C28   C     C_3   0.733063 0.150062 0.407448 -0.851633
H15   H     H_    0.696421 0.225224 0.321090 0.268971
H16   H     H_    0.792390 0.108757 0.338872 0.255016
H17   H     H_    0.688840 0.057364 0.439334 0.242839
H18   H     H_    0.796484 0.151725 0.658315 0.192269
H19   H     H_    0.699928 0.252852 0.647849 0.214855
C29   C     C_3   0.239374 0.766896 0.418339 -0.404353
C30   C     C_3   0.247319 0.790216 0.224420 -0.790292
H20   H     H_    0.289813 0.886427 0.197512 0.240047
H21   H     H_    0.278055 0.693167 0.163063 0.272109
H22   H     H_    0.181471 0.809014 0.165545 0.241463
H23   H     H_    0.208981 0.862552 0.482225 0.192266
H24   H     H_    0.306921 0.764643 0.473403 0.192577

loop_
_geom_bond_atom_site_label_1
_geom_bond_atom_site_label_2
_geom_bond_distance
_ccdc_geom_bond_type
C30   H22   1.109284 S    
C27   H18   1.107697 S    
C7    C27   1.527270 S    
C23   H8    1.107680 S    
O7    Cu1   1.971913 S    
O2    Cu2   1.946386 S    
C13   C19   1.404692 A    
O1    Cu1   1.946387 S    
C26   H10   1.110228 S    
C5    C23   1.527015 S    
C14   C20   1.405272 A    
C2    C22   1.414638 S    
O4    Cu2   1.946050 S    
Cu1   N2    1.978941 S    
N1    N2    1.196556 T    
C1    C21   1.414775 S    
Cu1   Cu2   2.633605 S    
C27   H19   1.108064 S    
C29   H24   1.107679 S    
C13   C15   1.418253 A    
O3    C2    1.275821 A    
C15   C16   1.422216 A    
C27   C28   1.523975 S    
C11   C17   1.405272 A    
C25   H14   1.107696 S    
C14   C16   1.418207 A    
H3    C19   1.078703 S    
C21   C22   1.193843 T    
C5    C13   1.413195 A    
C24   H6    1.110293 S    
C24   H5    1.109268 S    
C6    C25   1.527270 S    
C8    C10   1.410682 A    
C29   H23   1.106696 S    
O3    Cu1   1.946049 S    
C26   H12   1.107708 S    
C7    C11   1.414110 A    
C7    C9    1.412046 A    
H4    C20   1.079102 S    
C30   H20   1.109306 S    
C18   C19   1.379383 A    
C28   H16   1.110227 S    
H2    C18   1.078702 S    
C23   C24   1.529785 S    
C11   C15   1.418207 A    
C28   H15   1.109487 S    
O2    C2    1.276086 A    
O6    C4    1.275986 A    
C12   C16   1.418254 A    
C17   C20   1.383027 A    
O1    C1    1.275959 A    
C26   H11   1.109486 S    
Cu2   N1    1.978941 S    
C6    C10   1.412045 A    
O7    C4    1.276876 A    
O6    Cu2   1.971913 S    
C4    C9    1.455640 S    
C30   H21   1.110312 S    
O8    Cu2   1.971914 S    
C25   C26   1.523974 S    
O5    Cu1   1.971915 S    
C3    C10   1.455640 S    
C5    C9    1.410684 A    
C8    C29   1.527014 S    
C6    C14   1.414110 A    
C12   C18   1.404690 A    
O4    C1    1.275885 A    
O8    C3    1.275985 A    
O5    C3    1.276875 A    
C25   H13   1.108064 S    
C24   H7    1.109287 S    
C23   H9    1.106696 S    
C8    C12   1.413194 A    
C29   C30   1.529783 S    
C28   H17   1.107706 S    
H1    C17   1.079102 S    
