data_mof_unit_39284.cif
_audit_creation_date              2012-10-26T19:57:45-0400
_audit_creation_method            fapswitch 2.2
_symmetry_space_group_name_H-M    P1
_symmetry_Int_Tables_number       1
_space_group_crystal_system       triclinic
_cell_length_a                    7.552421
_cell_length_b                    8.675086
_cell_length_c                    12.986115
_cell_angle_alpha                 87.089085
_cell_angle_beta                  77.402482
_cell_angle_gamma                 101.970013
_cell_volume                      808.167266725

loop_
_atom_site_label
_atom_site_type_symbol
_atom_type_description
_atom_site_fract_x
_atom_site_fract_y
_atom_site_fract_z
_atom_type_partial_charge
C1    C     C_R   0.453439 0.200282 0.504561 0.546324
C2    C     C_R   0.735872 0.575953 0.110351 0.087787
C3    C     C_R   0.597624 0.538837 0.856065 -0.148443
C4    C     C_R   0.402376 0.461159 0.143935 -0.148443
C5    C     C_R   0.586371 0.530675 0.964298 0.009214
C6    C     C_R   0.413629 0.469320 0.035703 0.009215
C7    C     C_2   0.427084 0.032439 0.511303 -0.152124
C8    C     C_2   0.572916 0.967561 0.488696 -0.152124
C9    C     C_R   0.546561 0.799718 0.495438 0.546324
C10   C     C_R   0.463100 0.493251 0.701915 0.534925
C11   C     C_R   0.536900 0.506748 0.298085 0.534924
C12   C     C_R   0.561313 0.514216 0.182737 0.007354
C13   C     C_R   0.438686 0.485781 0.817263 0.007354
C14   C     C_R   0.254034 0.416812 0.998134 -0.063571
C15   C     C_R   0.745966 0.583183 0.001866 -0.063571
C16   C     C_R   0.264127 0.424043 0.889650 0.087787
Cu1   Cu    Cu3+1 0.686350 0.517570 0.488220 0.970654
Cu2   Cu    Cu3+1 0.313650 0.482430 0.511780 0.970657
H1    H     H_    0.268434 0.412947 0.198078 0.128694
H2    H     H_    0.060424 0.456713 0.816853 0.252016
H3    H     H_    0.919736 0.243262 0.495975 0.242718
H4    H     H_    0.806250 0.304484 0.614718 0.260723
H5    H     H_    0.080260 0.756742 0.504025 0.242717
H6    H     H_    0.193751 0.695518 0.385282 0.260725
H7    H     H_    0.731566 0.587049 0.801922 0.128694
H8    H     H_    0.120901 0.369061 0.053125 0.135337
H9    H     H_    0.879099 0.630933 0.946875 0.135337
H10   H     H_    0.285956 0.962103 0.536455 0.117619
H11   H     H_    0.714045 0.037897 0.463544 0.117619
H12   H     H_    0.883129 0.724220 0.193544 0.255192
H13   H     H_    0.939573 0.543283 0.183150 0.252017
H14   H     H_    0.116872 0.275778 0.806454 0.255193
N1    N     N_2   0.033570 0.455950 0.529530 -0.046302
N2    N     N_2   0.966430 0.544050 0.470470 -0.046303
N3    N     N_3   0.904082 0.635897 0.143361 -0.629528
N4    N     N_3   0.095917 0.364099 0.856639 -0.629529
N5    N     N_3   0.931931 0.302615 0.562783 -0.480931
N6    N     N_3   0.068070 0.697386 0.437217 -0.480932
O1    O     O_R   0.621060 0.286250 0.492350 -0.532656
O2    O     O_R   0.378940 0.713750 0.507650 -0.532654
O3    O     O_R   0.306310 0.256580 0.512240 -0.477622
O4    O     O_R   0.693690 0.743420 0.487760 -0.477623
O5    O     O_R   0.631800 0.512400 0.642670 -0.519366
O6    O     O_R   0.368200 0.487600 0.357330 -0.519365
O7    O     O_R   0.317060 0.482730 0.662570 -0.498015
O8    O     O_R   0.682940 0.517270 0.337430 -0.498017

loop_
_geom_bond_atom_site_label_1
_geom_bond_atom_site_label_2
_ccdc_geom_bond_type
C2    N3    S    
H6    N6    S    
C11   C12   S    
Cu1   O5    S    
Cu2   O6    S    
C4    C12   A    
H5    N6    S    
C15   H9    S    
C3    C13   A    
C3    H7    S    
C2    C12   A    
C10   O7    A    
N1    N2    D    
C7    C8    D    
N2    N6    S    
C14   H8    S    
C2    C15   A    
C4    H1    S    
C9    O4    A    
C16   N4    S    
H12   N3    S    
C8    H11   S    
H14   N4    S    
C1    O3    A    
Cu1   Cu2   S    
C14   C16   A    
C5    C6    A    
Cu2   N1    S    
H13   N3    S    
C5    C15   A    
C6    C14   A    
Cu1   N2    S    
C1    O1    A    
H2    N4    S    
Cu2   O7    S    
C11   O6    A    
H3    N5    S    
Cu1   O8    S    
C4    C6    A    
Cu1   O1    S    
C13   C16   A    
Cu2   O2    S    
Cu1   O4    S    
C11   O8    A    
C10   O5    A    
C1    C7    S    
H4    N5    S    
C9    O2    A    
N1    N5    S    
C7    H10   S    
Cu2   O3    S    
C8    C9    S    
C3    C5    A    
C10   C13   S    
