data_mof_unit_13961.cif
_audit_creation_date              2012-12-10T20:00:05-0500
_audit_creation_method            fapswitch 2.2
_symmetry_space_group_name_H-M    P1
_symmetry_Int_Tables_number       1
_space_group_crystal_system       triclinic
_cell_length_a                    14.974998
_cell_length_b                    14.360286
_cell_length_c                    8.877095
_cell_angle_alpha                 90.083247
_cell_angle_beta                  91.765582
_cell_angle_gamma                 90.298186
_cell_volume                      1908.04253538

loop_
_atom_site_label
_atom_site_type_symbol
_atom_type_description
_atom_site_fract_x
_atom_site_fract_y
_atom_site_fract_z
_atom_type_partial_charge
C1    C     C_R   0.328537 0.499581 0.498945 0.882429
C2    C     C_R   0.458825 0.895474 0.382920 -0.266876
C3    C     C_R   0.499883 0.499959 0.219040 0.922579
C4    C     C_R   0.500359 0.500048 0.780970 0.929434
C5    C     C_R   0.499817 0.053113 0.499923 0.076449
C6    C     C_R   0.499737 0.947220 0.500021 0.075371
C7    C     C_1   0.500100 0.499966 0.065533 -0.204762
C8    C     C_1   0.500290 0.500090 0.934484 -0.205064
C9    C     C_R   0.091847 0.533015 0.374689 -0.180885
C10   C     C_R   0.901784 0.476157 0.366779 -0.173321
C11   C     C_R   0.908298 0.515808 0.633258 -0.166006
C12   C     C_R   0.671371 0.500045 0.501718 0.893524
C13   C     C_R   0.096996 0.458806 0.620553 -0.174126
C14   C     C_R   0.184201 0.531312 0.370292 0.151337
C15   C     C_R   0.809201 0.478921 0.365660 0.144060
C16   C     C_R   0.815845 0.514832 0.636598 0.144227
C17   C     C_R   0.189587 0.461077 0.623011 0.137376
C18   C     C_R   0.232946 0.497793 0.497286 -0.036959
C19   C     C_R   0.766783 0.499345 0.501017 -0.041078
C20   C     C_R   0.048221 0.496030 0.498216 0.042764
C21   C     C_R   0.951251 0.496134 0.499305 0.039765
C22   C     C_3   0.357173 0.250049 0.341730 -0.822544
C23   C     C_R   0.433091 0.202657 0.424739 0.296609
C24   C     C_3   0.589459 0.750570 0.744554 -0.839054
C25   C     C_3   0.642507 0.251406 0.659443 -0.826731
C26   C     C_3   0.410109 0.749047 0.255290 -0.837699
C27   C     C_3   0.226817 0.562541 0.226771 -0.936425
C28   C     C_3   0.756806 0.459838 0.220706 -0.913871
C29   C     C_3   0.771147 0.527214 0.785269 -0.937454
C30   C     C_3   0.240724 0.425498 0.760444 -0.900591
C31   C     C_R   0.541776 0.797685 0.615349 0.301536
C32   C     C_R   0.566753 0.203348 0.575426 0.302208
C33   C     C_R   0.457841 0.796907 0.384776 0.303331
C34   C     C_R   0.432003 0.104104 0.426181 -0.267510
C35   C     C_R   0.540613 0.896208 0.617239 -0.265806
C36   C     C_R   0.567704 0.104822 0.573722 -0.268122
H1    H     H_    0.053979 0.562410 0.280357 0.147378
H2    H     H_    0.322849 0.201924 0.260442 0.197593
H3    H     H_    0.306610 0.272330 0.422787 0.245715
H4    H     H_    0.628688 0.691982 0.703004 0.265413
H5    H     H_    0.637609 0.798381 0.803388 0.201274
H6    H     H_    0.540637 0.727566 0.828405 0.247301
H7    H     H_    0.618763 0.310712 0.726012 0.265809
H8    H     H_    0.676120 0.203701 0.741404 0.198135
H9    H     H_    0.693683 0.273698 0.579203 0.247315
H10   H     H_    0.370133 0.690239 0.295795 0.273925
H11   H     H_    0.362446 0.796516 0.195942 0.199623
H12   H     H_    0.935360 0.458064 0.264459 0.138588
H13   H     H_    0.458998 0.726277 0.171668 0.247313
H14   H     H_    0.216765 0.638513 0.211482 0.249244
H15   H     H_    0.299150 0.547110 0.224633 0.231754
H16   H     H_    0.194878 0.525439 0.129140 0.243324
H17   H     H_    0.715024 0.521085 0.190455 0.240371
H18   H     H_    0.801351 0.445656 0.125728 0.236650
H19   H     H_    0.712996 0.398025 0.234391 0.256477
H20   H     H_    0.731273 0.591651 0.783638 0.243133
H21   H     H_    0.726840 0.466720 0.806767 0.237120
H22   H     H_    0.820657 0.532641 0.880663 0.241725
H23   H     H_    0.946870 0.531866 0.735363 0.139548
H24   H     H_    0.285788 0.480990 0.806426 0.233622
H25   H     H_    0.195401 0.404307 0.851173 0.232017
H26   H     H_    0.280888 0.363889 0.730156 0.260506
H27   H     H_    0.062843 0.427955 0.714217 0.139607
H28   H     H_    0.376561 0.067571 0.371403 0.145629
H29   H     H_    0.570923 0.932663 0.712719 0.145986
H30   H     H_    0.623065 0.068876 0.628536 0.145879
H31   H     H_    0.428403 0.931416 0.287527 0.145824
H32   H     H_    0.380913 0.309308 0.274691 0.268548
N1    N     N_R   0.500000 0.252470 0.500000 -0.094520
N2    N     N_R   0.500000 0.747530 0.500000 -0.093194
O1    O     O_R   0.369060 0.579480 0.500010 -0.617607
O2    O     O_R   0.630940 0.420520 0.499990 -0.624458
O3    O     O_R   0.630940 0.579480 0.499990 -0.621115
O4    O     O_R   0.369060 0.420520 0.500010 -0.624761
O5    O     O_R   0.500000 0.579460 0.285340 -0.621622
O6    O     O_R   0.500000 0.420540 0.714660 -0.620771
O7    O     O_R   0.500000 0.579460 0.714660 -0.619567
O8    O     O_R   0.500000 0.420540 0.285340 -0.619531
Zn1   Zn    Zn3+2 0.500000 0.606140 0.500000 0.936009
Zn2   Zn    Zn3+2 0.500000 0.393860 0.500000 0.930674

loop_
_geom_bond_atom_site_label_1
_geom_bond_atom_site_label_2
_ccdc_geom_bond_type
C17   C30   S    
C24   H6    S    
C23   N1    A    
C4    C8    S    
C25   H7    S    
O1    Zn1   S    
C7    C8    T    
C15   C19   A    
C1    C18   S    
C1    O1    A    
C1    O4    A    
C32   C36   A    
C3    C7    S    
C10   C15   A    
C5    C6    S    
O8    Zn2   S    
C35   H29   S    
C22   H2    S    
C5    C36   A    
C6    C35   A    
C14   C18   A    
C26   C33   S    
C31   N2    A    
C30   H24   S    
C14   C27   S    
C3    O5    A    
C27   H14   S    
C25   C32   S    
C12   O2    A    
O4    Zn2   S    
C12   O3    A    
C24   H5    S    
C2    C6    A    
C11   H23   S    
C25   H8    S    
C34   H28   S    
C28   H19   S    
C27   H15   S    
O7    Zn1   S    
C10   C21   A    
C2    H31   S    
C26   H13   S    
C28   H18   S    
C16   C29   S    
C11   C21   A    
C9    C14   A    
C11   C16   A    
C9    C20   A    
C13   H27   S    
C23   C34   A    
C5    C34   A    
C9    H1    S    
C17   C18   A    
O3    Zn1   S    
C29   H22   S    
C22   H32   S    
C33   N2    A    
C26   H11   S    
C2    C33   A    
C29   H21   S    
C30   H26   S    
C10   H12   S    
C31   C35   A    
C25   H9    S    
C27   H16   S    
C13   C20   A    
N2    Zn1   S    
O6    Zn2   S    
C28   H17   S    
C32   N1    A    
C29   H20   S    
C13   C17   A    
C24   C31   S    
C4    O7    A    
O2    Zn2   S    
C15   C28   S    
C16   C19   A    
C22   H3    S    
C12   C19   S    
C24   H4    S    
C36   H30   S    
C4    O6    A    
C26   H10   S    
C20   C21   S    
C30   H25   S    
C22   C23   S    
N1    Zn2   S    
C3    O8    A    
O5    Zn1   S    
