data_mof_unit_36316.cif
_audit_creation_date              2012-12-11T15:52:24-0500
_audit_creation_method            fapswitch 2.2
_symmetry_space_group_name_H-M    P1
_symmetry_Int_Tables_number       1
_space_group_crystal_system       triclinic
_cell_length_a                    11.158682
_cell_length_b                    11.133405
_cell_length_c                    18.853593
_cell_angle_alpha                 89.857791
_cell_angle_beta                  90.061301
_cell_angle_gamma                 120.010146
_cell_volume                      2028.2426533

loop_
_atom_site_label
_atom_site_type_symbol
_atom_type_description
_atom_site_fract_x
_atom_site_fract_y
_atom_site_fract_z
_atom_type_partial_charge
Br1   Br    Br    0.819034 0.086744 0.058869 -0.098073
Br2   Br    Br    0.911487 0.730140 0.057434 -0.096541
Br3   Br    Br    0.275319 0.173258 0.055426 -0.104871
Br4   Br    Br    0.855659 0.654171 0.888084 -0.301220
Br5   Br    Br    0.799527 0.142748 0.889087 -0.299402
Br6   Br    Br    0.344869 0.196009 0.883624 -0.298255
C1    C     C_R   0.539631 0.426167 0.139683 0.539327
C2    C     C_3   0.866437 0.627006 0.471683 0.305940
C3    C     C_3   0.760341 0.133769 0.471820 0.305977
C4    C     C_3   0.373353 0.239131 0.472105 0.305221
C5    C     C_R   0.517473 0.457582 0.352636 0.675813
C6    C     C_R   0.542469 0.059709 0.352598 0.669404
C7    C     C_R   0.940229 0.482602 0.352628 0.670246
C8    C     C_R   0.453316 0.523531 0.644265 0.534794
C9    C     C_R   0.070180 0.546685 0.644259 0.535131
C10   C     C_R   0.476474 0.929888 0.644279 0.534144
C11   C     C_R   0.504835 0.007555 0.920434 0.013478
C12   C     C_R   0.551423 0.073505 0.144373 0.581219
C13   C     C_R   0.990425 0.494306 0.919967 0.016443
C14   C     C_R   0.505385 0.490608 0.918484 0.017250
C15   C     C_R   0.959291 0.494528 0.068588 -0.007807
C16   C     C_R   0.536635 0.039072 0.069051 -0.010559
C17   C     C_R   0.519001 0.447426 0.065272 -0.023281
C18   C     C_R   0.393447 0.977068 0.965682 -0.008875
C19   C     C_R   0.019490 0.411641 0.965234 -0.014662
C20   C     C_R   0.587229 0.599880 0.964677 -0.012714
C21   C     C_R   0.999605 0.408793 0.037561 -0.062304
C22   C     C_R   0.410828 0.994517 0.037974 -0.055548
C23   C     C_R   0.926259 0.477501 0.144185 0.584424
C24   C     C_R   0.594941 0.577788 0.036091 -0.052140
C25   C     C_R   0.652671 0.075332 0.024052 0.148812
C26   C     C_R   0.923372 0.574775 0.023359 0.143947
C27   C     C_R   0.434212 0.335275 0.019672 0.132382
C28   C     C_R   0.924622 0.561983 0.949228 0.151650
C29   C     C_R   0.638386 0.073166 0.949845 0.153751
C30   C     C_R   0.440402 0.354584 0.945775 0.155577
C31   C     C_3   0.254929 0.850858 0.975499 0.775197
C32   C     C_3   0.143673 0.395747 0.974703 0.783280
C33   C     C_3   0.597944 0.736940 0.977755 0.777770
C34   C     C_R   0.458795 0.518564 0.851381 0.641423
C35   C     C_3   0.124121 0.398063 0.054100 0.806472
C36   C     C_3   0.278915 0.867715 0.054949 0.794484
C37   C     C_3   0.595832 0.707652 0.056470 0.808957
C38   C     C_R   0.484627 0.964207 0.569828 -0.081166
C39   C     C_R   0.035894 0.520556 0.569858 -0.081552
C40   C     C_R   0.479639 0.515318 0.569872 -0.081154
C41   C     C_R   0.004804 0.512249 0.422146 0.031530
C42   C     C_R   0.507470 0.994737 0.422099 0.031253
C43   C     C_R   0.487920 0.492572 0.422139 0.030607
C44   C     C_R   0.605800 0.993062 0.535843 0.022964
C45   C     C_R   0.060569 0.540909 0.851712 0.642248
C46   C     C_R   0.007044 0.613045 0.535657 0.022972
C47   C     C_R   0.387303 0.393949 0.535861 0.022830
C48   C     C_R   0.989272 0.607395 0.463926 -0.008064
C49   C     C_R   0.617962 0.010531 0.464093 -0.007667
C50   C     C_R   0.392932 0.381850 0.464126 -0.009220
C51   C     C_R   0.377286 0.944458 0.453992 0.379981
C52   C     C_R   0.054934 0.432084 0.454222 0.379921
C53   C     C_R   0.568100 0.622930 0.454016 0.380222
C54   C     C_R   0.068421 0.434438 0.528425 0.374488
C55   C     C_R   0.366147 0.931296 0.528209 0.374436
C56   C     C_R   0.480416 0.938558 0.851946 0.638916
C57   C     C_R   0.565771 0.634008 0.528218 0.374298
C58   C     C_3   0.747858 0.109045 0.550665 0.351713
C59   C     C_3   0.891412 0.639527 0.550482 0.352065
C60   C     C_3   0.360877 0.251529 0.550896 0.352302
Cr1   Cr    Cr6+3 0.769160 0.541570 0.250690 1.212682
Cr2   Cr    Cr6+3 0.458430 0.227590 0.250690 1.210141
Cr3   Cr    Cr6+3 0.772410 0.230840 0.250690 1.204562
Cr4   Cr    Cr6+3 0.541570 0.769160 0.749310 1.240500
Cr5   Cr    Cr6+3 0.227590 0.458430 0.749310 1.241834
Cr6   Cr    Cr6+3 0.230840 0.772410 0.749310 1.242522
F1    F     F_    0.249334 0.733078 0.949695 -0.551797
F2    F     F_    0.225264 0.513871 0.087727 -0.464943
F3    F     F_    0.298462 0.767159 0.086413 -0.476448
F4    F     F_    0.476529 0.682604 0.090460 -0.463388
F5    F     F_    0.265480 0.920646 0.414753 -0.589230
F6    F     F_    0.078570 0.343724 0.415198 -0.588194
F7    F     F_    0.656416 0.735019 0.414792 -0.588358
F8    F     F_    0.106781 0.348759 0.559300 -0.513220
F9    F     F_    0.242342 0.893060 0.558905 -0.514267
F10   F     F_    0.651488 0.757999 0.558892 -0.513891
F11   F     F_    0.833355 0.061086 0.575156 -0.465933
F12   F     F_    0.263300 0.508217 0.950751 -0.544713
F13   F     F_    0.939407 0.773294 0.574559 -0.465441
F14   F     F_    0.227423 0.165793 0.575180 -0.465458
F15   F     F_    0.745744 0.506089 0.455377 -0.618397
F16   F     F_    0.760255 0.254587 0.455104 -0.618174
F17   F     F_    0.493999 0.239174 0.455716 -0.619080
F18   F     F_    0.484580 0.743883 0.955120 -0.542393
F19   F     F_    0.094721 0.278871 0.090095 -0.499150
F20   F     F_    0.191686 0.895852 0.093756 -0.508587
F21   F     F_    0.711351 0.799586 0.093932 -0.502739
F22   F     F_    0.150080 0.872029 0.951256 -0.492579
F23   F     F_    0.122043 0.270239 0.949067 -0.489050
F24   F     F_    0.722271 0.844659 0.953369 -0.493329
H1    H     H_    0.751316 0.194317 0.582889 0.121090
H2    H     H_    0.806431 0.557844 0.583005 0.121269
H3    H     H_    0.442373 0.247996 0.583379 0.121202
H4    H     H_    0.879226 0.721962 0.445180 0.238496
H5    H     H_    0.842362 0.120975 0.445590 0.238775
H6    H     H_    0.278608 0.157010 0.445778 0.238776
O1    O     O_R   0.911480 0.572650 0.170990 -0.454675
O2    O     O_R   0.528970 0.640340 0.824320 -0.454897
O3    O     O_R   0.111370 0.471030 0.824320 -0.455260
O4    O     O_R   0.359660 0.888630 0.824320 -0.453357
O5    O     O_R   0.909980 0.572450 0.331530 -0.484955
O6    O     O_R   0.427550 0.337530 0.331530 -0.482556
O7    O     O_R   0.662470 0.090020 0.331530 -0.483351
O8    O     O_R   0.572450 0.909980 0.668470 -0.442106
O9    O     O_R   0.337530 0.427550 0.668470 -0.442156
O10   O     O_R   0.090020 0.662470 0.668470 -0.442025
O11   O     O_R   0.638950 0.528780 0.324500 -0.411534
O12   O     O_R   0.427350 0.338830 0.170990 -0.420828
O13   O     O_R   0.471220 0.110170 0.324500 -0.414714
O14   O     O_R   0.889830 0.361050 0.324500 -0.413388
O15   O     O_R   0.528780 0.638950 0.675500 -0.449754
O16   O     O_R   0.110170 0.471220 0.675500 -0.449725
O17   O     O_R   0.361050 0.889830 0.675500 -0.449008
O18   O     O_3   0.666667 0.333333 0.250560 -0.370347
O19   O     O_3   0.333333 0.666667 0.749440 -0.350695
O20   O     O_R   0.661170 0.088520 0.170990 -0.453242
O21   O     O_R   0.572650 0.911480 0.829010 -0.415077
O22   O     O_R   0.338830 0.427350 0.829010 -0.411654
O23   O     O_R   0.088520 0.661170 0.829010 -0.410456
O24   O     O_R   0.640340 0.528970 0.175680 -0.459523
O25   O     O_R   0.471030 0.111370 0.175680 -0.491649
O26   O     O_R   0.888630 0.359660 0.175680 -0.486340

loop_
_geom_bond_atom_site_label_1
_geom_bond_atom_site_label_2
_ccdc_geom_bond_type
C42   C49   A    
Cr6   O10   S    
C39   C54   A    
Cr6   O19   S    
C3    C58   S    
C44   C58   S    
C7    O5    A    
C10   O8    A    
C42   C51   A    
C8    C40   S    
C36   F3    S    
C1    O12   A    
C59   H2    S    
C3    F16   S    
C12   O25   A    
Cr4   O2    S    
C20   C33   S    
Br3   C27   S    
Cr4   O15   S    
C52   C54   A    
Br1   C25   S    
C27   C30   A    
C23   O1    A    
Br2   C26   S    
C31   C36   S    
C6    O7    A    
Cr4   O8    S    
C35   F2    S    
Cr3   O7    S    
Cr4   O21   S    
C4    F17   S    
C17   C27   A    
Cr5   O9    S    
C32   F23   S    
C19   C32   S    
C3    C49   S    
C4    C50   S    
Cr1   O18   S    
C10   C38   S    
C33   F18   S    
C1    C17   S    
C6    C42   S    
C6    O13   A    
C15   C21   A    
C2    C59   S    
C16   C22   A    
C13   C19   A    
C56   O21   A    
C46   C48   A    
C4    C60   S    
C8    O9    A    
C34   O22   A    
C15   C26   A    
Br4   C28   S    
C11   C18   A    
C16   C25   A    
C57   F10   S    
Cr1   O1    S    
C45   O23   A    
C17   C24   A    
C51   F5    S    
Cr5   O22   S    
C4    H6    S    
Cr3   O26   S    
C32   C35   S    
Cr1   O24   S    
C53   F7    S    
C7    C41   S    
C33   C37   S    
C39   C46   A    
C15   C23   S    
C26   C28   A    
C60   H3    S    
C58   F11   S    
C5    C43   S    
C11   C56   S    
C34   O2    A    
C21   C35   S    
C45   O3    A    
C8    O15   A    
C18   C31   S    
C59   F13   S    
C47   C60   S    
Cr2   O25   S    
C12   O20   A    
C41   C48   A    
C58   H1    S    
C35   F19   S    
Cr6   O4    S    
C20   C24   A    
Cr5   O3    S    
C25   C29   A    
C24   C37   S    
C10   O17   A    
C9    C39   S    
C2    C48   S    
C47   C50   A    
C38   C44   A    
C37   F4    S    
C31   F1    S    
C54   F8    S    
Cr5   O16   S    
C32   F12   S    
C12   C16   S    
C9    O10   A    
Cr5   O19   S    
C18   C22   A    
Cr3   O14   S    
C13   C28   A    
C60   F14   S    
C51   C55   A    
C56   O4    A    
C38   C55   A    
C19   C21   A    
C43   C50   A    
C11   C29   A    
C40   C57   A    
Cr3   O18   S    
C53   C57   A    
C44   C49   A    
C43   C53   A    
C9    O16   A    
Cr6   O23   S    
C2    F15   S    
Cr1   O11   S    
C55   F9    S    
Cr2   O18   S    
C41   C52   A    
Cr4   O19   S    
Cr1   O5    S    
C14   C20   A    
Cr3   O20   S    
C14   C34   S    
Br5   C29   S    
C40   C47   A    
C22   C36   S    
C37   F21   S    
Br6   C30   S    
C31   F22   S    
C36   F20   S    
C1    O24   A    
C2    H4    S    
C5    O11   A    
C33   F24   S    
C7    O14   A    
Cr6   O17   S    
C52   F6    S    
Cr2   O13   S    
C14   C30   A    
C13   C45   S    
C3    H5    S    
C23   O26   A    
C5    O6    A    
Cr2   O6    S    
C46   C59   S    
Cr2   O12   S    
