data_mof_unit_10446.cif
_audit_creation_date              2012-12-11T14:54:29-0500
_audit_creation_method            fapswitch 2.2
_symmetry_space_group_name_H-M    P1
_symmetry_Int_Tables_number       1
_space_group_crystal_system       triclinic
_cell_length_a                    19.039001
_cell_length_b                    11.209705
_cell_length_c                    18.612382
_cell_angle_alpha                 89.805161
_cell_angle_beta                  89.10695
_cell_angle_gamma                 89.692148
_cell_volume                      3971.72236486

loop_
_atom_site_label
_atom_site_type_symbol
_atom_type_description
_atom_site_fract_x
_atom_site_fract_y
_atom_site_fract_z
_atom_type_partial_charge
C1    C     C_R   0.731804 0.382992 0.647781 0.551920
C2    C     C_R   0.267614 0.383718 0.351383 0.560164
C3    C     C_R   0.231801 0.882981 0.647775 0.550073
C4    C     C_R   0.767617 0.883707 0.351389 0.558043
C5    C     C_3   0.528696 0.375736 0.455064 0.530603
C6    C     C_3   0.494488 0.379655 0.532844 0.534649
C7    C     C_3   0.028563 0.875819 0.455027 0.530520
C8    C     C_3   0.994456 0.879721 0.532861 0.534604
C9    C     C_R   0.672847 0.963314 0.523910 -0.197507
C10   C     C_R   0.324996 0.951034 0.473481 -0.211978
C11   C     C_R   0.172846 0.463345 0.523900 -0.197597
C12   C     C_R   0.825000 0.451054 0.473492 -0.212058
C13   C     C_R   0.680170 0.933698 0.451066 -0.137429
C14   C     C_R   0.316320 0.918739 0.545640 -0.172916
C15   C     C_R   0.180166 0.433744 0.451053 -0.137536
C16   C     C_R   0.816334 0.418791 0.545659 -0.173252
C17   C     C_R   0.742771 0.954239 0.414757 -0.029752
C18   C     C_R   0.256668 0.952063 0.583732 -0.027586
C19   C     C_R   0.242766 0.454276 0.414743 -0.029432
C20   C     C_R   0.756674 0.452094 0.583746 -0.027799
C21   C     C_R   0.788785 0.036781 0.444712 -0.127266
C22   C     C_R   0.214751 0.044064 0.554705 -0.100724
C23   C     C_R   0.288781 0.536815 0.444699 -0.127239
C24   C     C_R   0.714748 0.544077 0.554711 -0.100747
C25   C     C_R   0.785491 0.064445 0.518877 0.276943
C26   C     C_R   0.222649 0.078639 0.481490 0.283762
C27   C     C_R   0.285502 0.564438 0.518871 0.276724
C28   C     C_R   0.722640 0.578627 0.481491 0.283996
C29   C     C_R   0.728726 0.016657 0.560282 0.016062
C30   C     C_R   0.274866 0.021549 0.439069 0.023554
C31   C     C_R   0.228733 0.516657 0.560277 0.016268
C32   C     C_R   0.774856 0.521531 0.439072 0.024698
C33   C     C_R   0.465938 0.071373 0.952824 -0.118596
C34   C     C_R   0.456819 0.066966 0.026069 -0.124688
C35   C     C_R   0.969591 0.569031 0.953813 -0.114505
C36   C     C_R   0.962599 0.563849 0.027066 -0.122685
C37   C     C_R   0.479031 0.162145 0.068920 0.039314
C38   C     C_R   0.498378 0.170340 0.921843 0.037043
C39   C     C_R   0.981332 0.661775 0.069459 0.035780
C40   C     C_R   0.998905 0.669980 0.922073 0.037182
C41   C     C_R   0.504751 0.266493 0.037424 -0.151423
C42   C     C_R   0.514109 0.270921 0.963610 -0.139073
C43   C     C_R   0.004010 0.767712 0.037329 -0.147683
C44   C     C_R   0.013003 0.771894 0.963388 -0.138068
C45   C     C_R   0.530791 0.154157 0.648241 0.524291
C46   C     C_R   0.467596 0.152624 0.353146 0.535066
C47   C     C_R   0.030796 0.654163 0.648240 0.524490
C48   C     C_R   0.967583 0.652628 0.353150 0.534089
C49   C     C_R   0.815982 0.920372 0.953717 -0.199267
C50   C     C_R   0.222104 0.031559 0.025105 -0.183694
C51   C     C_R   0.315103 0.420982 0.954267 -0.198622
C52   C     C_R   0.687403 0.458179 0.040368 -0.189383
C53   C     C_R   0.822620 0.908956 0.026673 -0.157979
C54   C     C_R   0.220054 0.015865 0.952056 -0.164260
C55   C     C_R   0.321871 0.410099 0.027184 -0.144399
C56   C     C_R   0.685289 0.454354 0.967225 -0.154510
C57   C     C_R   0.762819 0.894174 0.070547 0.001006
C58   C     C_R   0.250733 0.914706 0.922238 -0.007291
C59   C     C_R   0.262068 0.396785 0.071318 0.011293
C60   C     C_R   0.740773 0.403210 0.927904 0.001836
C61   C     C_R   0.697109 0.877940 0.040610 -0.127882
C62   C     C_R   0.288978 0.834132 0.964864 -0.137031
C63   C     C_R   0.195812 0.384756 0.041865 -0.133659
C64   C     C_R   0.798661 0.354382 0.963223 -0.137905
C65   C     C_R   0.689771 0.883308 0.966105 0.263402
C66   C     C_R   0.293244 0.850900 0.039136 0.243992
C67   C     C_R   0.188166 0.392323 0.967622 0.258248
C68   C     C_R   0.801889 0.358249 0.038668 0.248011
C69   C     C_R   0.749472 0.915834 0.923659 0.040035
C70   C     C_R   0.255719 0.947214 0.069043 0.052991
C71   C     C_R   0.248416 0.419386 0.924611 0.037749
C72   C     C_R   0.747373 0.418966 0.076125 0.051934
C73   C     C_R   0.726880 0.024828 0.640299 0.581971
C74   C     C_R   0.274005 0.026979 0.359059 0.597058
C75   C     C_R   0.226882 0.524824 0.640297 0.582637
C76   C     C_R   0.774002 0.526970 0.359062 0.594884
C77   C     C_R   0.728439 0.375543 0.853405 0.552960
C78   C     C_R   0.272436 0.373891 0.146212 0.558926
C79   C     C_R   0.230178 0.877960 0.851653 0.552734
C80   C     C_R   0.772801 0.872961 0.145795 0.554758
C81   C     C_R   0.531098 0.157601 0.852022 0.547281
C82   C     C_R   0.463541 0.156028 0.144679 0.539688
C83   C     C_R   0.031171 0.657611 0.852055 0.550964
C84   C     C_R   0.964369 0.656059 0.145026 0.541508
C85   C     C_R   0.741038 0.969660 0.853511 0.565131
C86   C     C_R   0.260030 0.975655 0.144310 0.583589
C87   C     C_R   0.240784 0.470550 0.853825 0.565679
C88   C     C_R   0.758224 0.468973 0.146866 0.568004
C89   C     C_R   0.496075 0.147546 0.425026 -0.021676
C90   C     C_R   0.500624 0.155631 0.577526 -0.024853
C91   C     C_R   0.996037 0.647586 0.425035 -0.021538
C92   C     C_R   0.000630 0.655662 0.577528 -0.024672
C93   C     C_R   0.517783 0.245809 0.461410 -0.029476
C94   C     C_R   0.513195 0.251773 0.534435 0.002859
C95   C     C_R   0.017690 0.745889 0.461413 -0.029434
C96   C     C_R   0.013171 0.751831 0.534440 0.002922
C97   C     C_R   0.488054 0.047578 0.542236 -0.177233
C98   C     C_R   0.487215 0.042887 0.466987 -0.171956
C99   C     C_R   0.988060 0.547614 0.542238 -0.177225
C100  C     C_R   0.987205 0.542926 0.466994 -0.171944
Cr1   Cr    Cr6+3 0.771950 0.169480 0.750100 1.006336
Cr2   Cr    Cr6+3 0.228050 0.169480 0.249900 0.995861
Cr3   Cr    Cr6+3 0.271950 0.669480 0.750100 1.005728
Cr4   Cr    Cr6+3 0.728050 0.669480 0.249900 0.996904
Cr5   Cr    Cr6+3 0.614930 0.323340 0.749170 0.983046
Cr6   Cr    Cr6+3 0.385070 0.323340 0.250830 0.982320
Cr7   Cr    Cr6+3 0.114930 0.823340 0.749170 0.985308
Cr8   Cr    Cr6+3 0.885070 0.823340 0.250830 0.982354
Cr9   Cr    Cr6+3 0.616590 0.010620 0.750610 1.021655
Cr10  Cr    Cr6+3 0.383410 0.010620 0.249390 1.002384
Cr11  Cr    Cr6+3 0.116590 0.510620 0.750610 1.014546
Cr12  Cr    Cr6+3 0.883410 0.510620 0.249390 1.017783
H1    H     H_    0.480451 0.967722 0.573442 0.141095
H2    H     H_    0.476077 0.959067 0.442191 0.135007
H3    H     H_    0.980474 0.467755 0.573444 0.141046
H4    H     H_    0.976075 0.459106 0.442198 0.134966
H5    H     H_    0.862381 0.940029 0.921397 0.131787
H6    H     H_    0.197532 0.110718 0.047426 0.137865
H7    H     H_    0.361669 0.437786 0.921592 0.129198
H8    H     H_    0.643595 0.500534 0.068300 0.130115
H9    H     H_    0.874804 0.913326 0.048753 0.149460
H10   H     H_    0.191410 0.079026 0.919311 0.134529
H11   H     H_    0.374280 0.412703 0.048964 0.147202
H12   H     H_    0.638618 0.489122 0.941843 0.134524
H13   H     H_    0.651887 0.862261 0.075313 0.111904
H14   H     H_    0.310894 0.753937 0.941157 0.132438
H15   H     H_    0.150251 0.371239 0.076518 0.114434
H16   H     H_    0.840221 0.313202 0.931638 0.106121
H17   H     H_    0.625132 0.939437 0.552601 0.145675
H18   H     H_    0.367244 0.912838 0.442402 0.135791
H19   H     H_    0.125129 0.439482 0.552590 0.145762
H20   H     H_    0.867250 0.412861 0.442415 0.135676
H21   H     H_    0.638874 0.892946 0.422669 0.162404
H22   H     H_    0.352805 0.861847 0.571307 0.174047
H23   H     H_    0.138867 0.393020 0.422648 0.162558
H24   H     H_    0.852827 0.361926 0.571334 0.174003
H25   H     H_    0.830567 0.069884 0.410545 0.132523
H26   H     H_    0.173868 0.083459 0.588062 0.129548
H27   H     H_    0.330563 0.569918 0.410531 0.133350
H28   H     H_    0.673857 0.583467 0.588060 0.130014
H29   H     H_    0.451678 0.994649 0.921082 0.120276
H30   H     H_    0.432178 0.988769 0.049165 0.141713
H31   H     H_    0.956856 0.490879 0.922643 0.122966
H32   H     H_    0.942086 0.482609 0.050281 0.184332
H33   H     H_    0.518820 0.342706 0.069744 0.110036
H34   H     H_    0.538240 0.349408 0.940149 0.128200
H35   H     H_    0.015926 0.845477 0.069239 0.115436
H36   H     H_    0.035398 0.851607 0.939481 0.136393
O1    O     O_R   0.787510 0.042610 0.670410 -0.487525
O2    O     O_R   0.212490 0.042610 0.329590 -0.495862
O3    O     O_R   0.287510 0.542610 0.670410 -0.487208
O4    O     O_R   0.712490 0.542610 0.329590 -0.498938
O5    O     O_R   0.556450 0.252890 0.823790 -0.526162
O6    O     O_R   0.443550 0.252890 0.176210 -0.524577
O7    O     O_R   0.056450 0.752890 0.823790 -0.523839
O8    O     O_R   0.943550 0.752890 0.176210 -0.523514
O9    O     O_R   0.545750 0.051070 0.830560 -0.486471
O10   O     O_R   0.454250 0.051070 0.169440 -0.526843
O11   O     O_R   0.045750 0.551070 0.830560 -0.487019
O12   O     O_R   0.954250 0.551070 0.169440 -0.512339
O13   O     O_R   0.681210 0.959150 0.825320 -0.435018
O14   O     O_R   0.318790 0.959150 0.174680 -0.457496
O15   O     O_R   0.181210 0.459150 0.825320 -0.438444
O16   O     O_R   0.818790 0.459150 0.174680 -0.439601
O17   O     O_3   0.667820 0.167810 0.749960 -0.276678
O18   O     O_3   0.332180 0.167810 0.250040 -0.285465
O19   O     O_3   0.167820 0.667810 0.749960 -0.274828
O20   O     O_3   0.832180 0.667810 0.250040 -0.283235
O21   O     O_R   0.765670 0.292090 0.675090 -0.494244
O22   O     O_R   0.234330 0.292090 0.324910 -0.480222
O23   O     O_R   0.265670 0.792090 0.675090 -0.494448
O24   O     O_R   0.734330 0.792090 0.324910 -0.480825
O25   O     O_R   0.670220 0.409020 0.668560 -0.503020
O26   O     O_R   0.329780 0.409020 0.331440 -0.511371
O27   O     O_R   0.170220 0.909020 0.668560 -0.504606
O28   O     O_R   0.829780 0.909020 0.331440 -0.512387
O29   O     O_R   0.556580 0.251590 0.674980 -0.486906
O30   O     O_R   0.443420 0.251590 0.325020 -0.470320
O31   O     O_R   0.056580 0.751590 0.674980 -0.486976
O32   O     O_R   0.943420 0.751590 0.325020 -0.470977
O33   O     O_R   0.545890 0.049670 0.670030 -0.545281
O34   O     O_R   0.454110 0.049670 0.329970 -0.544209
O35   O     O_R   0.045890 0.549670 0.670030 -0.545961
O36   O     O_R   0.954110 0.549670 0.329970 -0.544001
O37   O     O_R   0.681340 0.957860 0.676500 -0.525597
O38   O     O_R   0.318660 0.957860 0.323500 -0.524083
O39   O     O_R   0.181340 0.457860 0.676500 -0.526837
O40   O     O_R   0.818660 0.457860 0.323500 -0.529068
O41   O     O_R   0.787380 0.044010 0.830940 -0.544490
O42   O     O_R   0.212620 0.044010 0.169060 -0.550856
O43   O     O_R   0.287380 0.544010 0.830940 -0.546145
O44   O     O_R   0.712620 0.544010 0.169060 -0.551288
O45   O     O_R   0.765540 0.293390 0.823910 -0.510310
O46   O     O_R   0.234460 0.293390 0.176090 -0.519622
O47   O     O_R   0.265540 0.793390 0.823910 -0.514974
O48   O     O_R   0.734460 0.793390 0.176090 -0.510814
O49   O     O_R   0.670090 0.410410 0.829090 -0.542542
O50   O     O_R   0.329910 0.410410 0.170910 -0.539540
O51   O     O_R   0.170090 0.910410 0.829090 -0.535893
O52   O     O_R   0.829910 0.910410 0.170910 -0.546055
O53   O     O_3   0.624150 0.871935 0.934787 -0.519854
C101  C     C_3   0.586289 0.773654 0.963137 -0.012782
H37   H     H_    0.553845 0.803251 0.009993 0.126144
H38   H     H_    0.621240 0.698784 0.979876 0.116992
C102  C     C_3   0.537510 0.726048 0.906082 -0.367266
H39   H     H_    0.568690 0.694850 0.858761 0.155334
H40   H     H_    0.506851 0.649948 0.928242 0.070768
H41   H     H_    0.500513 0.796997 0.888778 0.154816
O54   O     O_3   0.326728 0.770389 0.084729 -0.541349
C103  C     C_3   0.388768 0.721558 0.053646 -0.006635
H42   H     H_    0.418463 0.787937 0.020709 0.101869
H43   H     H_    0.375576 0.644053 0.019574 0.137602
C104  C     C_3   0.436575 0.678077 0.113041 -0.366299
H44   H     H_    0.408824 0.611102 0.146925 0.177449
H45   H     H_    0.484510 0.636196 0.089233 0.067632
H46   H     H_    0.452253 0.754280 0.147140 0.158648
O55   O     O_3   0.121712 0.390869 0.937651 -0.518666
C105  C     C_3   0.082483 0.290112 0.960072 -0.012950
H47   H     H_    0.043651 0.318078 0.001909 0.134068
H48   H     H_    0.114998 0.216591 0.982394 0.099605
C106  C     C_3   0.043820 0.239892 0.895993 -0.362015
H49   H     H_    0.082144 0.213889 0.853161 0.153545
H50   H     H_    0.013606 0.159694 0.912652 0.075192
H51   H     H_    0.007015 0.307485 0.874185 0.153859
O56   O     O_3   0.858910 0.314639 0.077202 -0.554904
C107  C     C_3   0.890635 0.213121 0.045642 -0.025351
H52   H     H_    0.924787 0.240083 0.999666 0.111514
H53   H     H_    0.850570 0.148364 0.027648 0.150156
C108  C     C_3   0.936875 0.152061 0.100760 -0.366020
H54   H     H_    0.904411 0.122214 0.147443 0.175718
H55   H     H_    0.963460 0.073411 0.076217 0.081994
H56   H     H_    0.977499 0.214912 0.119640 0.145537
O57   O     O_3   0.987980 0.934900 0.401678 -0.549071
C109  C     C_3   0.027959 0.958360 0.337855 0.027497
H57   H     H_    0.043264 0.874949 0.309901 0.142869
H58   H     H_    0.076989 0.006830 0.348804 0.195581
C110  C     C_3   0.986095 0.036263 0.286301 -0.377759
H59   H     H_    0.962430 0.114186 0.314301 0.124305
H60   H     H_    0.021246 0.068916 0.242374 0.069479
H61   H     H_    0.943497 0.985140 0.261783 0.203560
O58   O     O_3   0.031501 0.948939 0.583875 -0.557656
C111  C     C_3   0.988579 0.977209 0.645150 0.029918
H62   H     H_    0.970168 0.896791 0.674178 0.143908
H63   H     H_    0.940421 0.026325 0.630332 0.207466
C112  C     C_3   0.028134 0.056743 0.696944 -0.378221
H64   H     H_    0.057059 0.127757 0.667376 0.131220
H65   H     H_    0.990371 0.099396 0.735161 0.066357
H66   H     H_    0.065650 0.003803 0.728764 0.196476
O59   O     O_3   0.488220 0.434876 0.401661 -0.548893
C113  C     C_3   0.528297 0.458029 0.337869 0.027192
H67   H     H_    0.543564 0.374475 0.310048 0.141557
H68   H     H_    0.577324 0.506505 0.348824 0.195952
C114  C     C_3   0.486567 0.535762 0.286142 -0.379242
H69   H     H_    0.463422 0.614430 0.313812 0.124135
H70   H     H_    0.521687 0.567252 0.241880 0.065737
H71   H     H_    0.443581 0.484879 0.262166 0.204391
O60   O     O_3   0.531469 0.448866 0.583907 -0.557754
C115  C     C_3   0.488477 0.477052 0.645143 0.029413
H72   H     H_    0.470037 0.396593 0.674112 0.143935
H73   H     H_    0.440341 0.526199 0.630288 0.207622
C116  C     C_3   0.527972 0.556506 0.697021 -0.377044
H74   H     H_    0.556874 0.627626 0.667524 0.132416
H75   H     H_    0.490168 0.599008 0.735256 0.066387
H76   H     H_    0.565502 0.503538 0.728807 0.196771
O61   O     O_3   0.602584 0.405768 0.454125 -0.583766
C117  C     C_3   0.651965 0.308777 0.447029 -0.007671
H77   H     H_    0.642669 0.234215 0.485309 0.125674
H78   H     H_    0.703445 0.339204 0.463745 0.167850
C118  C     C_3   0.660585 0.263303 0.369978 -0.393870
H79   H     H_    0.666855 0.338021 0.331634 0.182025
H80   H     H_    0.708198 0.206162 0.365775 0.117380
H81   H     H_    0.615188 0.208992 0.353988 0.121406
O62   O     O_3   0.419942 0.404818 0.530706 -0.576667
C119  C     C_3   0.371515 0.307820 0.536067 0.001049
H82   H     H_    0.386682 0.226689 0.506147 0.130621
H83   H     H_    0.323315 0.334709 0.508398 0.174682
C120  C     C_3   0.349709 0.279471 0.613666 -0.388572
H84   H     H_    0.350362 0.360495 0.646946 0.191646
H85   H     H_    0.295726 0.242439 0.615127 0.121619
H86   H     H_    0.384716 0.212685 0.638372 0.114679
O63   O     O_3   0.102442 0.905912 0.453973 -0.583854
C121  C     C_3   0.151837 0.808953 0.446835 -0.009402
H87   H     H_    0.142599 0.734389 0.485129 0.125762
H88   H     H_    0.203328 0.839411 0.463498 0.167878
C122  C     C_3   0.160385 0.763476 0.369779 -0.390586
H89   H     H_    0.166630 0.838198 0.331433 0.185404
H90   H     H_    0.207982 0.706295 0.365539 0.119889
H91   H     H_    0.114960 0.709211 0.353821 0.121846
O64   O     O_3   0.919905 0.904875 0.530827 -0.576621
C123  C     C_3   0.871489 0.807865 0.536204 0.000876
H92   H     H_    0.886641 0.726748 0.506260 0.130551
H93   H     H_    0.823266 0.834753 0.508574 0.174818
C124  C     C_3   0.849742 0.779487 0.613817 -0.388064
H94   H     H_    0.850471 0.860483 0.647123 0.191681
H95   H     H_    0.795740 0.742533 0.615320 0.122275
H96   H     H_    0.884738 0.712624 0.638464 0.114793
O65   O     O_3   0.837709 0.128416 0.554104 -0.528741
C125  C     C_3   0.894689 0.164158 0.509381 -0.000721
H97   H     H_    0.876375 0.227806 0.468465 0.100396
H98   H     H_    0.918943 0.089514 0.479765 0.216967
C126  C     C_3   0.952145 0.220393 0.553716 -0.405782
H99   H     H_    0.997127 0.159919 0.557939 0.149599
H100  H     H_    0.971491 0.299628 0.525311 0.078724
H101  H     H_    0.934472 0.243111 0.609157 0.163078
O66   O     O_3   0.182004 0.166458 0.448904 -0.544591
C127  C     C_3   0.113056 0.176052 0.477450 0.003489
H102  H     H_    0.111528 0.242977 0.520993 0.107925
H103  H     H_    0.093555 0.092747 0.501335 0.216447
C128  C     C_3   0.062634 0.211878 0.417941 -0.375423
H104  H     H_    0.041999 0.302589 0.425879 0.081287
H105  H     H_    0.016339 0.153870 0.419516 0.136767
H106  H     H_    0.088316 0.207930 0.364013 0.185352
O67   O     O_3   0.337736 0.628366 0.554102 -0.528755
C129  C     C_3   0.394710 0.664133 0.509376 -0.000851
H107  H     H_    0.376389 0.727804 0.468477 0.100703
H108  H     H_    0.418959 0.589507 0.479738 0.216915
C130  C     C_3   0.452172 0.720348 0.553714 -0.405748
H109  H     H_    0.497130 0.659828 0.557974 0.149617
H110  H     H_    0.471560 0.799546 0.525295 0.078730
H111  H     H_    0.434488 0.743125 0.609142 0.163370
O68   O     O_3   0.681998 0.666444 0.448902 -0.544344
C131  C     C_3   0.613038 0.676005 0.477421 0.003642
H112  H     H_    0.611479 0.742956 0.520949 0.108049
H113  H     H_    0.593545 0.592703 0.501317 0.216312
C132  C     C_3   0.562632 0.711766 0.417885 -0.375829
H114  H     H_    0.541996 0.802494 0.425769 0.081097
H115  H     H_    0.516338 0.653753 0.419478 0.137111
H116  H     H_    0.588326 0.707737 0.363965 0.184876

loop_
_geom_bond_atom_site_label_1
_geom_bond_atom_site_label_2
_ccdc_geom_bond_type
C131  H113  S    
C5    O61   S    
C55   C59   A    
C123  C124  S    
C21   H25   S    
Cr12  O36   S    
C126  H99   S    
C24   H28   S    
C121  H87   S    
Cr6   O18   S    
C87   O43   A    
C16   C20   A    
Cr1   O41   S    
C5    C6    S    
C98   H2    S    
C131  C132  S    
C85   O41   A    
C34   C37   A    
C119  H82   S    
C6    O62   S    
C9    C13   A    
C11   C15   A    
C12   C16   A    
C6    C94   S    
C48   C91   S    
C111  H63   S    
C91   C100  A    
C12   H20   S    
C76   O40   A    
C113  C114  S    
Cr5   O49   S    
C28   O68   S    
C49   C69   A    
C112  H64   S    
C40   C83   S    
C109  H58   S    
Cr2   O46   S    
C104  H45   S    
C25   C29   A    
C80   O48   A    
C55   H11   S    
C111  C112  S    
C101  H37   S    
C27   C31   A    
C28   C32   A    
C47   O35   A    
C48   O36   A    
Cr9   O37   S    
C129  H107  S    
C17   C21   A    
C109  C110  S    
C130  H111  S    
C19   C23   A    
C43   C44   A    
C108  H54   S    
C52   C72   A    
C10   C30   A    
C68   C72   A    
C127  H102  S    
C45   C90   S    
C58   C79   S    
C118  H80   S    
C38   C81   S    
Cr11  O19   S    
C125  H97   S    
C116  H75   S    
C126  H101  S    
C1    C20   S    
Cr12  O12   S    
Cr7   O31   S    
C2    C19   S    
C13   H21   S    
Cr5   O29   S    
C51   C71   A    
C57   C61   A    
C124  H96   S    
C59   C63   A    
C33   C38   A    
C60   C64   A    
Cr4   O4    S    
C35   C40   A    
C36   H32   S    
C122  H90   S    
C84   O8    A    
C66   C70   A    
C49   C53   A    
C33   C34   A    
C51   C55   A    
C50   C70   A    
O65   C125  S    
C61   C65   A    
O68   C131  S    
C112  H66   S    
C78   O50   A    
C113  H68   S    
Cr7   O7    S    
Cr4   O44   S    
Cr2   O22   S    
Cr5   O5    S    
Cr3   O19   S    
C47   C92   S    
Cr9   O9    S    
C97   C98   A    
Cr10  O14   S    
C7    C8    S    
C46   C89   S    
C1    O25   A    
O59   C113  S    
C124  H94   S    
C6    O60   S    
C64   C68   A    
C39   C84   S    
C108  H56   S    
C116  H74   S    
C82   O10   A    
C83   O7    A    
C92   C96   A    
C81   O5    A    
O60   C115  S    
C132  H115  S    
C77   O45   A    
C49   H5    S    
C75   O3    A    
C51   H7    S    
O57   C109  S    
C7    O63   S    
Cr8   O20   S    
Cr2   O18   S    
Cr5   O25   S    
C110  H59   S    
Cr3   O23   S    
C57   C80   S    
C59   C78   S    
O56   C107  S    
C8    O64   S    
C128  H105  S    
C86   O42   A    
C62   C66   A    
C10   C14   A    
C33   H29   S    
O55   C105  S    
C88   O16   A    
C106  H49   S    
C105  H48   S    
Cr11  O35   S    
O54   C103  S    
C41   H33   S    
C117  H78   S    
C26   C30   A    
C103  H43   S    
C22   C26   A    
Cr3   O43   S    
C16   H24   S    
C48   O32   A    
C69   C85   S    
C105  C106  S    
Cr9   O33   S    
C21   C25   A    
Cr10  O38   S    
C4    O24   A    
C18   C22   A    
C36   C39   A    
C24   C28   A    
C117  C118  S    
C32   C76   S    
C114  H71   S    
C73   O37   A    
C103  C104  S    
C121  H88   S    
Cr4   O24   S    
C89   C98   A    
C46   O34   A    
C120  H85   S    
C115  H72   S    
C125  H98   S    
Cr7   O51   S    
C8    O58   S    
C119  H83   S    
C37   C41   A    
C91   C95   A    
C40   C44   A    
C121  C122  S    
C107  H52   S    
C27   O67   S    
C120  H86   S    
C25   O65   S    
Cr6   O30   S    
C92   C99   A    
C58   C62   A    
C119  C120  S    
C85   O13   A    
C41   C42   A    
C35   C36   A    
C100  H4    S    
C84   O12   A    
C45   O33   A    
C104  H44   S    
C15   C19   A    
C50   C54   A    
C101  H38   S    
C56   H12   S    
C106  H51   S    
C99   H3    S    
C128  H106  S    
C76   O4    A    
C129  H108  S    
C123  H92   S    
C78   O46   A    
C130  H110  S    
C30   C74   S    
C14   C18   A    
Cr6   O6    S    
C101  C102  S    
C127  H103  S    
Cr1   O21   S    
C90   C97   A    
Cr10  O10   S    
Cr3   O3    S    
Cr6   O50   S    
C129  C130  S    
C131  H112  S    
C50   H6    S    
C118  H79   S    
Cr3   O47   S    
Cr12  O16   S    
Cr1   O45   S    
C90   C94   A    
Cr7   O19   S    
C126  H100  S    
C127  C128  S    
C81   O9    A    
C5    O59   S    
C67   O55   S    
C79   O51   A    
C53   C57   A    
C68   O56   S    
C113  H67   S    
C128  H104  S    
C56   C60   A    
C125  C126  S    
C10   H18   S    
C122  H89   S    
C116  H76   S    
C31   C75   S    
Cr8   O8    S    
C111  H62   S    
Cr6   O26   S    
Cr1   O17   S    
Cr9   O17   S    
Cr2   O2    S    
C71   C87   S    
C4    C17   S    
C3    O27   A    
C9    H17   S    
C112  H65   S    
C37   C82   S    
C109  H57   S    
C42   H34   S    
C62   H14   S    
C104  H46   S    
C88   O44   A    
C34   H30   S    
C73   O1    A    
C75   O39   A    
C38   C42   A    
C13   C17   A    
C22   H26   S    
Cr11  O39   S    
C108  H55   S    
C53   H9    S    
O67   C129  S    
C114  H69   S    
Cr7   O27   S    
C65   C69   A    
Cr8   O28   S    
Cr2   O42   S    
Cr5   O17   S    
C67   C71   A    
C132  H114  S    
C15   H23   S    
Cr10  O34   S    
C124  H95   S    
O66   C127  S    
C4    O28   A    
C118  H81   S    
C77   O49   A    
C35   H31   S    
C74   O38   A    
C80   O52   A    
C87   O15   A    
C7    O57   S    
C93   C94   A    
O53   C101  S    
C46   O30   A    
C95   C96   A    
C8    C96   S    
C79   O47   A    
C102  H39   S    
C23   H27   S    
O58   C111  S    
C122  H91   S    
C29   C73   S    
Cr12  O20   S    
Cr8   O32   S    
C3    C18   S    
Cr1   O1    S    
C47   O31   A    
C20   C24   A    
C64   H16   S    
C86   O14   A    
C23   C27   A    
O61   C117  S    
C45   O29   A    
C54   H10   S    
C11   C31   A    
C12   C32   A    
C89   C93   A    
C72   C88   S    
Cr4   O48   S    
C63   C67   A    
C60   C77   S    
Cr11  O15   S    
C114  H70   S    
C39   C43   A    
C14   H22   S    
O63   C121  S    
Cr8   O52   S    
C132  H116  S    
C115  H73   S    
Cr4   O20   S    
C99   C100  A    
O62   C119  S    
C83   O11   A    
C66   O54   S    
C52   H8    S    
C2    O22   A    
C107  H53   S    
C110  H60   S    
C110  H61   S    
C115  C116  S    
C97   H1    S    
C70   C86   S    
O64   C123  S    
C54   C58   A    
C102  H41   S    
Cr11  O11   S    
C11   H19   S    
Cr12  O40   S    
C5    C93   S    
C9    C29   A    
C107  C108  S    
C7    C95   S    
C106  H50   S    
Cr9   O13   S    
C2    O26   A    
Cr10  O18   S    
C3    O23   A    
C105  H47   S    
C1    O21   A    
C44   H36   S    
C123  H93   S    
C130  H109  S    
C43   H35   S    
C117  H77   S    
C82   O6    A    
C65   O53   S    
C103  H42   S    
C26   O66   S    
C74   O2    A    
C61   H13   S    
C120  H84   S    
C102  H40   S    
C63   H15   S    
C52   C56   A    
