data_mof_unit_28445.cif
_audit_creation_date              2012-10-26T21:12:34-0400
_audit_creation_method            fapswitch 2.2
_symmetry_space_group_name_H-M    P1
_symmetry_Int_Tables_number       1
_space_group_crystal_system       triclinic
_cell_length_a                    23.531173
_cell_length_b                    10.763095
_cell_length_c                    9.662779
_cell_angle_alpha                 90.572931
_cell_angle_beta                  90.575454
_cell_angle_gamma                 94.601069
_cell_volume                      2439.12213431

loop_
_atom_site_label
_atom_site_type_symbol
_atom_type_description
_atom_site_fract_x
_atom_site_fract_y
_atom_site_fract_z
_atom_type_partial_charge
C1    C     C_R   0.499532 0.263108 0.499424 0.579122
C2    C     C_R   0.124759 0.608941 0.546716 0.459079
C3    C     C_R   0.239992 0.565873 0.397661 0.149313
C4    C     C_R   0.391251 0.500945 0.499225 0.549854
C5    C     C_R   0.299851 0.566978 0.394518 0.206310
C6    C     C_R   0.328831 0.503436 0.497883 -0.006219
C7    C     C_R   0.297639 0.442015 0.603553 -0.188640
C8    C     C_R   0.238563 0.441843 0.606456 -0.085794
C9    C     C_R   0.209608 0.503238 0.504018 0.231756
C10   C     C_R   0.761794 0.468427 0.620048 -0.026295
C11   C     C_R   0.702106 0.465062 0.623322 0.087249
C12   C     C_R   0.962069 0.286736 0.434260 -0.072551
C13   C     C_R   0.671691 0.496201 0.502532 0.064360
C14   C     C_R   0.702059 0.526924 0.381233 -0.126838
C15   C     C_R   0.761288 0.529272 0.379682 -0.048825
C16   C     C_R   0.499768 0.737029 0.500540 0.574952
C17   C     C_R   0.791165 0.500540 0.499088 0.220270
C18   C     C_R   0.396081 0.112571 0.558289 -0.094079
C19   C     C_R   0.346309 0.039674 0.589221 -0.038298
C20   C     C_R   0.346160 0.910160 0.593209 0.131366
C21   C     C_R   0.396580 0.853705 0.565204 -0.036228
C22   C     C_R   0.447471 0.926102 0.532943 -0.030816
C23   C     C_R   0.021011 0.283963 0.435675 0.249970
C24   C     C_R   0.447256 0.056985 0.530345 -0.023623
C25   C     C_R   0.498091 0.129048 0.498338 -0.008816
C26   C     C_R   0.548471 0.073378 0.468377 0.246090
C27   C     C_R   0.548741 0.944186 0.470600 0.223566
C28   C     C_R   0.608891 0.498118 0.500746 0.592147
C29   C     C_R   0.498483 0.871016 0.501958 -0.020252
C30   C     C_R   0.580409 0.654663 0.155015 -0.071875
C31   C     C_R   0.626738 0.717571 0.096061 -0.166657
C32   C     C_R   0.631155 0.717998 0.956001 -0.135475
C33   C     C_R   0.587974 0.660206 0.871403 0.149052
C34   C     C_R   0.056323 0.393181 0.471054 0.038680
C35   C     C_R   0.541807 0.577585 0.928901 0.178874
C36   C     C_R   0.540252 0.576615 0.078591 0.093450
C37   C     C_R   0.462149 0.425459 0.070610 0.359435
C38   C     C_R   0.461999 0.426586 0.923665 0.040676
C39   C     C_R   0.883680 0.611052 0.532841 0.432359
C40   C     C_R   0.876939 0.396780 0.465081 0.410915
C41   C     C_R   0.936411 0.395737 0.467119 -0.006547
C42   C     C_R   0.970416 0.505412 0.503397 -0.074380
C43   C     C_R   0.944032 0.615286 0.536648 0.036715
C44   C     C_R   0.030612 0.504458 0.506198 -0.107635
C45   C     C_R   0.064882 0.614279 0.544032 0.021941
C46   C     C_R   0.038187 0.724783 0.576835 0.254603
C47   C     C_R   0.978309 0.725056 0.572686 0.107259
C48   C     C_R   0.116343 0.396181 0.471609 0.443764
Cl1   Cl    Cl    0.612022 0.166059 0.431218 -0.504166
Cl2   Cl    Cl    0.613090 0.874664 0.439001 -0.592346
Cl3   Cl    Cl    0.411906 0.321448 0.151075 -0.521632
Cl4   Cl    Cl    0.046427 0.138526 0.392863 -0.439987
Cl5   Cl    Cl    0.077375 0.867593 0.622011 -0.431829
Cl6   Cl    Cl    0.337282 0.654638 0.265516 -0.561458
Cu1   Cu    Cu3+1 0.500000 0.499990 0.640660 0.995936
Cu2   Cu    Cu3+1 0.500000 0.500010 0.359340 1.097066
H1    H     H_    0.936177 0.202020 0.407011 0.200600
H2    H     H_    0.430909 0.366018 0.866702 0.144183
H3    H     H_    0.319040 0.392922 0.683606 0.147741
H4    H     H_    0.215089 0.393834 0.688553 0.165309
H5    H     H_    0.785718 0.445118 0.711248 0.128187
H6    H     H_    0.652366 0.339159 0.729544 0.274933
H7    H     H_    0.701450 0.419490 0.829451 0.230591
H8    H     H_    0.266215 0.843604 0.543094 0.281086
H9    H     H_    0.301905 0.743345 0.635539 0.236384
H10   H     H_    0.631713 0.696662 0.695370 0.250966
H11   H     H_    0.584742 0.799891 0.736688 0.243865
H12   H     H_    0.680097 0.550236 0.287305 0.137624
H13   H     H_    0.966787 0.907007 0.535713 0.296762
H14   H     H_    0.964122 0.866515 0.705714 0.277780
H15   H     H_    0.218669 0.591104 0.197027 0.281440
H16   H     H_    0.223353 0.722730 0.296120 0.283393
H17   H     H_    0.784053 0.553725 0.285716 0.139606
H18   H     H_    0.393925 0.212595 0.555886 0.122068
H19   H     H_    0.307624 0.084309 0.610402 0.159713
H20   H     H_    0.395516 0.753349 0.568409 0.128981
H21   H     H_    0.578654 0.670812 0.262365 0.223700
H22   H     H_    0.658151 0.771524 0.159467 0.187781
H23   H     H_    0.666172 0.775283 0.911339 0.150689
N1    N     N_R   0.852075 0.503118 0.497861 -0.408697
N2    N     N_R   0.148584 0.502490 0.508446 -0.398946
N3    N     N_R   0.500540 0.501210 0.147910 -0.235897
N4    N     N_R   0.500560 0.501290 0.852040 -0.261603
N5    N     N_3   0.672619 0.427965 0.747682 -0.592847
N6    N     N_3   0.294449 0.837365 0.626494 -0.546807
N7    N     N_3   0.590659 0.704490 0.733721 -0.507991
N8    N     N_3   0.952262 0.837889 0.605079 -0.511465
N9    N     N_3   0.209262 0.628105 0.293802 -0.552078
O1    O     O_R   0.500000 0.319640 0.618810 -0.514687
O2    O     O_R   0.582120 0.500020 0.618760 -0.447552
O3    O     O_R   0.582120 0.500050 0.381190 -0.529393
O4    O     O_2   0.856375 0.713030 0.564184 -0.423548
O5    O     O_2   0.844017 0.292199 0.431035 -0.450571
O6    O     O_2   0.142955 0.294886 0.434429 -0.376352
O7    O     O_2   0.159606 0.708299 0.587309 -0.400906
O8    O     O_R   0.500000 0.319660 0.381240 -0.430281
O9    O     O_R   0.417880 0.499950 0.618810 -0.539025
O10   O     O_R   0.417880 0.499980 0.381240 -0.395703
O11   O     O_R   0.500000 0.680340 0.618760 -0.478680
O12   O     O_R   0.500000 0.680360 0.381190 -0.495224

loop_
_geom_bond_atom_site_label_1
_geom_bond_atom_site_label_2
_ccdc_geom_bond_type
Cu1   Cu2   S    
C22   C29   A    
C4    O10   A    
C38   N4    A    
C27   C29   A    
C41   C42   A    
H8    N6    S    
C19   C20   A    
Cu2   O10   S    
C40   O5    S    
C7    C8    A    
C45   C46   A    
C21   H20   S    
C26   C27   A    
C37   C38   A    
C48   O6    S    
C18   C24   A    
C21   C22   A    
C2    O7    S    
Cu1   O2    S    
C30   C31   A    
C37   Cl3   S    
C10   C17   A    
C48   N2    A    
Cu2   O8    S    
C18   C19   A    
C38   H2    S    
C30   H21   S    
Cu2   O3    S    
C35   C36   A    
C36   N3    A    
C8    C9    A    
C40   N1    A    
C13   C28   S    
H13   N8    S    
C27   Cl2   S    
C18   H18   S    
C4    O9    A    
C1    C25   S    
C42   C44   A    
H14   N8    S    
C7    H3    S    
H16   N9    S    
C2    C45   A    
C5    Cl6   S    
C34   C44   A    
C24   C25   A    
C4    C6    S    
C26   Cl1   S    
C35   N4    A    
C16   O12   A    
C39   C43   A    
C16   C29   S    
C17   N1    S    
C47   N8    S    
C33   N7    S    
C12   C41   A    
C3    C9    A    
C31   C32   A    
C12   C23   A    
C23   C34   A    
C20   N6    S    
Cu1   O9    S    
Cu2   N3    S    
C12   H1    S    
C40   C41   A    
C15   H17   S    
C22   C24   A    
C37   N3    A    
C10   H5    S    
C34   C48   A    
C42   C43   A    
Cu2   O12   S    
Cu1   N4    S    
C39   O4    S    
C44   C45   A    
C31   H22   S    
C15   C17   A    
H6    N5    S    
C46   C47   A    
H11   N7    S    
C1    O1    A    
C3    N9    S    
C3    C5    A    
H10   N7    S    
C16   O11   A    
H9    N6    S    
C6    C7    A    
C11   N5    S    
C30   C36   A    
H7    N5    S    
C32   C33   A    
C19   H19   S    
C25   C26   A    
Cu1   O1    S    
C39   N1    A    
C32   H23   S    
C11   C13   A    
C23   Cl4   S    
C5    C6    A    
C1    O8    A    
C46   Cl5   S    
C33   C35   A    
C28   O3    A    
C10   C11   A    
H15   N9    S    
C20   C21   A    
Cu1   O11   S    
C14   H12   S    
C14   C15   A    
C2    N2    A    
C28   O2    A    
C13   C14   A    
C43   C47   A    
C8    H4    S    
C9    N2    S    
