data_mof_unit_33445.cif
_audit_creation_date              2012-12-11T17:22:42-0500
_audit_creation_method            fapswitch 2.2
_symmetry_space_group_name_H-M    P1
_symmetry_Int_Tables_number       1
_space_group_crystal_system       triclinic
_cell_length_a                    8.502952
_cell_length_b                    16.659332
_cell_length_c                    26.998084
_cell_angle_alpha                 96.196923
_cell_angle_beta                  92.981514
_cell_angle_gamma                 85.514281
_cell_volume                      3786.71571416

loop_
_atom_site_label
_atom_site_type_symbol
_atom_type_description
_atom_site_fract_x
_atom_site_fract_y
_atom_site_fract_z
_atom_type_partial_charge
Ba1   Ba    Ba6+2 0.851940 0.461560 0.523510 1.814321
Ba2   Ba    Ba6+2 0.337880 0.538370 0.476480 1.741907
C1    C     C_3   0.635668 0.205533 0.713230 -0.231580
C2    C     C_R   0.918999 0.581248 0.182921 0.571506
C3    C     C_2   0.733038 0.517409 0.268172 0.025697
C4    C     C_3   0.121560 0.207110 0.648334 0.675445
C5    C     C_3   0.692651 0.512759 0.322763 -0.071013
C6    C     C_1   0.974101 0.483008 0.342867 0.037928
C7    C     C_2   0.011415 0.483422 0.295664 -0.140725
C8    C     C_2   0.888530 0.505464 0.255851 0.237068
C9    C     C_R   0.050243 0.516930 0.108967 -0.082317
C10   C     C_R   0.060383 0.443130 0.130509 -0.043934
C11   C     C_R   0.118150 0.372692 0.102270 -0.058203
C12   C     C_3   0.623125 0.261886 0.670784 0.707812
C13   C     C_R   0.974691 0.585802 0.134839 -0.030814
C14   C     C_2   0.837284 0.516962 0.357960 -0.259115
C15   C     C_2   0.352830 0.502458 0.648416 -0.216991
C16   C     C_3   0.038983 0.163502 0.685482 -0.198533
C17   C     C_R   0.239973 0.453299 0.986339 -0.068575
C18   C     C_R   0.152451 0.598322 0.989547 0.003848
C19   C     C_R   0.212376 0.525211 0.962371 -0.018481
C20   C     C_R   0.334566 0.388426 0.961995 0.329739
C21   C     C_R   0.355118 0.384356 0.910522 0.429988
C22   C     C_R   0.306762 0.451963 0.884081 -0.125453
C23   C     C_3   0.599846 0.671093 0.638428 0.361584
C24   C     C_R   0.250677 0.524414 0.911296 -0.144504
C25   C     C_R   0.234426 0.596048 0.887606 -0.063994
C26   C     C_R   0.266718 0.593947 0.836249 0.607975
C27   C     C_R   0.320020 0.450482 0.831816 0.718329
C28   C     C_3   0.187917 0.290804 0.416538 0.312880
C29   C     C_2   0.456180 0.477435 0.733707 0.296017
C30   C     C_3   0.452687 0.445834 0.678859 -0.070888
C31   C     C_1   0.215460 0.534224 0.665346 -0.058743
C32   C     C_2   0.189730 0.540351 0.715443 -0.071278
C33   C     C_2   0.322854 0.515718 0.753130 0.185498
C34   C     C_3   0.695319 0.712370 0.683087 0.308820
C35   C     C_R   0.178832 0.449895 0.034221 0.053993
C36   C     C_R   0.109659 0.520941 0.060588 0.048967
C37   C     C_R   0.092461 0.594810 0.038102 0.039305
C38   C     C_R   0.169739 0.375704 0.054503 -0.026674
C39   C     C_R   0.949068 0.656664 0.111003 -0.067364
C40   C     C_3   0.198540 0.199431 0.402428 0.303824
C41   C     C_R   0.161789 0.671492 0.966971 0.346147
C42   C     C_R   0.195013 0.669162 0.916522 -0.034202
C43   C     C_R   0.001337 0.659944 0.063143 -0.041457
C44   C     C_R   0.408505 0.267470 0.525755 0.069437
C45   C     C_3   0.989344 0.778389 0.342783 0.600100
C46   C     C_R   0.539453 0.242424 0.497217 0.039598
C47   C     C_R   0.585404 0.159687 0.487388 -0.167561
C48   C     C_R   0.492127 0.101332 0.502308 0.252254
C49   C     C_R   0.346045 0.127383 0.523395 0.340342
C50   C     C_R   0.305637 0.210661 0.535933 -0.045718
C51   C     C_R   0.623930 0.857301 0.519728 -0.095342
C52   C     C_3   0.160461 0.718033 0.619879 0.632300
C53   C     C_R   0.668184 0.772874 0.513342 0.014574
C54   C     C_R   0.718024 0.911510 0.498613 0.280683
C55   C     C_R   0.807038 0.744203 0.489611 -0.260978
C56   C     C_3   0.994862 0.842828 0.304395 0.402168
C57   C     C_R   0.906761 0.796925 0.472806 0.055782
C58   C     C_R   0.862643 0.880884 0.477822 0.397021
C59   C     C_3   0.175087 0.750813 0.674675 -0.322508
C60   C     C_3   0.603826 0.338139 0.366282 0.265372
C61   C     C_3   0.525412 0.296739 0.318251 -0.064593
C62   C     C_3   0.633853 0.223759 0.295343 -0.165834
C63   C     C_3   0.593386 0.142948 0.311721 -0.289981
C64   C     C_3   0.483082 0.358208 0.280300 -0.314487
C65   C     C_3   0.359779 0.329597 0.240402 -0.348026
C66   C     C_3   0.680589 0.673483 0.731554 -0.319854
C67   C     C_3   0.464133 0.741313 0.362339 0.333262
C68   C     C_3   0.527612 0.696466 0.758146 -0.250349
C69   C     C_3   0.686594 0.246392 0.764611 -0.242822
C70   C     C_3   0.725451 0.183966 0.801685 -0.309996
C71   C     C_3   0.008350 0.690258 0.317062 -0.300496
C72   C     C_3   0.131555 0.675530 0.276829 -0.403284
C73   C     C_3   0.854908 0.843216 0.265240 -0.258403
C74   C     C_3   0.895345 0.878870 0.218038 -0.385784
C75   C     C_3   0.137672 0.297263 0.667661 -0.269813
C76   C     C_3   0.181560 0.312714 0.722780 -0.406697
C77   C     C_3   0.597596 0.530768 0.229587 -0.190932
C78   C     C_3   0.436032 0.823745 0.342025 0.279188
C79   C     C_3   0.603160 0.471638 0.181870 -0.386259
C80   C     C_3   0.033980 0.575557 0.735299 -0.230778
C81   C     C_3   0.959136 0.520025 0.767477 -0.288655
C82   C     C_3   0.484329 0.889369 0.551142 -0.151955
C83   C     C_3   0.533335 0.944516 0.597585 -0.245389
C84   C     C_R   0.004432 0.440375 0.178705 0.574772
Cl1   Cl    Cl    0.664262 0.202231 0.613417 -0.661798
Cl2   Cl    Cl    0.461897 0.323004 0.996540 -0.596688
Cl3   Cl    Cl    0.169978 0.768099 0.000736 -0.655462
Cl4   Cl    Cl    0.308974 0.152010 0.641481 -0.746694
Cl5   Cl    Cl    0.211981 0.055897 0.533060 -0.497874
Cl6   Cl    Cl    0.984398 0.948751 0.456040 -0.370259
Cl7   Cl    Cl    0.368152 0.370341 0.546645 -0.688915
Cl8   Cl    Cl    0.006509 0.162996 0.392268 -0.517038
Cl9   Cl    Cl    0.122883 0.802309 0.584634 -0.675434
Cl10  Cl    Cl    0.652398 0.819964 0.693312 -0.675435
Cl11  Cl    Cl    0.800521 0.795060 0.367626 -0.819492
Cl12  Cl    Cl    0.005525 0.943023 0.335235 -0.459564
Cl13  Cl    Cl    0.400854 0.902346 0.391312 -0.524589
Cl14  Cl    Cl    0.619239 0.450999 0.773297 -0.740287
Cl15  Cl    Cl    0.457020 0.295770 0.881992 -0.562053
H1    H     H_    0.264542 0.183935 0.367897 0.043314
H2    H     H_    0.412819 0.274959 0.328895 0.109232
H3    H     H_    0.498770 0.287221 0.668458 -0.029761
H4    H     H_    0.519317 0.181785 0.717035 0.153802
H5    H     H_    0.494784 0.647077 0.652189 -0.121226
H6    H     H_    0.670584 0.619318 0.619807 0.022806
H7    H     H_    0.821064 0.704537 0.673669 0.059180
H8    H     H_    0.118415 0.150440 0.718112 0.105106
H9    H     H_    0.104134 0.831465 0.283848 0.009735
H10   H     H_    0.538609 0.747551 0.397359 0.095705
H11   H     H_    0.350933 0.720908 0.372191 0.072231
H12   H     H_    0.262003 0.168202 0.432346 -0.039045
H13   H     H_    0.335138 0.823490 0.315202 0.021559
H14   H     H_    0.536744 0.837876 0.321129 0.112240
H15   H     H_    0.133090 0.469702 0.285548 0.097734
H16   H     H_    0.118483 0.314152 0.116313 0.138100
H17   H     H_    0.194975 0.318234 0.032933 0.152420
H18   H     H_    0.882831 0.709378 0.128598 0.126441
H19   H     H_    0.196354 0.725925 0.900404 0.168446
H20   H     H_    0.959639 0.712754 0.045348 0.155560
H21   H     H_    0.828371 0.547473 0.395457 0.070682
H22   H     H_    0.403847 0.524430 0.616815 0.070603
H23   H     H_    0.271431 0.684643 0.607634 0.008084
H24   H     H_    0.688633 0.140747 0.466002 0.185902
H25   H     H_    0.938032 0.202744 0.699393 0.074570
H26   H     H_    0.840662 0.679884 0.485347 0.071441
H27   H     H_    0.997377 0.105321 0.667442 0.174992
H28   H     H_    0.308540 0.310678 0.424487 -0.123218
H29   H     H_    0.117420 0.305768 0.450182 0.069545
H30   H     H_    0.673996 0.093327 0.294378 0.162379
H31   H     H_    0.606947 0.142841 0.352787 0.189098
H32   H     H_    0.470137 0.130632 0.299406 0.118184
H33   H     H_    0.760104 0.232870 0.305551 0.168034
H34   H     H_    0.068169 0.790120 0.685518 0.174368
H35   H     H_    0.624177 0.217936 0.253983 0.114851
H36   H     H_    0.404744 0.274611 0.217048 0.145009
H37   H     H_    0.250771 0.316637 0.258100 0.174358
H38   H     H_    0.329558 0.378101 0.215672 0.136973
H39   H     H_    0.432839 0.415592 0.299715 0.139857
H40   H     H_    0.591784 0.370387 0.262489 0.124405
H41   H     H_    0.507459 0.762811 0.767455 0.202526
H42   H     H_    0.426702 0.672881 0.735215 0.120828
H43   H     H_    0.536761 0.668130 0.793619 0.169180
H44   H     H_    0.689053 0.606952 0.722836 0.115277
H45   H     H_    0.280505 0.786489 0.681536 0.159240
H46   H     H_    0.779358 0.691358 0.757953 0.139941
H47   H     H_    0.620591 0.149964 0.806054 0.188041
H48   H     H_    0.824827 0.140847 0.788705 0.127101
H49   H     H_    0.761159 0.215103 0.838529 0.200401
H50   H     H_    0.792573 0.280547 0.762460 0.181724
H51   H     H_    0.588549 0.288901 0.778758 0.250526
H52   H     H_    0.245903 0.697102 0.290939 0.140387
H53   H     H_    0.092897 0.706299 0.243429 0.140505
H54   H     H_    0.150067 0.610168 0.264471 0.156927
H55   H     H_    0.041130 0.648297 0.345557 0.129683
H56   H     H_    0.187256 0.700581 0.698313 0.031835
H57   H     H_    0.893346 0.672233 0.299905 0.167362
H58   H     H_    0.927799 0.942239 0.227106 0.184521
H59   H     H_    0.994929 0.842007 0.199772 0.137506
H60   H     H_    0.791156 0.878672 0.191472 0.148287
H61   H     H_    0.819017 0.781143 0.254226 0.161069
H62   H     H_    0.750998 0.879496 0.281248 0.182857
H63   H     H_    0.087949 0.297026 0.746390 0.148814
H64   H     H_    0.295073 0.279085 0.732008 0.188829
H65   H     H_    0.192078 0.378174 0.730773 0.154790
H66   H     H_    0.228834 0.322028 0.646868 0.097003
H67   H     H_    0.717689 0.360804 0.357797 -0.007343
H68   H     H_    0.024351 0.332778 0.660434 0.158497
H69   H     H_    0.657147 0.411079 0.189212 0.158232
H70   H     H_    0.481447 0.464670 0.165773 0.125263
H71   H     H_    0.669955 0.495246 0.153111 0.144536
H72   H     H_    0.484106 0.523424 0.246264 0.104014
H73   H     H_    0.590348 0.594002 0.219946 0.172593
H74   H     H_    0.943065 0.460021 0.746637 0.194669
H75   H     H_    0.025692 0.510158 0.802462 0.101844
H76   H     H_    0.845540 0.549796 0.779851 0.174825
H77   H     H_    0.048504 0.634946 0.756830 0.155183
H78   H     H_    0.526753 0.389768 0.382135 0.043375
H79   H     H_    0.950101 0.587893 0.704384 0.124910
H80   H     H_    0.437975 0.951039 0.624650 0.204272
H81   H     H_    0.642954 0.918351 0.615555 0.187002
H82   H     H_    0.554395 0.005902 0.588537 0.189694
H83   H     H_    0.391968 0.919245 0.527967 0.230368
H84   H     H_    0.422369 0.841138 0.564404 0.189217
H85   H     H_    0.715273 0.150825 0.703272 0.147399
N1    N     N_R   0.938298 0.509510 0.205118 -0.420789
N2    N     N_R   0.303260 0.520935 0.807813 -0.408578
N3    N     N_2   0.535642 0.016694 0.493531 -0.148887
N4    N     N_2   0.678935 0.997359 0.501864 -0.146738
O1    O     O_2   0.915540 0.542930 0.617950 -0.463308
O2    O     O_2   0.227876 0.785837 0.469814 -0.387763
O3    O     O_3   0.110375 0.790988 0.380790 -0.553410
O4    O     O_3   0.147530 0.542870 0.557780 -0.423171
O5    O     O_3   0.552080 0.402920 0.475380 -0.437934
O6    O     O_2   0.387280 0.697260 0.523450 -0.428868
O7    O     O_3   0.547430 0.729093 0.606492 -0.616899
O8    O     O_2   0.364361 0.562897 0.328936 -0.519255
O9    O     O_3   0.537009 0.684269 0.326658 -0.624534
O10   O     O_2   0.011301 0.375916 0.196731 -0.606634
O11   O     O_2   0.344756 0.385557 0.807362 -0.557620
O12   O     O_3   0.634294 0.278960 0.398882 -0.632806
O13   O     O_2   0.851588 0.641051 0.204709 -0.632397
O14   O     O_2   0.260330 0.657130 0.817029 -0.617836
O15   O     O_3   0.664390 0.396160 0.588360 -0.388152
O16   O     O_2   0.769001 0.473131 0.672539 -0.491060
O17   O     O_3   0.030659 0.670811 0.611386 -0.629668
O18   O     O_3   0.731739 0.322626 0.678470 -0.598170
O19   O     O_2   0.802410 0.302720 0.476520 -0.406771
O20   O     O_3   0.070880 0.354870 0.564040 -0.445679
O21   O     O_2   0.000493 0.216160 0.510737 -0.385475
O22   O     O_3   0.028193 0.200755 0.603383 -0.506536
O23   O     O_2   0.274150 0.457040 0.382020 -0.484010
O24   O     O_3   0.042160 0.457070 0.442220 -0.476969
O25   O     O_3   0.525310 0.603770 0.411640 -0.480909
O26   O     O_3   0.116908 0.327745 0.376172 -0.629106
O27   O     O_3   0.637620 0.597020 0.524620 -0.476793
O28   O     O_3   0.118810 0.645070 0.435950 -0.496896
P1    P     P_3+3 0.086060 0.566890 0.610430 1.005469
P2    P     P_3+3 0.625290 0.314770 0.461990 1.069552
P3    P     P_3+3 0.105650 0.247500 0.555565 1.148576
P4    P     P_3+3 0.103630 0.433040 0.389570 1.014120
P5    P     P_3+3 0.084868 0.752407 0.438945 1.122278
P6    P     P_3+3 0.650730 0.410671 0.653328 1.056232
P7    P     P_3+3 0.565758 0.697577 0.542763 0.991817
P8    P     P_3+3 0.530674 0.588158 0.346932 0.925629

loop_
_geom_bond_atom_site_label_1
_geom_bond_atom_site_label_2
_ccdc_geom_bond_type
C38   H17   S    
C19   C24   A    
C62   H35   S    
C74   H58   S    
C76   H63   S    
C83   H81   S    
C81   H74   S    
C34   H7    S    
C71   C72   S    
C77   H72   S    
C60   H67   S    
C56   Cl12  S    
C16   H8    S    
C73   C74   S    
C18   C41   A    
C79   H69   S    
C74   H60   S    
C6    P4    S    
O28   P5    S    
C64   H40   S    
C75   C76   S    
C1    H4    S    
C10   C11   A    
C59   H34   S    
C68   H42   S    
C41   Cl3   S    
C73   H61   S    
C2    N1    Am   
C17   C19   A    
C22   C24   A    
C12   Cl1   S    
C32   C33   S    
C35   C38   A    
C12   O18   S    
C26   N2    Am   
C59   H45   S    
C36   C37   A    
C67   H11   S    
O27   P7    S    
C55   C57   A    
C4    O22   S    
C42   H19   S    
O21   P3    D    
C44   C50   A    
Ba2   P4    S    
C72   H53   S    
C73   H62   S    
Ba1   Ba2   S    
C79   H71   S    
O12   P2    S    
C65   H37   S    
C48   N3    S    
C14   H21   S    
C22   C27   A    
C60   O12   S    
C11   C38   A    
C17   C35   A    
C49   Cl5   S    
C9    C13   A    
C25   C42   A    
C15   H22   S    
C69   H50   S    
C29   C30   S    
O16   P6    D    
C33   N2    S    
C23   H5    S    
Ba2   O27   S    
C83   H80   S    
C21   C22   A    
C20   Cl2   S    
C3    C77   S    
Ba1   O15   S    
C7    C8    S    
C37   C43   A    
C16   H27   S    
C51   C53   A    
C64   C65   S    
C61   C64   S    
C84   N1    Am   
C6    C14   D    
O20   P3    S    
C40   Cl8   S    
C81   H75   S    
O19   P2    D    
C77   H73   S    
C82   H84   S    
C15   C31   D    
C40   H1    S    
O5    P2    S    
C63   H30   S    
C56   C73   S    
C48   C49   A    
C62   H33   S    
O22   P3    S    
C58   Cl6   S    
C4    C16   S    
C54   N4    S    
C76   H65   S    
C68   H41   S    
C81   H76   S    
Ba1   O19   S    
C49   C50   A    
C26   O14   D    
Ba2   O25   S    
C17   C20   A    
C27   O11   D    
C82   C83   S    
C13   C39   A    
C61   H2    S    
O1    P1    D    
C60   H78   S    
C3    C5    S    
C18   C37   A    
C6    C7    D    
C4    C75   S    
C28   H29   S    
C43   H20   S    
C70   H47   S    
C71   H57   S    
C54   C58   A    
C72   H52   S    
Ba2   O4    S    
C9    C36   A    
C1    C69   S    
C41   C42   A    
C35   C36   A    
C59   H56   S    
O24   P4    S    
O23   P4    D    
C34   Cl10  S    
C40   H12   S    
C12   H3    S    
C69   H51   S    
C78   H14   S    
C82   H83   S    
C80   H77   S    
C60   C61   S    
C8    N1    S    
C24   C25   A    
Ba1   P1    S    
C29   Cl14  S    
C39   H18   S    
C66   H46   S    
C45   C71   S    
C52   Cl9   S    
C1    C12   S    
C57   P5    S    
C52   O17   S    
Ba1   O1    S    
C66   C68   S    
C46   C47   A    
C31   P1    S    
C78   H13   S    
C80   C81   S    
C70   H49   S    
C53   C55   A    
C78   Cl13  S    
C47   C48   A    
C29   C33   D    
O18   P6    S    
C1    H85   S    
C25   C26   A    
C63   H31   S    
C65   H38   S    
C23   H6    S    
C77   C79   S    
C46   P2    S    
C51   C54   A    
C75   H68   S    
C52   H23   S    
O6    P7    D    
C74   H59   S    
C76   H64   S    
C51   C82   S    
Ba1   O5    S    
Ba1   O20   S    
C56   H9    S    
C7    H15   S    
O17   P1    S    
C45   O3    S    
C5    C14   S    
O2    P5    D    
C2    O13   D    
C52   C59   S    
C55   H26   S    
C11   H16   S    
C9    C10   A    
C34   C66   S    
Ba2   O24   S    
O4    P1    S    
Ba2   O5    S    
C5    P8    S    
C75   H66   S    
C28   H28   S    
C47   H24   S    
O15   P6    S    
C68   H43   S    
C45   Cl11  S    
C27   N2    Am   
C10   C84   A    
O25   P8    S    
C62   C63   S    
C53   P7    S    
C2    C13   A    
Ba1   O4    S    
O3    P5    S    
C3    C8    D    
C4    Cl4   S    
C16   H25   S    
C45   C56   S    
C67   H10   S    
C21   Cl15  S    
C44   Cl7   S    
C30   P6    S    
C71   H55   S    
C31   C32   D    
C72   H54   S    
Ba1   P2    S    
Ba2   O6    S    
C79   H70   S    
C50   P3    S    
N3    N4    D    
C65   H36   S    
O9    P8    S    
O26   P4    S    
C23   O7    S    
C23   C34   S    
C28   O26   S    
C61   C62   S    
C44   C46   A    
C67   O9    S    
C57   C58   A    
C64   H39   S    
C18   C19   A    
Ba2   O23   S    
C83   H82   S    
C70   H48   S    
C80   H79   S    
Ba1   O24   S    
Ba2   O28   S    
C15   C30   S    
C39   C43   A    
C20   C21   A    
C28   C40   S    
C67   C78   S    
Ba1   O27   S    
C32   C80   S    
C69   C70   S    
C63   H32   S    
C66   H44   S    
O8    P8    D    
C84   O10   D    
O7    P7    S    
