data_mof_unit_22170.cif
_audit_creation_date              2012-12-10T17:50:51-0500
_audit_creation_method            fapswitch 2.2
_symmetry_space_group_name_H-M    P1
_symmetry_Int_Tables_number       1
_space_group_crystal_system       triclinic
_cell_length_a                    14.83785
_cell_length_b                    14.446652
_cell_length_c                    15.845678
_cell_angle_alpha                 75.6413
_cell_angle_beta                  102.3386
_cell_angle_gamma                 114.827855
_cell_volume                      2963.12394944

loop_
_atom_site_label
_atom_site_type_symbol
_atom_type_description
_atom_site_fract_x
_atom_site_fract_y
_atom_site_fract_z
_atom_type_partial_charge
C1    C     C_R   0.880704 0.310435 0.514695 0.823111
C2    C     C_R   0.119296 0.689565 0.485305 0.823111
C3    C     C_R   0.775724 0.013004 0.575242 0.389500
C4    C     C_R   0.224266 0.986995 0.424767 0.389507
C5    C     C_R   0.845791 0.115570 0.556075 -0.113797
C6    C     C_R   0.154204 0.884428 0.443935 -0.113767
C7    C     C_R   0.710324 0.174839 0.504904 -0.254065
C8    C     C_R   0.289675 0.825164 0.495081 -0.254061
C9    C     C_R   0.639127 0.072639 0.516062 0.026371
C10   C     C_R   0.360868 0.927366 0.483926 0.026393
C11   C     C_R   0.671626 0.991993 0.561297 -0.005960
C12   C     C_R   0.328366 0.008012 0.438702 -0.005968
C13   C     C_R   0.535735 0.050237 0.487108 0.087696
C14   C     C_R   0.464260 0.949770 0.512879 0.087706
C15   C     C_R   0.497698 0.875482 0.569920 -0.293203
C16   C     C_R   0.502294 0.124526 0.430070 -0.293166
C17   C     C_R   0.598946 0.894333 0.592419 -0.036592
C18   C     C_R   0.401043 0.105674 0.407578 -0.036640
C19   C     C_R   0.721510 0.680682 0.362785 -0.293324
C20   C     C_R   0.278488 0.319316 0.637212 -0.293312
C21   C     C_R   0.795042 0.640524 0.375841 0.123231
C22   C     C_R   0.204959 0.359476 0.624159 0.123244
C23   C     C_R   0.999809 0.500241 0.659817 0.834918
C24   C     C_R   0.000191 0.499759 0.340183 0.834918
C25   C     C_R   0.714662 0.508551 0.490395 0.096792
C26   C     C_R   0.285337 0.491448 0.509604 0.096780
C27   C     C_R   0.629069 0.536265 0.468808 -0.094005
C28   C     C_R   0.370930 0.463733 0.531189 -0.093980
C29   C     C_R   0.640771 0.632071 0.412211 0.055544
C30   C     C_R   0.359227 0.367926 0.587785 0.055523
C31   C     C_R   0.535295 0.477048 0.504180 0.032526
C32   C     C_R   0.464703 0.522949 0.495816 0.032525
C33   C     C_R   0.492555 0.628106 0.456707 -0.314782
C34   C     C_R   0.507443 0.371891 0.543288 -0.314774
C35   C     C_R   0.574077 0.679929 0.407672 0.438066
C36   C     C_R   0.425919 0.320067 0.592322 0.438018
C37   C     C_3   0.985161 0.404569 0.045320 -0.103315
C38   C     C_3   0.014839 0.595431 0.954680 -0.103315
C39   C     C_3   0.913031 0.433548 0.968862 0.495817
C40   C     C_3   0.086970 0.566451 0.031138 0.495814
C41   C     C_1   0.999913 0.501132 0.749240 -0.137712
C42   C     C_1   0.000087 0.498867 0.250760 -0.137713
C43   C     C_3   0.075228 0.472246 0.993234 -0.359919
C44   C     C_3   0.924772 0.527754 0.006766 -0.359915
C45   C     C_3   0.001674 0.501501 0.916669 0.012991
C46   C     C_3   0.998326 0.498499 0.083331 0.012989
C47   C     C_1   0.000748 0.501594 0.824819 0.031884
C48   C     C_1   0.999252 0.498405 0.175181 0.031882
C49   C     C_R   0.813060 0.198458 0.525443 -0.161633
C50   C     C_R   0.186938 0.801542 0.474555 -0.161658
Cu1   Cu    Cu3+1 0.081740 0.475690 0.522610 0.963879
Cu2   Cu    Cu3+1 0.918260 0.524310 0.477390 0.963878
H1    H     H_    0.727663 0.749865 0.313924 0.196215
H2    H     H_    0.272336 0.250133 0.686073 0.196219
H3    H     H_    0.452729 0.671669 0.465813 0.137352
H4    H     H_    0.547269 0.328329 0.534181 0.137347
H5    H     H_    0.864362 0.550603 0.013627 0.164207
H6    H     H_    0.135639 0.449397 0.986373 0.164206
H7    H     H_    0.313980 0.761634 0.516280 0.169171
H8    H     H_    0.686022 0.238371 0.483692 0.169168
H9    H     H_    0.445939 0.802204 0.600451 0.143928
H10   H     H_    0.554050 0.197806 0.399541 0.143928
N1    N     N_R   0.795440 0.560790 0.443380 -0.221539
N2    N     N_R   0.204560 0.439210 0.556620 -0.221544
O1    O     O_R   0.977900 0.338120 0.529810 -0.579935
O2    O     O_R   0.022100 0.661880 0.470190 -0.579942
O3    O     O_R   0.839850 0.379180 0.491620 -0.585106
O4    O     O_R   0.160150 0.620820 0.508380 -0.585103
O5    O     O_R   0.069010 0.479460 0.640020 -0.581973
O6    O     O_R   0.930990 0.520540 0.359980 -0.581972
O7    O     O_R   0.930960 0.520530 0.601820 -0.568439
O8    O     O_R   0.069040 0.479470 0.398180 -0.568441
O9    O     O_3   0.824737 0.362442 0.929825 -0.560056
C51   C     C_3   0.747405 0.328098 0.982543 0.076121
H11   H     H_    0.724213 0.392361 0.981348 0.145503
H12   H     H_    0.770729 0.297443 0.051627 0.138033
C52   C     C_3   0.657257 0.241428 0.945990 -0.753544
H13   H     H_    0.677678 0.175516 0.946752 0.253617
H14   H     H_    0.595489 0.213906 0.986678 0.197354
H15   H     H_    0.631017 0.270039 0.877448 0.248979
O10   O     O_3   0.175263 0.637557 0.070175 -0.560057
C53   C     C_3   0.252595 0.671902 0.017458 0.076123
H16   H     H_    0.229271 0.702560 0.948374 0.138034
H17   H     H_    0.275787 0.607640 0.018651 0.145501
C54   C     C_3   0.342744 0.758571 0.054012 -0.753549
H18   H     H_    0.368983 0.729957 0.122553 0.248977
H19   H     H_    0.404512 0.786093 0.013323 0.197356
H20   H     H_    0.322324 0.824483 0.053251 0.253617
C55   C     C_1   0.275865 0.563524 0.430253 0.300527
N3    N     N_1   0.268898 0.621369 0.366388 -0.304999
C56   C     C_1   0.724133 0.436474 0.569746 0.300524
N4    N     N_1   0.731100 0.378630 0.633610 -0.304995
C57   C     C_1   0.127874 0.312107 0.681168 0.337125
N5    N     N_1   0.066394 0.273587 0.727594 -0.274760
C58   C     C_1   0.872132 0.687898 0.318836 0.337114
N6    N     N_1   0.933616 0.726423 0.272415 -0.274762
C59   C     C_1   0.968043 0.300068 0.096031 0.276959
N7    N     N_1   0.954523 0.217687 0.136080 -0.262118
C60   C     C_1   0.031957 0.699932 0.903970 0.276968
N8    N     N_1   0.045478 0.782313 0.863920 -0.262126
C61   C     C_1   0.623816 0.813734 0.654268 0.324518
N9    N     N_1   0.642723 0.748857 0.704082 -0.273543
C62   C     C_1   0.376168 0.186283 0.345750 0.324417
N10   N     N_1   0.357252 0.251167 0.295956 -0.273521
C63   C     C_1   0.050035 0.868791 0.432137 0.348478
N11   N     N_1   0.967333 0.859158 0.422666 -0.319014
C64   C     C_1   0.949961 0.131204 0.567884 0.348344
N12   N     N_1   0.032663 0.140836 0.577363 -0.318954
O11   O     O_3   0.810704 0.934648 0.611104 -0.574408
C65   C     C_3   0.807284 0.884750 0.543538 0.061656
H21   H     H_    0.859287 0.939231 0.495432 0.164642
H22   H     H_    0.730272 0.853758 0.508297 0.173422
C66   C     C_3   0.838945 0.794029 0.583771 -0.687107
H23   H     H_    0.791379 0.740694 0.635062 0.256272
H24   H     H_    0.830436 0.749777 0.532550 0.214187
H25   H     H_    0.918353 0.822901 0.613680 0.248437
O12   O     O_3   0.189272 0.065339 0.388902 -0.574438
C67   C     C_3   0.192748 0.115288 0.456452 0.061742
H26   H     H_    0.269816 0.146446 0.491551 0.173402
H27   H     H_    0.140909 0.060800 0.504683 0.164579
C68   C     C_3   0.160859 0.205855 0.416222 -0.687022
H28   H     H_    0.081349 0.176797 0.386601 0.248291
H29   H     H_    0.169588 0.250275 0.467383 0.214142
H30   H     H_    0.208133 0.259084 0.364699 0.256397
O13   O     O_3   0.598741 0.782477 0.364562 -0.607364
C69   C     C_3   0.513496 0.802182 0.320025 0.068958
H31   H     H_    0.477249 0.817977 0.366400 0.166934
H32   H     H_    0.458421 0.736573 0.287482 0.160294
C70   C     C_3   0.546098 0.898334 0.249417 -0.774639
H33   H     H_    0.582664 0.885688 0.201455 0.249007
H34   H     H_    0.479842 0.915042 0.214269 0.209680
H35   H     H_    0.599640 0.965984 0.279707 0.253040
O14   O     O_3   0.401252 0.217517 0.635429 -0.607363
C71   C     C_3   0.486496 0.197803 0.679957 0.068958
H36   H     H_    0.541581 0.263411 0.712497 0.160301
H37   H     H_    0.522730 0.182001 0.633575 0.166930
C72   C     C_3   0.453895 0.101655 0.750568 -0.774630
H38   H     H_    0.400348 0.034004 0.720280 0.253037
H39   H     H_    0.520151 0.084944 0.785712 0.209677
H40   H     H_    0.417335 0.114306 0.798532 0.249010

loop_
_geom_bond_atom_site_label_1
_geom_bond_atom_site_label_2
_ccdc_geom_bond_type
C33   H3    S    
C34   H4    S    
C57   N5    T    
C27   C29   A    
C24   C42   S    
O9    C51   S    
C23   O5    A    
C58   N6    T    
C36   O14   S    
C71   C72   S    
C37   C59   S    
O10   C53   S    
C24   O6    A    
C20   C30   A    
C52   H13   S    
C26   C55   S    
C40   C46   S    
C72   H39   S    
C61   N9    T    
C51   H12   S    
Cu1   O4    S    
C19   C21   A    
C70   H33   S    
C2    O4    A    
C8    H7    S    
Cu1   O1    S    
C52   H15   S    
C7    C9    A    
C25   N1    A    
C35   O13   S    
C9    C13   A    
C65   H21   S    
C68   H30   S    
C17   C61   S    
C2    C50   S    
C43   H6    S    
C1    O3    A    
C67   H26   S    
C40   C43   S    
C60   N8    T    
C38   C45   S    
C51   C52   S    
C1    O1    A    
C64   N12   T    
C4    C12   A    
C39   C45   S    
C66   H25   S    
C19   H1    S    
C45   C47   S    
C72   H38   S    
C13   C14   A    
C5    C49   A    
C16   H10   S    
C44   C46   S    
C59   N7    T    
C65   H22   S    
C52   H14   S    
C15   H9    S    
C72   H40   S    
C46   C48   S    
C25   C56   S    
C68   H29   S    
C51   H11   S    
C54   H19   S    
C27   C31   A    
Cu1   Cu2   S    
C23   O7    A    
C28   C32   A    
C3    C11   A    
C7    C49   A    
C20   H2    S    
C10   C14   A    
C56   N4    T    
C71   H37   S    
C21   C58   S    
C69   C70   S    
C3    C5    A    
C54   H18   S    
C67   C68   S    
C37   C43   S    
C38   C44   S    
C43   C45   S    
C31   C32   A    
C44   H5    S    
C41   C47   T    
C31   C34   A    
C16   C18   A    
C42   C48   T    
C6    C50   A    
C9    C11   A    
C65   C66   S    
C68   H28   S    
C39   C44   S    
Cu2   O3    S    
C10   C12   A    
C4    C6    A    
C20   C22   A    
C53   H17   S    
O13   C69   S    
C22   C57   S    
C4    O12   S    
Cu1   O8    S    
C19   C29   A    
C8    C50   A    
C7    H8    S    
Cu2   O2    S    
C24   O8    A    
C66   H23   S    
C5    C64   S    
C54   H20   S    
C15   C17   A    
C11   C17   A    
C69   H32   S    
C40   O10   S    
Cu1   N2    S    
C38   C60   S    
C2    O2    A    
Cu2   N1    S    
C71   H36   S    
C26   N2    A    
C25   C27   A    
C53   C54   S    
C63   N11   T    
C29   C35   A    
C26   C28   A    
C23   C41   S    
C30   C36   A    
C32   C33   A    
C70   H35   S    
C28   C30   A    
C55   N3    T    
C37   C39   S    
Cu2   O7    S    
O12   C67   S    
C38   C40   S    
O14   C71   S    
C3    O11   S    
C69   H31   S    
C33   C35   A    
C6    C63   S    
C34   C36   A    
C18   C62   S    
C39   O9    S    
C67   H27   S    
C21   N1    A    
Cu2   O6    S    
C22   N2    A    
C8    C10   A    
C53   H16   S    
C13   C16   A    
C12   C18   A    
C62   N10   T    
C14   C15   A    
Cu1   O5    S    
C66   H24   S    
C37   C46   S    
O11   C65   S    
C1    C49   S    
C70   H34   S    
