data_mof_unit_6005.cif
_audit_creation_date              2012-12-10T20:28:42-0500
_audit_creation_method            fapswitch 2.2
_symmetry_space_group_name_H-M    P1
_symmetry_Int_Tables_number       1
_space_group_crystal_system       triclinic
_cell_length_a                    10.62816
_cell_length_b                    10.668398
_cell_length_c                    9.877811
_cell_angle_alpha                 89.801066
_cell_angle_beta                  89.845406
_cell_angle_gamma                 89.814164
_cell_volume                      1119.98327026

loop_
_atom_site_label
_atom_site_type_symbol
_atom_type_description
_atom_site_fract_x
_atom_site_fract_y
_atom_site_fract_z
_atom_type_partial_charge
C1    C     C_R   0.504513 0.259897 0.500132 0.884453
C2    C     C_R   0.065294 0.611769 0.565239 0.130836
C3    C     C_R   0.128213 0.512164 0.499930 -0.067256
C4    C     C_R   0.064706 0.418224 0.431179 -0.191782
C5    C     C_R   0.936205 0.418383 0.430790 -0.192855
C6    C     C_R   0.871632 0.512427 0.499249 -0.092988
C7    C     C_R   0.534032 0.063218 0.622132 0.143125
C8    C     C_R   0.526819 0.128488 0.500105 -0.105097
C9    C     C_R   0.546015 0.065013 0.377508 -0.228562
C10   C     C_R   0.546351 0.935406 0.377323 -0.214767
C11   C     C_R   0.527533 0.871084 0.499724 -0.103015
C12   C     C_R   0.260510 0.503564 0.500136 0.879110
C13   C     C_R   0.534705 0.935281 0.621962 0.118150
C14   C     C_3   0.453376 0.927423 0.745385 -0.465813
C15   C     C_3   0.452037 0.069430 0.745104 -0.491681
C16   C     C_R   0.390861 0.482843 0.071785 0.171745
C17   C     C_R   0.605775 0.528217 0.071409 -0.129207
C18   C     C_R   0.605818 0.528130 0.927644 -0.138169
C19   C     C_R   0.390383 0.483727 0.929315 0.194699
C20   C     C_3   0.305794 0.372224 0.925591 0.188815
C21   C     C_3   0.307458 0.371273 0.079491 -0.540141
C22   C     C_R   0.504746 0.740003 0.499787 0.845412
C23   C     C_R   0.739452 0.503597 0.499822 0.864565
C24   C     C_R   0.129945 0.712155 0.626965 -0.151343
C25   C     C_R   0.063762 0.809694 0.688576 -0.125355
C26   C     C_R   0.932844 0.809805 0.688308 -0.123447
C27   C     C_R   0.867690 0.712387 0.626472 -0.193233
C28   C     C_R   0.933422 0.611877 0.564965 0.103453
H1    H     H_    0.114972 0.343239 0.380250 0.148497
H2    H     H_    0.504331 0.886444 0.833251 0.207255
H3    H     H_    0.357560 0.109803 0.723439 0.211670
H4    H     H_    0.501812 0.110534 0.833190 0.201481
H5    H     H_    0.691764 0.549226 0.124820 0.165577
H6    H     H_    0.691829 0.549099 0.873579 0.175151
H7    H     H_    0.350652 0.288842 0.878989 0.116324
H8    H     H_    0.215462 0.393951 0.127468 0.239688
H9    H     H_    0.356031 0.287929 0.122946 0.181412
H10   H     H_    0.231431 0.717324 0.626397 0.135613
H11   H     H_    0.114163 0.886087 0.735392 0.137640
H12   H     H_    0.881560 0.886246 0.734879 0.142160
H13   H     H_    0.766154 0.717920 0.625684 0.144853
H14   H     H_    0.886758 0.343470 0.379656 0.154337
H15   H     H_    0.550996 0.114225 0.281526 0.172431
H16   H     H_    0.551432 0.886892 0.281286 0.175110
H17   H     H_    0.359677 0.885865 0.724903 0.198654
N1    N     N_R   0.499160 0.499140 0.142800 -0.107961
N2    N     N_R   0.499160 0.499180 0.857150 -0.136088
O1    O     O_R   0.500020 0.316790 0.614690 -0.613592
O2    O     O_R   0.500000 0.316760 0.385350 -0.623571
O3    O     O_R   0.316770 0.500020 0.614690 -0.576391
O4    O     O_R   0.316760 0.499980 0.385350 -0.620454
O5    O     O_R   0.500000 0.683240 0.614650 -0.629601
O6    O     O_R   0.499980 0.683210 0.385310 -0.616534
O7    O     O_R   0.683240 0.500020 0.614650 -0.621840
O8    O     O_R   0.683230 0.499980 0.385310 -0.626268
Zn1   Zn    Zn3+2 0.500010 0.500020 0.653130 0.959955
Zn2   Zn    Zn3+2 0.499990 0.499980 0.346870 0.945688
Cl1   Cl    Cl    0.154265 0.410221 0.859161 -0.610847

loop_
_geom_bond_atom_site_label_1
_geom_bond_atom_site_label_2
_ccdc_geom_bond_type
C12   O3    A    
C5    H14   S    
C1    O1    A    
C23   O8    A    
C16   C21   S    
O4    Zn2   S    
C22   O6    A    
C1    C8    S    
C11   C13   A    
C9    C10   A    
C27   H13   S    
C11   C22   S    
C24   H10   S    
C4    H1    S    
C26   H12   S    
C18   N2    A    
C7    C15   S    
C17   C18   A    
C24   C25   A    
C21   H9    S    
C7    C8    A    
C21   H8    S    
C13   C14   S    
C17   N1    A    
C15   H3    S    
C4    C5    A    
C18   H6    S    
C25   H11   S    
C26   C27   A    
C17   H5    S    
C14   H2    S    
C16   C19   A    
C6    C23   S    
C2    C3    A    
C14   H17   S    
O7    Zn1   S    
O8    Zn2   S    
N1    Zn2   S    
C2    C24   A    
C5    C6    A    
C19   N2    A    
C9    H15   S    
C10   C11   A    
C10   H16   S    
C3    C4    A    
O3    Zn1   S    
C7    C13   A    
C12   O4    A    
O2    Zn2   S    
C20   C21   S    
O5    Zn1   S    
C23   O7    A    
C22   O5    A    
C16   N1    A    
C27   C28   A    
O1    Zn1   S    
O6    Zn2   S    
C14   C15   S    
N2    Zn1   S    
C2    C28   A    
C3    C12   S    
C25   C26   A    
C15   H4    S    
C20   H7    S    
C20   Cl1   S    
C6    C28   A    
C19   C20   S    
C8    C9    A    
C1    O2    A    
