data_mof_unit_39478.cif
_audit_creation_date              2012-12-11T15:55:39-0500
_audit_creation_method            fapswitch 2.2
_symmetry_space_group_name_H-M    P1
_symmetry_Int_Tables_number       1
_space_group_crystal_system       triclinic
_cell_length_a                    11.070186
_cell_length_b                    11.114812
_cell_length_c                    18.763796
_cell_angle_alpha                 90.746616
_cell_angle_beta                  91.032706
_cell_angle_gamma                 58.973462
_cell_volume                      1978.09761891

loop_
_atom_site_label
_atom_site_type_symbol
_atom_type_description
_atom_site_fract_x
_atom_site_fract_y
_atom_site_fract_z
_atom_type_partial_charge
C1    C     C_R   0.384210 0.713378 0.389609 0.545926
C2    C     C_R   0.634166 0.112783 0.160381 0.036595
C3    C     C_R   0.370824 0.326675 0.159386 -0.005547
C4    C     C_R   0.490733 0.228564 0.271266 -0.040964
C5    C     C_R   0.494970 0.223481 0.196263 -0.038705
C6    C     C_R   0.064308 0.631156 0.352259 -0.075336
C7    C     C_R   0.931587 0.701501 0.382630 -0.094839
C8    C     C_R   0.655962 0.990848 0.122875 -0.076574
C9    C     C_R   0.789353 0.884654 0.101319 -0.143116
C10   C     C_R   0.259113 0.437047 0.196029 -0.169301
C11   C     C_R   0.247156 0.436290 0.269592 -0.060005
C12   C     C_R   0.386250 0.353583 0.386802 0.533246
C13   C     C_R   0.824215 0.689368 0.351669 -0.062041
C14   C     C_R   0.847344 0.617943 0.287397 -0.095394
C15   C     C_R   0.984499 0.533916 0.262249 -0.105429
C16   C     C_R   0.099444 0.530484 0.297934 0.004918
C17   C     C_R   0.368645 0.335670 0.309279 -0.013222
C18   C     C_R   0.868684 0.331297 0.184182 0.007191
C19   C     C_R   0.960831 0.233296 0.234087 0.000494
C20   C     C_R   0.928723 0.245460 0.304724 0.013106
C21   C     C_R   0.697500 0.436927 0.277375 -0.159839
C22   C     C_R   0.730670 0.428048 0.204891 -0.193666
C23   C     C_R   0.772512 0.380549 0.402264 0.542956
C24   C     C_3   0.113277 0.170874 0.249666 -0.279425
C25   C     C_3   0.076486 0.188246 0.328542 -0.289248
C26   C     C_R   0.803681 0.357003 0.328101 0.046021
C27   C     C_R   0.373362 0.809450 0.168681 0.003697
C28   C     C_R   0.459524 0.829240 0.217646 -0.016331
C29   C     C_R   0.456384 0.804036 0.289784 0.013551
C30   C     C_R   0.315941 0.703099 0.264313 -0.174286
C31   C     C_R   0.314913 0.730796 0.191975 -0.152585
C32   C     C_3   0.468147 0.955251 0.236069 -0.286174
C33   C     C_3   0.449821 0.935026 0.313288 -0.258446
C34   C     C_R   0.348800 0.759671 0.607079 0.555848
C35   C     C_R   0.378381 0.748647 0.314666 0.003491
C36   C     C_R   0.299370 0.308722 0.809085 0.021557
C37   C     C_R   0.375677 0.189522 0.766167 0.045153
C38   C     C_R   0.383560 0.198974 0.693845 0.016328
C39   C     C_R   0.221242 0.449061 0.702098 -0.162763
C40   C     C_R   0.213207 0.438367 0.775927 -0.180907
C41   C     C_3   0.525220 0.071681 0.772521 -0.263738
C42   C     C_3   0.533111 0.078778 0.692498 -0.274413
C43   C     C_R   0.317203 0.330381 0.661599 0.017350
C44   C     C_R   0.802508 0.344290 0.837937 0.017949
C45   C     C_R   0.369213 0.350949 0.595382 0.556561
C46   C     C_R   0.776218 0.465526 0.801277 0.031934
C47   C     C_R   0.767412 0.470488 0.728530 0.037894
C48   C     C_R   0.778397 0.249317 0.724695 -0.163976
C49   C     C_R   0.787401 0.243162 0.799687 -0.172520
C50   C     C_3   0.851974 0.546109 0.801353 -0.265522
C51   C     C_3   0.842588 0.548528 0.721162 -0.279655
C52   C     C_R   0.780667 0.358649 0.688484 0.018951
C53   C     C_R   0.316965 0.813440 0.832216 0.018128
C54   C     C_R   0.217979 0.797553 0.792421 0.018955
C55   C     C_R   0.227908 0.784018 0.719323 0.031573
C56   C     C_R   0.756553 0.380367 0.612140 0.545260
C57   C     C_R   0.448353 0.776920 0.724002 -0.154465
C58   C     C_R   0.440689 0.786352 0.798343 -0.152395
C59   C     C_3   0.061202 0.888899 0.788275 -0.271721
C60   C     C_3   0.072473 0.872940 0.708065 -0.278473
C61   C     C_R   0.335653 0.787028 0.683360 0.017483
C62   C     C_R   0.913084 0.315282 0.111745 0.546252
C63   C     C_R   0.332537 0.295130 0.090180 0.546103
C64   C     C_R   0.310719 0.895655 0.104486 0.531649
C65   C     C_R   0.878760 0.312231 0.906000 0.543289
C66   C     C_R   0.294098 0.286867 0.884609 0.548634
C67   C     C_R   0.907548 0.890765 0.120497 -0.091543
C68   C     C_R   0.277591 0.890141 0.899435 0.544086
C69   C     C_R   0.891683 0.002945 0.161319 -0.059182
C70   C     C_R   0.757036 0.113181 0.179396 -0.086177
Cr1   Cr    Cr6+3 0.601740 0.606840 0.505840 0.998153
Cr2   Cr    Cr6+3 0.291500 0.601560 0.495070 0.989174
Cr3   Cr    Cr6+3 0.606780 0.291630 0.499130 1.027665
Cr4   Cr    Cr6+3 0.062440 0.063060 0.008240 1.009504
Cr5   Cr    Cr6+3 0.062950 0.375000 0.998920 0.993994
Cr6   Cr    Cr6+3 0.374550 0.061770 0.992470 0.995599
H1    H     H_    0.759007 0.627826 0.257598 0.135110
H2    H     H_    0.000099 0.474578 0.213894 0.139020
H3    H     H_    0.592525 0.509359 0.294416 0.121656
H4    H     H_    0.651364 0.496216 0.166384 0.129987
H5    H     H_    0.155252 0.236530 0.231360 0.138489
H6    H     H_    0.172183 0.059610 0.232480 0.153179
H7    H     H_    0.117090 0.087270 0.357081 0.153416
H8    H     H_    0.093110 0.267712 0.356283 0.150417
H9    H     H_    0.263285 0.651397 0.281038 0.130465
H10   H     H_    0.801452 0.793832 0.072792 0.107509
H11   H     H_    0.254786 0.704324 0.155745 0.128402
H12   H     H_    0.384085 0.053851 0.211761 0.145218
H13   H     H_    0.577216 0.930640 0.229789 0.152126
H14   H     H_    0.537317 0.920906 0.347851 0.151091
H15   H     H_    0.346681 0.014121 0.334632 0.145309
H16   H     H_    0.163648 0.552380 0.678442 0.141265
H17   H     H_    0.146793 0.531788 0.807068 0.120232
H18   H     H_    0.534577 0.973190 0.790825 0.139525
H19   H     H_    0.593368 0.102562 0.801856 0.139201
H20   H     H_    0.610563 0.107663 0.676528 0.158768
H21   H     H_    0.910807 0.769770 0.428272 0.113635
H22   H     H_    0.542957 0.985555 0.664385 0.130733
H23   H     H_    0.776679 0.166051 0.695304 0.122205
H24   H     H_    0.795716 0.153743 0.826704 0.118215
H25   H     H_    0.962663 0.484192 0.820351 0.179775
H26   H     H_    0.788845 0.651951 0.825962 0.120510
H27   H     H_    0.775778 0.655638 0.699147 0.131633
H28   H     H_    0.946425 0.484242 0.695116 0.147273
H29   H     H_    0.539439 0.766928 0.698332 0.128155
H30   H     H_    0.524857 0.786367 0.828477 0.120194
H31   H     H_    0.026264 0.996944 0.806455 0.166174
H32   H     H_    0.011456 0.805847 0.106295 0.112033
H33   H     H_    0.006800 0.839142 0.812556 0.129501
H34   H     H_    0.025994 0.812361 0.685813 0.132105
H35   H     H_    0.041030 0.972504 0.679891 0.141428
H36   H     H_    0.984546 0.001800 0.180774 0.150198
H37   H     H_    0.747826 0.191983 0.215726 0.133870
H38   H     H_    0.134109 0.663074 0.369624 0.182600
H39   H     H_    0.573738 0.968272 0.113935 0.171656
H40   H     H_    0.169590 0.517069 0.165884 0.131324
O1    O     O_R   0.748670 0.497520 0.427970 -0.528527
O2    O     O_R   0.300170 0.471020 0.567120 -0.509338
O3    O     O_R   0.491630 0.259030 0.574940 -0.522830
O4    O     O_R   0.718640 0.304340 0.577850 -0.508460
O5    O     O_3   0.500010 0.500010 0.500020 -0.274103
O6    O     O_R   0.186620 0.923750 0.087000 -0.535186
O7    O     O_R   0.957350 0.194160 0.084660 -0.496842
O8    O     O_R   0.935120 0.407280 0.085350 -0.530280
O9    O     O_R   0.203800 0.365060 0.067090 -0.509958
O10   O     O_R   0.417470 0.174910 0.067830 -0.534121
O11   O     O_R   0.375160 0.946380 0.070880 -0.520123
O12   O     O_R   0.476470 0.723930 0.429450 -0.501274
O13   O     O_R   0.160500 0.919670 0.926690 -0.520111
O14   O     O_R   0.933140 0.190380 0.936050 -0.502318
O15   O     O_R   0.909010 0.403210 0.925030 -0.529429
O16   O     O_R   0.179590 0.361290 0.918480 -0.514522
O17   O     O_R   0.391360 0.170840 0.907510 -0.518962
O18   O     O_R   0.350950 0.942600 0.922260 -0.509082
O19   O     O_3   0.166650 0.166610 0.999880 -0.245726
O20   O     O_R   0.264730 0.744140 0.416740 -0.542634
O21   O     O_R   0.309440 0.472410 0.418220 -0.536478
O22   O     O_R   0.501630 0.260530 0.414310 -0.498231
O23   O     O_R   0.727920 0.305730 0.428950 -0.491716
O24   O     O_R   0.738670 0.496020 0.588600 -0.519138
O25   O     O_R   0.467190 0.722540 0.578350 -0.504731
O26   O     O_R   0.254720 0.742640 0.577370 -0.515168
C71   C     C_1   0.614302 0.115510 0.307665 0.224419
N1    N     N_1   0.713152 0.026186 0.336103 -0.314893
H41   H     H_    0.723274 0.738412 0.376584 0.137870

loop_
_geom_bond_atom_site_label_1
_geom_bond_atom_site_label_2
_ccdc_geom_bond_type
C44   C49   A    
C45   O2    A    
C7    C13   A    
C57   H29   S    
C21   C26   A    
C34   O25   A    
Cr3   O3    S    
Cr2   O5    S    
Cr6   O10   S    
C41   C42   S    
Cr1   O24   S    
C19   C20   A    
C1    O12   A    
C13   H41   S    
C40   H17   S    
C4    C71   S    
C62   O8    A    
C65   O14   A    
C53   C54   A    
Cr2   O26   S    
C30   C35   A    
C64   O6    A    
C42   H20   S    
C23   O23   A    
C28   C29   A    
C38   C42   S    
C33   H15   S    
C30   C31   A    
C56   O24   A    
C69   H36   S    
Cr5   O19   S    
C67   H32   S    
Cr2   O20   S    
C15   H2    S    
C20   C25   S    
C51   H27   S    
C71   N1    T    
C32   H12   S    
C29   C33   S    
C18   C19   A    
C14   H1    S    
C23   C26   S    
C53   C68   S    
C24   H6    S    
C6    H38   S    
C8    H39   S    
C21   C22   A    
C54   C55   A    
C11   C17   A    
C32   H13   S    
Cr5   O15   S    
C8    C9    A    
C12   C17   S    
C25   H8    S    
C1    O20   A    
Cr1   O25   S    
C45   O3    A    
Cr4   O7    S    
C59   C60   S    
Cr3   O4    S    
C55   C60   S    
C56   O4    A    
C44   C65   S    
C69   C70   A    
C62   O7    A    
C65   O15   A    
Cr6   O19   S    
C44   C46   A    
C66   O16   A    
C54   C59   S    
C70   H37   S    
C31   H11   S    
Cr1   O1    S    
C27   C31   A    
Cr5   O8    S    
C28   C32   S    
C24   C25   S    
C27   C64   S    
C39   C40   A    
Cr6   O18   S    
C18   C62   S    
C39   C43   A    
Cr3   O23   S    
C51   H28   S    
C34   C61   S    
C59   H31   S    
C58   H30   S    
C47   C52   A    
C24   H5    S    
C9    C67   A    
C37   C38   A    
C9    H10   S    
C66   O17   A    
C34   O26   A    
C11   C16   S    
Cr5   O9    S    
C41   H18   S    
C14   C15   A    
C36   C40   A    
Cr6   O17   S    
C64   O11   A    
Cr4   O19   S    
C21   H3    S    
C50   C51   S    
C30   H9    S    
C43   C45   S    
C63   O9    A    
C4    C17   A    
Cr2   O21   S    
Cr4   O6    S    
C50   H26   S    
Cr3   O5    S    
Cr4   O14   S    
C12   O22   A    
Cr1   O12   S    
C2    C5    S    
C39   H16   S    
C10   H40   S    
Cr5   O16   S    
C1    C35   S    
C25   H7    S    
C48   H23   S    
C46   C50   S    
C46   C47   A    
C36   C37   A    
C7    H21   S    
C18   C22   A    
Cr1   O5    S    
C2    C8    A    
C4    C5    A    
C3    C5    A    
C23   O1    A    
C47   C51   S    
C53   C58   A    
C57   C61   A    
C6    C7    A    
C3    C63   S    
C29   C35   A    
C32   C33   S    
C42   H22   S    
C19   C24   S    
C22   H4    S    
C38   C43   A    
C3    C10   A    
C2    C70   A    
C33   H14   S    
C49   H24   S    
C57   C58   A    
C41   H19   S    
C20   C26   A    
C48   C49   A    
C55   C61   A    
C68   O18   A    
C59   H33   S    
C36   C66   S    
C37   C41   S    
C68   O13   A    
C63   O10   A    
C60   H34   S    
C10   C11   A    
C6    C16   A    
C52   C56   S    
C48   C52   A    
C50   H25   S    
Cr3   O22   S    
Cr4   O13   S    
Cr2   O2    S    
C27   C28   A    
C60   H35   S    
Cr6   O11   S    
C12   O21   A    
C67   C69   A    
C13   C14   A    
C15   C16   A    
