data_mof_unit_13092.cif
_audit_creation_date              2012-10-26T19:45:14-0400
_audit_creation_method            fapswitch 2.2
_symmetry_space_group_name_H-M    P1
_symmetry_Int_Tables_number       1
_space_group_crystal_system       triclinic
_cell_length_a                    9.669964
_cell_length_b                    10.785057
_cell_length_c                    13.838114
_cell_angle_alpha                 93.214759
_cell_angle_beta                  82.38151
_cell_angle_gamma                 90.45959
_cell_volume                      1428.20169367

loop_
_atom_site_label
_atom_site_type_symbol
_atom_type_description
_atom_site_fract_x
_atom_site_fract_y
_atom_site_fract_z
_atom_type_partial_charge
C1    C     C_R   0.500280 0.737418 0.501433 0.524287
C2    C     C_R   0.943283 0.440425 0.424555 0.070335
C3    C     C_1   0.543508 0.502586 0.213169 -0.047009
C4    C     C_1   0.456496 0.499057 0.787132 -0.044513
C5    C     C_2   0.557940 0.512418 0.021661 0.025458
C6    C     C_2   0.438522 0.498859 0.979784 0.032680
C7    C     C_1   0.445808 0.498496 0.874664 -0.041255
C8    C     C_1   0.553235 0.506313 0.125949 -0.059382
C9    C     C_R   0.622242 0.934151 0.467422 -0.152387
C10   C     C_R   0.382702 0.066283 0.547296 -0.145395
C11   C     C_R   0.621836 0.062361 0.467611 -0.144476
C12   C     C_R   0.499606 0.262617 0.501646 0.528411
C13   C     C_R   0.382172 0.937759 0.546076 -0.147018
C14   C     C_3   0.813262 0.750510 0.648099 0.022824
C15   C     C_3   0.809105 0.812605 0.750928 -0.287498
C16   C     C_3   0.798281 0.953610 0.749166 -0.486649
C17   C     C_3   0.148092 0.222853 0.371910 0.008270
C18   C     C_3   0.062520 0.176460 0.465995 -0.290267
C19   C     C_3   0.048625 0.035196 0.460041 -0.494173
C20   C     C_3   0.117309 0.641971 0.653594 -0.212029
C21   C     C_3   0.091287 0.576585 0.749629 -0.422947
C22   C     C_3   0.907285 0.414693 0.320862 -0.212929
C23   C     C_R   0.500702 0.128654 0.504982 0.016789
C24   C     C_3   0.827141 0.294380 0.301139 -0.402902
C25   C     C_3   0.299562 0.470250 0.040650 -0.261112
C26   C     C_3   0.171477 0.496306 0.991013 -0.454300
C27   C     C_3   0.700273 0.532312 0.963739 -0.265348
C28   C     C_3   0.777047 0.409072 0.940026 -0.431329
C29   C     C_R   0.501288 0.871513 0.504629 0.014292
C30   C     C_R   0.474867 0.500034 0.683077 0.538392
C31   C     C_R   0.525133 0.499962 0.316999 0.543312
C32   C     C_R   0.911129 0.566495 0.571842 0.371924
C33   C     C_R   0.088659 0.427268 0.433615 0.379057
C34   C     C_R   0.060129 0.568193 0.571030 0.076384
Cu1   Cu    Cu3+1 0.359340 0.499980 0.500000 0.954400
Cu2   Cu    Cu3+1 0.640660 0.500020 0.500000 0.950318
H1    H     H_    0.715965 0.884097 0.436604 0.118789
H2    H     H_    0.790772 0.995541 0.824815 0.145317
H3    H     H_    0.703878 0.979765 0.717124 0.156735
H4    H     H_    0.250764 0.175135 0.362779 0.164420
H5    H     H_    0.100246 0.191363 0.306397 0.120206
H6    H     H_    0.113075 0.207144 0.530515 0.166013
H7    H     H_    0.955370 0.214835 0.477594 0.156201
H8    H     H_    0.985997 0.005341 0.401105 0.138986
H9    H     H_    0.994967 0.003674 0.530317 0.137721
H10   H     H_    0.152597 0.990378 0.444660 0.160969
H11   H     H_    0.128401 0.479014 0.739593 0.166338
H12   H     H_    0.292253 0.116712 0.582579 0.117656
H13   H     H_    0.147932 0.626793 0.804532 0.116408
H14   H     H_    0.978837 0.575905 0.778451 0.173499
H15   H     H_    0.227294 0.664480 0.637456 0.198517
H16   H     H_    0.073961 0.736382 0.663691 0.093938
H17   H     H_    0.874604 0.212968 0.328168 0.115941
H18   H     H_    0.717095 0.297058 0.333040 0.195201
H19   H     H_    0.828496 0.277966 0.221056 0.107214
H20   H     H_    0.860082 0.497503 0.295131 0.155823
H21   H     H_    0.004808 0.407960 0.268413 0.137307
H22   H     H_    0.170392 0.595290 0.973029 0.148489
H23   H     H_    0.715543 0.109182 0.437543 0.118182
H24   H     H_    0.170930 0.435403 0.923644 0.151130
H25   H     H_    0.075274 0.477210 0.041334 0.132431
H26   H     H_    0.298548 0.370908 0.058128 0.146985
H27   H     H_    0.288337 0.527424 0.110614 0.157224
H28   H     H_    0.881741 0.425558 0.899288 0.130319
H29   H     H_    0.717752 0.346100 0.894192 0.162665
H30   H     H_    0.790622 0.363760 0.008309 0.145335
H31   H     H_    0.692493 0.578425 0.894915 0.156793
H32   H     H_    0.763475 0.595144 0.007041 0.132334
H33   H     H_    0.289501 0.890420 0.578188 0.107285
H34   H     H_    0.711713 0.772931 0.626382 0.182297
H35   H     H_    0.894790 0.793217 0.595490 0.090296
H36   H     H_    0.716910 0.777628 0.798438 0.160191
H37   H     H_    0.903161 0.789633 0.784119 0.157950
H38   H     H_    0.892328 0.991426 0.705612 0.143333
N1    N     N_R   0.147930 0.499970 0.499980 -0.245893
N2    N     N_R   0.852070 0.500030 0.500020 -0.244859
O1    O     O_R   0.381260 0.680340 0.500000 -0.526168
O2    O     O_3   0.176942 0.352524 0.368268 -0.545199
O3    O     O_R   0.618740 0.319660 0.500000 -0.513527
O4    O     O_R   0.618830 0.680370 0.500010 -0.513989
O5    O     O_R   0.381170 0.319630 0.499990 -0.476818
O6    O     O_R   0.364420 0.499960 0.637840 -0.527580
O7    O     O_R   0.635580 0.500040 0.362160 -0.520907
O8    O     O_R   0.601990 0.499990 0.637850 -0.427520
O9    O     O_R   0.398010 0.500010 0.362150 -0.432424
O10   O     O_3   0.825218 0.619724 0.651920 -0.545769

loop_
_geom_bond_atom_site_label_1
_geom_bond_atom_site_label_2
_ccdc_geom_bond_type
C31   O9    A    
C1    O1    A    
C14   H35   S    
Cu1   Cu2   S    
C22   H21   S    
C21   H13   S    
Cu1   O5    S    
C19   H10   S    
C24   H19   S    
C15   H36   S    
C12   C23   S    
Cu1   N1    S    
C16   H38   S    
C13   C29   A    
C26   H25   S    
C20   H15   S    
C18   H6    S    
C5    C6    D    
C33   O2    S    
C6    C25   S    
Cu2   O7    S    
C24   H18   S    
C15   C16   S    
C12   O3    A    
C31   O7    A    
C18   C19   S    
C25   H27   S    
C27   H32   S    
Cu2   N2    S    
C5    C27   S    
C33   N1    A    
C2    C22   S    
C9    C29   A    
C34   N1    A    
C20   C34   S    
C14   H34   S    
C4    C7    T    
C11   H23   S    
C9    H1    S    
C21   H14   S    
Cu1   O6    S    
C14   O10   S    
C3    C8    T    
Cu2   O4    S    
C22   H20   S    
C25   C26   S    
Cu2   O3    S    
C17   H4    S    
C32   C34   A    
C30   O6    A    
C28   H30   S    
C26   H22   S    
C32   O10   S    
C1    C29   S    
C17   C18   S    
C3    C31   S    
C9    C11   A    
C28   H28   S    
C2    C33   A    
C15   H37   S    
C10   H12   S    
C22   C24   S    
C2    N2    A    
C19   H8    S    
C10   C13   A    
C32   N2    A    
C5    C8    S    
C19   H9    S    
C6    C7    S    
C10   C23   A    
C28   H29   S    
C24   H17   S    
C20   H16   S    
C18   H7    S    
Cu1   O9    S    
C13   H33   S    
Cu2   O8    S    
C11   C23   A    
C17   O2    S    
Cu1   O1    S    
C12   O5    A    
C25   H26   S    
C30   O8    A    
C17   H5    S    
C27   H31   S    
C16   H3    S    
C20   C21   S    
C27   C28   S    
C1    O4    A    
C14   C15   S    
C26   H24   S    
C4    C30   S    
C16   H2    S    
C21   H11   S    
