data_mof_unit_53883.cif
_audit_creation_date              2012-12-10T18:04:43-0500
_audit_creation_method            fapswitch 2.2
_symmetry_space_group_name_H-M    P1
_symmetry_Int_Tables_number       1
_space_group_crystal_system       triclinic
_cell_length_a                    19.551934
_cell_length_b                    17.582248
_cell_length_c                    12.569985
_cell_angle_alpha                 89.987871
_cell_angle_beta                  99.363049
_cell_angle_gamma                 89.95043
_cell_volume                      4263.57419247

loop_
_atom_site_label
_atom_site_type_symbol
_atom_type_description
_atom_site_fract_x
_atom_site_fract_y
_atom_site_fract_z
_atom_type_partial_charge
C1    C     C_R   0.408542 0.099896 0.441784 0.852607
C2    C     C_R   0.693462 0.688695 0.580508 0.175402
C3    C     C_R   0.281627 0.711011 0.644614 0.173934
C4    C     C_R   0.193462 0.188697 0.580498 0.175372
C5    C     C_R   0.348893 0.739221 0.667800 -0.252363
C6    C     C_R   0.222045 0.116527 0.574973 -0.240401
C7    C     C_R   0.848703 0.239649 0.668327 -0.252450
C8    C     C_R   0.722049 0.616525 0.574994 -0.240392
C9    C     C_R   0.377227 0.777379 0.588754 -0.198136
C10   C     C_R   0.273416 0.104792 0.512472 -0.193835
C11   C     C_R   0.877189 0.277589 0.589243 -0.198105
C12   C     C_R   0.411532 0.896737 0.443881 0.843800
C13   C     C_R   0.773416 0.604786 0.512487 -0.193868
C14   C     C_R   0.676450 0.190284 0.518088 -0.256949
C15   C     C_R   0.686164 0.820671 0.526383 -0.243867
C16   C     C_R   0.176311 0.690468 0.518212 -0.256875
C17   C     C_R   0.186171 0.320679 0.526396 -0.243873
C18   C     C_R   0.685404 0.144190 0.701105 -0.197145
C19   C     C_R   0.612096 0.772755 0.647586 -0.195735
C20   C     C_R   0.185684 0.643733 0.700926 -0.197081
C21   C     C_R   0.112091 0.272752 0.647574 -0.195684
C22   C     C_R   0.361704 0.836768 0.408607 -0.120081
C23   C     C_R   0.908539 0.599893 0.441782 0.853129
C24   C     C_R   0.356941 0.157964 0.405349 -0.145948
C25   C     C_R   0.861922 0.336512 0.408749 -0.120275
C26   C     C_R   0.856932 0.657953 0.405340 -0.145641
C27   C     C_R   0.642777 0.013857 0.134482 -0.307686
C28   C     C_R   0.142780 0.513876 0.134483 -0.307536
C29   C     C_R   0.378829 0.000655 0.761657 -0.057911
C30   C     C_R   0.878827 0.500638 0.761659 -0.057926
C31   C     C_R   0.352912 0.017554 0.855097 -0.297569
C32   C     C_R   0.852904 0.517522 0.855103 -0.297694
C33   C     C_R   0.589290 0.897749 0.556651 0.844975
C34   C     C_R   0.911578 0.396684 0.443916 0.844087
C35   C     C_R   0.590733 0.100634 0.557620 0.858668
C36   C     C_R   0.089290 0.397750 0.556652 0.844839
C37   C     C_R   0.090742 0.600616 0.557628 0.858494
C38   C     C_R   0.398563 0.031645 0.950631 0.452475
C39   C     C_R   0.898553 0.531618 0.950639 0.452495
C40   C     C_R   0.470955 0.017347 0.953456 -0.140646
C41   C     C_R   0.970951 0.517336 0.953458 -0.140612
C42   C     C_R   0.494618 0.007202 0.853900 0.191622
C43   C     C_R   0.994616 0.507199 0.853901 0.191606
C44   C     C_R   0.521100 0.012771 0.048145 0.017273
C45   C     C_R   0.744257 0.216819 0.538315 0.077167
C46   C     C_R   0.021098 0.512767 0.048146 0.017084
C47   C     C_R   0.593012 0.014600 0.041218 0.197642
C48   C     C_R   0.093013 0.514607 0.041218 0.197610
C49   C     C_R   0.614417 0.013243 0.941380 -0.281237
C50   C     C_R   0.114418 0.513247 0.941381 -0.281046
C51   C     C_R   0.565716 0.006039 0.849271 -0.174161
C52   C     C_R   0.065715 0.506038 0.849272 -0.174049
C53   C     C_R   0.503124 0.999390 0.149189 0.031559
C54   C     C_R   0.003121 0.499383 0.149189 0.031515
C55   C     C_R   0.620797 0.007944 0.233269 0.002814
C56   C     C_R   0.713871 0.748656 0.516711 0.083392
C57   C     C_R   0.120799 0.507961 0.233270 0.002895
C58   C     C_R   0.751173 0.176294 0.726137 -0.195350
C59   C     C_R   0.643682 0.701678 0.647321 -0.173176
C60   C     C_R   0.251502 0.675728 0.725795 -0.195357
C61   C     C_R   0.143676 0.201675 0.647302 -0.173143
C62   C     C_R   0.649164 0.149521 0.595732 -0.047316
C63   C     C_R   0.632371 0.831411 0.584168 -0.048310
C64   C     C_R   0.149206 0.649444 0.595767 -0.047094
C65   C     C_R   0.132372 0.331413 0.584170 -0.048272
C66   C     C_R   0.330241 0.834599 0.300065 -0.176551
C67   C     C_R   0.244156 0.716915 0.538216 0.077269
C68   C     C_R   0.372186 0.213121 0.332094 -0.127024
C69   C     C_R   0.830732 0.333904 0.300066 -0.176034
C70   C     C_R   0.872167 0.713104 0.332070 -0.126961
C71   C     C_R   0.273455 0.787983 0.268143 -0.135255
C72   C     C_R   0.330537 0.276990 0.311267 -0.115692
C73   C     C_R   0.774135 0.287003 0.268080 -0.135440
C74   C     C_R   0.830512 0.776967 0.311233 -0.115981
C75   C     C_R   0.244835 0.747356 0.345000 -0.194801
C76   C     C_R   0.276819 0.289208 0.369373 -0.197810
C77   C     C_R   0.745398 0.246554 0.344975 -0.194700
C78   C     C_R   0.213878 0.248664 0.516717 0.083354
C79   C     C_R   0.776797 0.789187 0.369343 -0.197868
C80   C     C_R   0.275024 0.750264 0.455490 0.083203
C81   C     C_R   0.262185 0.235315 0.446644 0.089299
C82   C     C_R   0.775300 0.249922 0.455598 0.083245
C83   C     C_R   0.762173 0.735301 0.446631 0.089275
C84   C     C_R   0.338702 0.788167 0.484515 0.085904
C85   C     C_R   0.297499 0.165235 0.454422 0.094195
C86   C     C_R   0.838858 0.288046 0.484770 0.085780
C87   C     C_R   0.797492 0.665224 0.454419 0.093899
C88   C     C_R   0.781488 0.211308 0.644935 0.174047
H1    H     H_    0.697712 0.017003 0.130874 0.147329
H2    H     H_    0.917758 0.708253 0.293886 0.199350
H3    H     H_    0.658026 0.008851 0.307042 0.135712
H4    H     H_    0.158030 0.508879 0.307045 0.135766
H5    H     H_    0.664619 0.112267 0.762147 0.152687
H6    H     H_    0.569698 0.780621 0.692285 0.152299
H7    H     H_    0.165051 0.611573 0.761879 0.152366
H8    H     H_    0.069689 0.280614 0.692265 0.152271
H9    H     H_    0.669028 0.013186 0.934769 0.150864
H10   H     H_    0.169030 0.513192 0.934771 0.150782
H11   H     H_    0.450937 0.987171 0.160040 0.187357
H12   H     H_    0.197717 0.517034 0.130876 0.147356
H13   H     H_    0.950932 0.487149 0.160040 0.187804
H14   H     H_    0.318710 0.059429 0.191062 0.382820
H15   H     H_    0.817814 0.559612 0.190294 0.383115
H16   H     H_    0.585135 0.999238 0.775351 0.207123
H17   H     H_    0.085130 0.499232 0.775350 0.207059
H18   H     H_    0.379199 0.732985 0.747556 0.150456
H19   H     H_    0.205551 0.069424 0.620328 0.146164
H20   H     H_    0.878845 0.233696 0.748267 0.150438
H21   H     H_    0.705560 0.569426 0.620362 0.146151
H22   H     H_    0.779321 0.171192 0.807546 0.138654
H23   H     H_    0.343621 0.994085 0.686542 0.160202
H24   H     H_    0.627221 0.656176 0.695524 0.145482
H25   H     H_    0.279840 0.670313 0.807022 0.138709
H26   H     H_    0.127210 0.156169 0.695494 0.145509
H27   H     H_    0.644187 0.198090 0.440636 0.152833
H28   H     H_    0.703452 0.869364 0.485753 0.141328
H29   H     H_    0.143878 0.698502 0.440973 0.152526
H30   H     H_    0.203462 0.369375 0.485777 0.141325
H31   H     H_    0.700980 0.211740 0.315265 0.139679
H32   H     H_    0.746831 0.840387 0.350574 0.134393
H33   H     H_    0.200255 0.712798 0.315331 0.139809
H34   H     H_    0.843619 0.494063 0.686544 0.160225
H35   H     H_    0.246859 0.340413 0.350611 0.134358
H36   H     H_    0.249736 0.785735 0.184152 0.154505
H37   H     H_    0.341838 0.318924 0.253486 0.155572
H38   H     H_    0.750649 0.284386 0.183976 0.154184
H39   H     H_    0.841806 0.818895 0.253440 0.155627
H40   H     H_    0.429948 0.797547 0.609816 0.166723
H41   H     H_    0.293664 0.047725 0.509085 0.157336
H42   H     H_    0.929875 0.297839 0.610472 0.166965
H43   H     H_    0.793666 0.547720 0.509108 0.157379
H44   H     H_    0.297588 0.025478 0.850705 0.193936
H45   H     H_    0.797575 0.525434 0.850712 0.193902
H46   H     H_    0.348220 0.870662 0.240409 0.184932
H47   H     H_    0.417777 0.208267 0.293910 0.199355
H48   H     H_    0.848784 0.369814 0.240309 0.184660
N1    N     N_R   0.552340 0.000000 0.237260 -0.115382
N2    N     N_R   0.052340 0.500000 0.237260 -0.115455
N3    N     N_R   0.448170 1.000000 0.762060 -0.124781
N4    N     N_R   0.948170 0.500000 0.762060 -0.124809
O1    O     O_R   0.448200 0.076800 0.373930 -0.581485
O2    O     O_R   0.585240 0.076800 0.457600 -0.616041
O3    O     O_R   0.085240 0.423200 0.457600 -0.610811
O4    O     O_R   0.085240 0.576800 0.457600 -0.616014
O5    O     O_R   0.551780 0.923190 0.626070 -0.643380
O6    O     O_R   0.551780 0.076810 0.626070 -0.623661
O7    O     O_R   0.051780 0.423190 0.626070 -0.643495
O8    O     O_R   0.051780 0.576810 0.626070 -0.623601
O9    O     O_2   0.419238 0.133777 0.113002 -0.334055
O10   O     O_2   0.307245 0.136538 0.994187 -0.281861
O11   O     O_3   0.329577 0.026534 0.132020 -0.603074
O12   O     O_R   0.448200 0.923200 0.373930 -0.608702
O13   O     O_2   0.919202 0.633830 0.112930 -0.333456
O14   O     O_2   0.807168 0.636461 0.994192 -0.282643
O15   O     O_3   0.829629 0.526520 0.132147 -0.603293
O16   O     O_R   0.948200 0.576800 0.373930 -0.580969
O17   O     O_R   0.948200 0.423200 0.373930 -0.608559
O18   O     O_R   0.414750 0.076790 0.542400 -0.601098
O19   O     O_R   0.414750 0.923210 0.542400 -0.623894
O20   O     O_R   0.914750 0.576790 0.542400 -0.601228
O21   O     O_R   0.914750 0.423210 0.542400 -0.624075
O22   O     O_R   0.585240 0.923200 0.457600 -0.610756
S1    S     S_3+6 0.363842 0.085405 0.049244 -0.010386
S2    S     S_3+6 0.863823 0.585387 0.049256 -0.010535
Zn1   Zn    Zn3+2 0.522330 1.000000 0.387520 0.965683
Zn2   Zn    Zn3+2 0.022330 0.500000 0.387520 0.965970
Zn3   Zn    Zn3+2 0.477660 1.000000 0.612480 0.933766
Zn4   Zn    Zn3+2 0.977660 0.500000 0.612480 0.933679

loop_
_geom_bond_atom_site_label_1
_geom_bond_atom_site_label_2
_ccdc_geom_bond_type
N4    Zn4   S    
C83   C87   A    
O6    Zn3   S    
C10   C85   A    
C8    C13   A    
C57   H4    S    
C12   O12   A    
C54   H13   S    
C45   C82   A    
C80   C84   A    
C34   O21   A    
N1    Zn1   S    
O12   Zn1   S    
C39   C41   A    
C28   C57   A    
C53   H11   S    
C7    C11   A    
O10   S1    D    
C53   N1    A    
O14   S2    D    
C1    O18   A    
C37   O4    A    
C36   O3    A    
C76   C81   A    
C32   H45   S    
C27   C55   A    
C43   C52   A    
C23   C26   S    
C11   C86   A    
C14   H27   S    
C14   C62   A    
C12   C22   S    
C25   C34   S    
C4    C78   A    
C32   C39   A    
C7    C88   A    
C22   C66   A    
C55   H3    S    
C66   H46   S    
C44   C53   A    
C18   C58   A    
C30   H34   S    
C19   C63   A    
C26   C87   A    
C49   C51   A    
C70   C74   A    
C50   C52   A    
C41   C46   A    
C69   C73   A    
O9    S1    D    
C20   C60   A    
C24   C85   A    
C21   C61   A    
C44   C47   A    
C33   C63   S    
C42   C51   A    
C3    C60   A    
C28   H12   S    
C40   C42   A    
C12   O19   A    
C58   H22   S    
C23   O16   A    
C23   O20   A    
C41   C43   A    
C13   C87   A    
C60   H25   S    
C70   H2    S    
O18   Zn3   S    
C14   C45   A    
C5    H18   S    
C29   N3    A    
C46   C48   A    
C50   H10   S    
C9    H40   S    
C30   N4    A    
O13   S2    D    
C30   C32   A    
C71   H36   S    
C45   C88   A    
C47   C49   A    
C15   H28   S    
C2    C59   A    
C18   C62   A    
C9    C84   A    
C19   C59   A    
C51   H16   S    
C82   C86   A    
C4    C61   A    
O4    Zn2   S    
C68   C72   A    
C35   O6    A    
C22   C84   A    
C20   C64   A    
O3    Zn2   S    
C66   C71   A    
C5    C9    A    
C31   H44   S    
O22   Zn1   S    
C36   O7    A    
C74   H39   S    
O16   Zn2   S    
C6    H19   S    
C79   H32   S    
C46   C54   A    
C59   H24   S    
C13   H43   S    
C43   N4    A    
C16   C67   A    
N3    Zn3   S    
C19   H6    S    
C33   O5    A    
C17   H30   S    
H15   O15   S    
C38   S1    S    
C20   H7    S    
C52   H17   S    
C69   H48   S    
O11   S1    S    
C74   C79   A    
O8    Zn4   S    
C25   C86   A    
C4    C6    A    
C25   C69   A    
C11   H42   S    
C3    C5    A    
C37   C64   S    
C56   C83   A    
O5    Zn3   S    
C27   C47   A    
C28   C48   A    
C73   C77   A    
C21   C65   A    
C42   N3    A    
C75   H33   S    
C76   H35   S    
C17   C65   A    
C29   H23   S    
C68   H47   S    
C2    C8    A    
C67   C80   A    
C71   C75   A    
C77   H31   S    
C58   C88   A    
O17   Zn2   S    
C6    C10   A    
C21   H8    S    
O15   S2    S    
H14   O11   S    
O1    Zn1   S    
C55   N1    A    
C31   C38   A    
C72   H37   S    
N2    Zn2   S    
C15   C56   A    
C36   C65   S    
C33   O22   A    
C10   H41   S    
C29   C31   A    
C2    C56   A    
C16   H29   S    
O2    Zn1   S    
C38   C40   A    
C78   C81   A    
C54   N2    A    
C3    C67   A    
C77   C82   A    
C72   C76   A    
C26   C70   A    
C48   C50   A    
C17   C78   A    
O19   Zn3   S    
C57   N2    A    
C27   H1    S    
C35   C62   S    
O20   Zn4   S    
C37   O8    A    
O21   Zn4   S    
C1    O1    A    
O7    Zn4   S    
C24   C68   A    
C35   O2    A    
C49   H9    S    
C79   C83   A    
C34   O17   A    
C40   C44   A    
C75   C80   A    
C1    C24   S    
C61   H26   S    
C18   H5    S    
C15   C63   A    
C7    H20   S    
C16   C64   A    
C39   S2    S    
C8    H21   S    
C81   C85   A    
C73   H38   S    
