data_mof_unit_60717.cif
_audit_creation_date              2012-12-11T17:27:12-0500
_audit_creation_method            fapswitch 2.2
_symmetry_space_group_name_H-M    P1
_symmetry_Int_Tables_number       1
_space_group_crystal_system       triclinic
_cell_length_a                    6.955758
_cell_length_b                    21.241679
_cell_length_c                    22.912553
_cell_angle_alpha                 92.971178
_cell_angle_beta                  89.123637
_cell_angle_gamma                 89.488991
_cell_volume                      3380.26885886

loop_
_atom_site_label
_atom_site_type_symbol
_atom_type_description
_atom_site_fract_x
_atom_site_fract_y
_atom_site_fract_z
_atom_type_partial_charge
O1    O     O_R   0.494570 0.443040 0.441850 -0.527509
O2    O     O_R   0.823720 0.437670 0.557760 -0.532990
O3    O     O_R   0.994070 0.556960 0.558150 -0.526213
C1    C     C_R   0.654414 0.422760 0.577134 0.709027
O4    O     O_R   0.824280 0.435690 0.442260 -0.534521
O5    O     O_R   0.994640 0.554970 0.441830 -0.523117
C2    C     C_R   0.657175 0.420359 0.422944 0.742523
O6    O     O_R   0.494000 0.445030 0.558170 -0.536159
O7    O     O_3   0.660820 0.539140 0.499990 -0.365530
V1    V     V_3+5 0.935650 0.492740 0.500000 1.483131
O8    O     O_R   0.324360 0.562330 0.442240 -0.533612
C3    C     C_R   0.155869 0.577012 0.422530 0.730130
O9    O     O_R   0.323800 0.564310 0.557740 -0.528241
C4    C     C_R   0.153216 0.582224 0.579996 0.691121
V2    V     V_3+5 0.435660 0.507260 0.500000 1.472218
O10   O     O_3   0.160620 0.460860 0.500010 -0.361286
C5    C     C_1   0.139838 0.633385 0.631291 -0.197718
C6    C     C_1   0.128951 0.675075 0.673605 0.015987
C7    C     C_1   0.115963 0.724845 0.724347 0.002228
C8    C     C_1   0.105114 0.766412 0.766768 0.001452
C9    C     C_1   0.092105 0.816181 0.817510 0.013972
C10   C     C_1   0.081162 0.857870 0.859824 -0.203914
H1    H     H_    0.381720 0.813049 0.224624 0.118316
C11   C     C_R   0.269014 0.741173 0.278085 -0.197299
H2    H     H_    0.399117 0.739003 0.303332 0.131205
C12   C     C_R   0.113483 0.701953 0.290516 0.109544
C13   C     C_R   0.944072 0.706061 0.256729 0.004304
C14   C     C_R   0.936793 0.749138 0.211750 -0.239795
H3    H     H_    0.808085 0.752597 0.185935 0.112555
C15   C     C_R   0.093149 0.787926 0.199693 0.144911
C16   C     C_R   0.259235 0.783558 0.233170 -0.156086
C17   C     C_1   0.132655 0.658275 0.337534 0.047932
C18   C     C_1   0.082448 0.832284 0.153186 -0.044218
C19   C     C_1   0.073590 0.869430 0.114518 -0.190209
C20   C     C_1   0.145793 0.621564 0.376455 -0.125282
H4    H     H_    0.323224 0.270638 0.688142 0.198223
C21   C     C_R   0.437230 0.215092 0.755803 -0.130077
H5    H     H_    0.301808 0.191718 0.763102 0.142956
C22   C     C_R   0.598783 0.200410 0.788658 0.038803
C23   C     C_R   0.772497 0.231435 0.778368 -0.232555
H6    H     H_    0.898676 0.220711 0.803309 0.144436
C24   C     C_R   0.784681 0.276622 0.735824 0.630823
C25   C     C_R   0.622910 0.291240 0.702874 -0.012058
C26   C     C_R   0.449345 0.260119 0.713155 -0.201556
C27   C     C_1   0.586468 0.153763 0.832827 -0.011097
C28   C     C_1   0.634337 0.337842 0.658599 0.059027
C29   C     C_1   0.643680 0.376642 0.621547 -0.157046
C30   C     C_1   0.576729 0.114900 0.869814 -0.185952
C31   C     C_R   0.430287 0.236277 0.218880 -0.234178
H7    H     H_    0.292392 0.228615 0.198406 0.141595
C32   C     C_R   0.593137 0.202020 0.199402 0.053658
C33   C     C_R   0.771376 0.211423 0.225544 -0.151736
H8    H     H_    0.897204 0.184588 0.210227 0.134903
C34   C     C_R   0.787073 0.255655 0.271855 -0.216224
H9    H     H_    0.924930 0.263075 0.292368 0.201167
C35   C     C_R   0.624425 0.289999 0.291368 -0.000245
C36   C     C_R   0.445958 0.280661 0.265121 0.628348
C37   C     C_1   0.577784 0.156560 0.152789 -0.021766
C38   C     C_1   0.640926 0.335256 0.338149 0.058802
C39   C     C_1   0.650884 0.373932 0.377239 -0.145531
C40   C     C_1   0.568597 0.117686 0.113841 -0.191897
O11   O     O_R   0.726340 0.046440 0.933120 -0.533395
O12   O     O_R   0.395690 0.055650 0.048950 -0.536740
O13   O     O_R   0.225700 0.936320 0.049330 -0.532670
C41   C     C_R   0.562695 0.071081 0.068278 0.741649
O14   O     O_R   0.396600 0.053690 0.933450 -0.535080
O15   O     O_R   0.226620 0.934340 0.933010 -0.523320
C42   C     C_R   0.565919 0.068693 0.914147 0.725348
O16   O     O_R   0.725420 0.048420 0.049440 -0.533264
O17   O     O_3   0.559650 0.952270 0.991250 -0.364781
V3    V     V_3+5 0.284670 0.998570 0.991180 1.428825
O18   O     O_R   0.896930 0.926880 0.933340 -0.525222
C43   C     C_R   0.067598 0.909026 0.911121 0.698956
O19   O     O_R   0.896010 0.928840 0.048840 -0.535597
C44   C     C_R   0.064435 0.914215 0.068598 0.728906
V4    V     V_3+5 0.784710 0.983880 0.991060 1.428025
O20   O     O_3   0.059600 0.030370 0.991120 -0.360839
C45   C     C_2   0.771128 0.666945 0.266067 0.350007
H10   H     H_    0.649528 0.670681 0.237253 0.054892
O21   O     O_2   0.760235 0.630615 0.305507 -0.525686
F1    F     F_    0.954143 0.306081 0.726889 -0.699472
F2    F     F_    0.288490 0.314431 0.284197 -0.698221

loop_
_geom_bond_atom_site_label_1
_geom_bond_atom_site_label_2
_ccdc_geom_bond_type
O14   C42   A    
O12   C41   A    
C12   C17   S    
C7    C8    T    
O18   V4    S    
C13   C45   S    
C12   C13   A    
O19   V4    S    
C14   H3    S    
C11   C12   A    
O5    C3    A    
C15   C16   A    
C45   O21   D    
V2    O10   S    
C31   C36   A    
C35   C36   A    
O16   V4    S    
C6    C7    S    
O13   V3    S    
C34   H9    S    
O8    V2    S    
C31   C32   A    
O17   V3    S    
O15   C43   A    
O7    V1    S    
C1    O6    A    
C19   C44   S    
C22   C27   S    
C37   C40   T    
C23   C24   A    
C38   C39   T    
O9    C4    A    
C4    C5    S    
O11   V4    S    
C24   F1    S    
C33   C34   A    
C5    C6    T    
C34   C35   A    
O19   C44   A    
C32   C33   A    
C17   C20   T    
C11   H2    S    
C22   C23   A    
O4    C2    A    
C45   H10   S    
C30   C42   S    
H1    C16   S    
O2    C1    A    
C25   C26   A    
C21   H5    S    
O14   V3    S    
C18   C19   T    
C32   C37   S    
V4    O20   S    
C3    C20   S    
O3    C4    A    
O1    V2    S    
C23   H6    S    
O12   V3    S    
O6    V2    S    
O9    V2    S    
O17   V4    S    
H4    C26   S    
C24   C25   A    
O2    V1    S    
C2    C39   S    
V3    O20   S    
C33   H8    S    
C27   C30   T    
C28   C29   T    
C15   C18   S    
O1    C2    A    
O18   C43   A    
O5    V1    S    
O8    C3    A    
C35   C38   S    
O11   C42   A    
C21   C26   A    
C14   C15   A    
O7    V2    S    
C11   C16   A    
O4    V1    S    
C21   C22   A    
O3    V1    S    
V1    O10   S    
C41   O16   A    
O13   C44   A    
O15   V3    S    
C25   C28   S    
C40   C41   S    
C8    C9    S    
C31   H7    S    
C13   C14   A    
C36   F2    S    
C10   C43   S    
C9    C10   T    
C1    C29   S    
