data_mof_unit_34981.cif
_audit_creation_date              2012-10-26T18:27:10-0400
_audit_creation_method            fapswitch 2.2
_symmetry_space_group_name_H-M    P1
_symmetry_Int_Tables_number       1
_space_group_crystal_system       triclinic
_cell_length_a                    15.079772
_cell_length_b                    10.943273
_cell_length_c                    9.692174
_cell_angle_alpha                 89.337703
_cell_angle_beta                  89.644806
_cell_angle_gamma                 90.33225
_cell_volume                      1599.25738851

loop_
_atom_site_label
_atom_site_type_symbol
_atom_type_description
_atom_site_fract_x
_atom_site_fract_y
_atom_site_fract_z
_atom_type_partial_charge
C1    C     C_R   0.498788 0.265327 0.500699 0.558908
C2    C     C_R   0.185803 0.503805 0.374899 -0.131567
C3    C     C_R   0.231660 0.501838 0.500527 -0.010434
C4    C     C_R   0.328597 0.500354 0.500309 0.550191
C5    C     C_R   0.184703 0.501866 0.625956 -0.135421
C6    C     C_2   0.492268 0.935366 0.382542 0.206044
C7    C     C_2   0.506026 0.867317 0.497262 -0.051931
C8    C     C_2   0.500922 0.069571 0.386653 -0.166559
C9    C     C_2   0.492792 0.133336 0.503200 -0.146013
C10   C     C_2   0.437793 0.448795 0.923712 0.021955
C11   C     C_2   0.446865 0.432310 0.078270 0.075474
C12   C     C_R   0.906470 0.504539 0.626121 0.011832
C13   C     C_R   0.500640 0.734854 0.498963 0.573701
C14   C     C_R   0.671383 0.501079 0.499660 0.538629
C15   C     C_R   0.814125 0.503675 0.625015 -0.136405
C16   C     C_R   0.768281 0.503461 0.499385 -0.010628
C17   C     C_R   0.815224 0.505694 0.373939 -0.141793
C18   C     C_R   0.907635 0.506589 0.373267 0.014008
C19   C     C_R   0.953484 0.505517 0.499815 0.061537
C20   C     C_3   0.612016 0.629199 0.117413 0.080541
C21   C     C_3   0.646310 0.725169 0.013830 -0.289039
C22   C     C_3   0.745562 0.747913 0.031585 -0.495880
C23   C     C_R   0.954928 0.507881 0.248283 -0.132025
C24   C     C_R   0.047381 0.507202 0.248537 -0.129994
C25   C     C_R   0.093452 0.505390 0.373772 0.012068
C26   C     C_R   0.046442 0.504924 0.500069 0.061203
C27   C     C_R   0.092284 0.503397 0.626617 0.013083
C28   C     C_R   0.044972 0.503188 0.751595 -0.130285
C29   C     C_R   0.952522 0.503815 0.751353 -0.132328
Cu1   Cu    Cu3+1 0.500020 0.500020 0.638630 0.935489
Cu2   Cu    Cu3+1 0.499980 0.499980 0.361370 1.001860
H1    H     H_    0.778104 0.502641 0.722218 0.123133
H2    H     H_    0.082831 0.507795 0.150911 0.104201
H3    H     H_    0.221831 0.504035 0.277723 0.131546
H4    H     H_    0.219912 0.500546 0.723168 0.124665
H5    H     H_    0.079441 0.502238 0.849394 0.103637
H6    H     H_    0.917054 0.503338 0.848978 0.099113
H7    H     H_    0.651506 0.544049 0.105012 0.102571
H8    H     H_    0.622309 0.666978 0.221434 0.197025
H9    H     H_    0.634236 0.694589 0.906704 0.168853
H10   H     H_    0.610177 0.812264 0.029321 0.190352
H11   H     H_    0.759535 0.780503 0.137435 0.153373
H12   H     H_    0.524828 0.908278 0.594039 0.048481
H13   H     H_    0.768378 0.818661 0.956169 0.158851
H14   H     H_    0.783185 0.662585 0.013014 0.136473
H15   H     H_    0.462663 0.943338 0.187386 0.315765
H16   H     H_    0.511858 0.117218 0.288969 0.135388
H17   H     H_    0.478166 0.090232 0.601962 0.098128
H18   H     H_    0.378565 0.413200 0.875248 0.113483
H19   H     H_    0.560302 0.509055 0.890705 0.234438
H20   H     H_    0.407365 0.361385 0.128476 0.073940
H21   H     H_    0.780049 0.506217 0.276738 0.110899
H22   H     H_    0.920433 0.508994 0.150494 0.099000
N1    N     N_2   0.499020 0.498660 0.846910 -0.324730
N2    N     N_2   0.499000 0.498630 0.153040 -0.062944
O1    O     O_R   0.500020 0.321960 0.617040 -0.498961
O2    O     O_3   0.471598 0.879500 0.259283 -0.653733
O3    O     O_R   0.499980 0.321920 0.382900 -0.515402
O4    O     O_R   0.370270 0.499990 0.617090 -0.507024
O5    O     O_R   0.370240 0.499950 0.382940 -0.500706
O6    O     O_R   0.500020 0.678080 0.617100 -0.505539
O7    O     O_R   0.499980 0.678040 0.382960 -0.415465
O8    O     O_R   0.629760 0.500050 0.617060 -0.516676
O9    O     O_R   0.629730 0.500010 0.382910 -0.541993
O10   O     O_3   0.520905 0.607729 0.094721 -0.456365

loop_
_geom_bond_atom_site_label_1
_geom_bond_atom_site_label_2
_ccdc_geom_bond_type
Cu2   O5    S    
C23   C24   A    
C6    C7    D    
C7    H12   S    
C12   C29   A    
C20   H7    S    
C5    C27   A    
C24   H2    S    
C6    O2    S    
C12   C15   A    
C17   H21   S    
C11   N2    D    
C14   O9    A    
Cu1   O4    S    
C2    H3    S    
C17   C18   A    
C8    H16   S    
C13   O6    A    
C15   H1    S    
C22   H11   S    
C21   C22   S    
C24   C25   A    
Cu1   N1    S    
Cu2   O7    S    
C4    O5    A    
C26   C27   A    
H19   N1    S    
C21   H9    S    
C18   C23   A    
C21   H10   S    
C14   O8    A    
C5    H4    S    
Cu2   O3    S    
Cu1   O8    S    
C28   C29   A    
N2    O10   S    
C1    O1    A    
C12   C19   A    
C23   H22   S    
C2    C25   A    
C2    C3    A    
H15   O2    S    
Cu1   Cu2   S    
C10   N1    D    
C14   C16   S    
C11   H20   S    
C10   C11   S    
C3    C4    S    
C4    O4    A    
C20   O10   S    
C7    C13   S    
C22   H14   S    
C1    C9    S    
C20   C21   S    
C28   H5    S    
C9    H17   S    
C18   C19   A    
Cu1   O6    S    
C29   H6    S    
C27   C28   A    
C19   C26   A    
C20   H8    S    
C8    C9    D    
C6    C8    S    
Cu2   N2    S    
C25   C26   A    
C1    O3    A    
C10   H18   S    
Cu1   O1    S    
Cu2   O9    S    
C22   H13   S    
C13   O7    A    
C15   C16   A    
C16   C17   A    
C3    C5    A    
