data_mof_unit_60854.cif
_audit_creation_date              2012-12-10T19:51:47-0500
_audit_creation_method            fapswitch 2.2
_symmetry_space_group_name_H-M    P1
_symmetry_Int_Tables_number       1
_space_group_crystal_system       monoclinic
_cell_length_a                    26.04727
_cell_length_b                    26.067712
_cell_length_c                    22.194134
_cell_angle_alpha                 90.0
_cell_angle_beta                  125.902974
_cell_angle_gamma                 90.0
_cell_volume                      12206.5899396

loop_
_atom_site_label
_atom_site_type_symbol
_atom_type_description
_atom_site_fract_x
_atom_site_fract_y
_atom_site_fract_z
_atom_type_partial_charge
C1    C     C_R   0.650304 0.749990 0.300607 0.504494
C2    C     C_3   0.500350 0.797104 0.024791 -0.100308
C3    C     C_R   0.264004 0.525878 0.460056 -0.015800
C4    C     C_R   0.747477 0.945530 0.499008 0.000744
C5    C     C_R   0.747477 0.054470 0.499008 0.000744
C6    C     C_R   0.247483 0.445530 0.499015 0.000742
C7    C     C_R   0.247483 0.554470 0.499015 0.000742
C8    C     C_R   0.728512 0.973037 0.537990 0.092625
C9    C     C_R   0.728512 0.026963 0.537990 0.092625
C10   C     C_R   0.228543 0.473037 0.538022 0.092621
C11   C     C_R   0.228543 0.526963 0.538022 0.092621
C12   C     C_3   0.789270 0.029552 0.414926 -0.257130
C13   C     C_3   0.999338 0.703167 0.024792 -0.100339
C14   C     C_3   0.789270 0.970448 0.414926 -0.257131
C15   C     C_3   0.289222 0.529552 0.414876 -0.257124
C16   C     C_3   0.289222 0.470448 0.414876 -0.257124
C17   C     C_R   0.610031 0.750025 0.500063 0.507632
C18   C     C_R   0.610031 0.249975 0.500063 0.507632
C19   C     C_R   0.110031 0.250025 0.500063 0.507629
C20   C     C_R   0.110031 0.749975 0.500063 0.507629
C21   C     C_R   0.749611 0.889975 0.499816 0.516994
C22   C     C_R   0.749611 0.110025 0.499816 0.516994
C23   C     C_R   0.249612 0.389975 0.499817 0.516993
C24   C     C_3   0.999448 0.296864 0.024792 -0.100336
C25   C     C_R   0.249612 0.610025 0.499817 0.516993
C26   C     C_R   0.750042 0.609995 0.500075 0.508302
C27   C     C_R   0.750042 0.390005 0.500075 0.508302
C28   C     C_R   0.250042 0.109995 0.500075 0.508302
C29   C     C_R   0.250042 0.890005 0.500075 0.508302
C30   C     C_R   0.695666 0.525890 0.456477 0.020407
C31   C     C_R   0.695666 0.474110 0.456477 0.020407
C32   C     C_R   0.195666 0.025890 0.456474 0.020407
C33   C     C_R   0.195666 0.974110 0.456474 0.020407
C34   C     C_R   0.750814 0.554441 0.500540 0.030023
C35   C     C_3   0.940505 0.737874 0.975283 -0.099409
C36   C     C_R   0.750814 0.445559 0.500540 0.030023
C37   C     C_R   0.250814 0.054441 0.500541 0.030022
C38   C     C_R   0.250814 0.945559 0.500541 0.030022
C39   C     C_R   0.808195 0.526984 0.546266 -0.158785
C40   C     C_R   0.808195 0.473016 0.546266 -0.158785
C41   C     C_R   0.308194 0.026984 0.546271 -0.158782
C42   C     C_R   0.308194 0.973016 0.546271 -0.158782
C43   C     C_3   0.940534 0.262238 0.975283 -0.099412
C44   C     C_3   0.440784 0.236838 0.975283 -0.099432
C45   C     C_3   0.440778 0.763138 0.975282 -0.099432
C46   C     C_1   0.889410 0.749998 0.778910 0.000488
C47   C     C_1   0.889410 0.250002 0.778910 0.000488
C48   C     C_1   0.389410 0.249998 0.778910 0.000489
C49   C     C_R   0.650304 0.250010 0.300607 0.504494
C50   C     C_1   0.389411 0.750002 0.778910 0.000489
C51   C     C_1   0.610559 0.249999 0.221100 -0.004027
C52   C     C_1   0.610559 0.750001 0.221100 -0.004027
C53   C     C_1   0.110559 0.749999 0.221100 -0.004028
C54   C     C_1   0.110559 0.250001 0.221100 -0.004028
C55   C     C_3   0.021641 0.715297 0.975192 -0.099673
C56   C     C_3   0.021723 0.284622 0.975192 -0.099673
C57   C     C_3   0.522398 0.216056 0.975191 -0.099672
C58   C     C_3   0.522381 0.783961 0.975192 -0.099671
C59   C     C_3   0.963462 0.750004 0.926989 0.049260
C60   C     C_R   0.150304 0.249990 0.300607 0.504493
C61   C     C_3   0.963462 0.249996 0.926989 0.049259
C62   C     C_3   0.463462 0.250004 0.926989 0.049257
C63   C     C_3   0.463462 0.749996 0.926989 0.049257
C64   C     C_3   0.559186 0.263163 0.024733 -0.100413
C65   C     C_3   0.559193 0.736860 0.024733 -0.100412
C66   C     C_3   0.059465 0.762128 0.024732 -0.100389
C67   C     C_3   0.059437 0.237761 0.024732 -0.100391
C68   C     C_3   0.536508 0.249997 0.073025 0.048661
C69   C     C_3   0.536508 0.750003 0.073025 0.048660
C70   C     C_3   0.036508 0.749997 0.073025 0.048657
C71   C     C_R   0.150304 0.750010 0.300607 0.504493
C72   C     C_3   0.036508 0.250003 0.073025 0.048657
C73   C     C_3   0.000633 0.796835 0.975223 -0.098954
C74   C     C_3   0.000522 0.203134 0.975223 -0.098952
C75   C     C_3   0.499596 0.297111 0.975224 -0.098941
C76   C     C_3   0.499621 0.702895 0.975224 -0.098940
C77   C     C_R   0.849663 0.749985 0.699399 0.503588
C78   C     C_R   0.849663 0.250015 0.699399 0.503588
C79   C     C_R   0.349663 0.249985 0.699399 0.503588
C80   C     C_R   0.349663 0.750015 0.699399 0.503588
C81   C     C_3   0.477573 0.283945 0.024824 -0.098730
C82   C     C_3   0.625610 0.470445 0.401237 -0.265930
C83   C     C_3   0.477589 0.716038 0.024824 -0.098730
C84   C     C_3   0.978330 0.784704 0.024823 -0.098721
C85   C     C_3   0.978248 0.215376 0.024824 -0.098722
C86   C     C_1   0.922847 0.750004 0.845780 -0.056858
C87   C     C_1   0.922847 0.249996 0.845780 -0.056858
C88   C     C_1   0.422847 0.250003 0.845780 -0.056859
C89   C     C_1   0.422847 0.749996 0.845780 -0.056859
C90   C     C_1   0.577123 0.249995 0.154232 -0.060318
C91   C     C_1   0.577123 0.750005 0.154232 -0.060318
C92   C     C_1   0.077123 0.749995 0.154232 -0.060319
C93   C     C_3   0.625610 0.529555 0.401237 -0.265930
C94   C     C_1   0.077123 0.250005 0.154232 -0.060319
C95   C     C_R   0.504203 0.717369 0.456615 0.020342
C96   C     C_R   0.504203 0.282630 0.456615 0.020342
C97   C     C_R   0.004204 0.217369 0.456616 0.020341
C98   C     C_R   0.004204 0.782631 0.456616 0.020341
C99   C     C_R   0.554685 0.750597 0.500496 0.029807
C100  C     C_R   0.554685 0.249403 0.500496 0.029807
C101  C     C_R   0.054685 0.250597 0.500495 0.029806
C102  C     C_R   0.054685 0.749403 0.500495 0.029806
C103  C     C_R   0.549967 0.785252 0.545999 -0.156700
C104  C     C_3   0.125611 0.970445 0.401228 -0.265931
C105  C     C_R   0.549967 0.214747 0.545999 -0.156701
C106  C     C_R   0.049966 0.285254 0.545997 -0.156701
C107  C     C_R   0.049966 0.714746 0.545997 -0.156701
C108  C     C_R   0.495973 0.785256 0.545997 -0.158386
C109  C     C_R   0.495973 0.214744 0.545998 -0.158386
C110  C     C_R   0.995972 0.285258 0.545995 -0.158385
C111  C     C_R   0.995972 0.714743 0.545995 -0.158385
C112  C     C_R   0.445773 0.750604 0.500492 0.029860
C113  C     C_R   0.445773 0.249395 0.500492 0.029860
C114  C     C_R   0.945773 0.250605 0.500492 0.029859
C115  C     C_3   0.125611 0.029555 0.401228 -0.265931
C116  C     C_R   0.945773 0.749395 0.500492 0.029858
C117  C     C_R   0.452399 0.717371 0.456617 0.020232
C118  C     C_R   0.452399 0.282628 0.456617 0.020232
C119  C     C_R   0.952399 0.217371 0.456618 0.020230
C120  C     C_R   0.952399 0.782629 0.456618 0.020230
C121  C     C_3   0.421288 0.674740 0.401721 -0.265830
C122  C     C_3   0.421287 0.325260 0.401720 -0.265830
C123  C     C_3   0.921290 0.174737 0.401725 -0.265829
C124  C     C_3   0.921289 0.825262 0.401724 -0.265829
C125  C     C_R   0.889994 0.749951 0.500059 0.508215
C126  C     C_3   0.500374 0.202890 0.024791 -0.100309
C127  C     C_R   0.889994 0.250049 0.500059 0.508215
C128  C     C_R   0.389994 0.249951 0.500059 0.508217
C129  C     C_R   0.389994 0.750049 0.500059 0.508217
C130  C     C_3   0.480439 0.674738 0.401714 -0.265790
C131  C     C_3   0.480439 0.325261 0.401713 -0.265790
C132  C     C_3   0.980441 0.174735 0.401718 -0.265789
C133  C     C_3   0.980441 0.825264 0.401717 -0.265789
C134  C     C_R   0.764017 0.974122 0.460067 -0.015797
C135  C     C_R   0.764017 0.025878 0.460067 -0.015797
C136  C     C_R   0.264005 0.474122 0.460056 -0.015800
F1    F     F_    0.709950 0.948325 0.576110 -0.153014
F2    F     F_    0.709950 0.051675 0.576110 -0.153014
F3    F     F_    0.210004 0.448325 0.576167 -0.153014
F4    F     F_    0.210004 0.551675 0.576167 -0.153014
H1    H     H_    0.852936 0.546916 0.581931 0.145073
H2    H     H_    0.493762 0.187735 0.581491 0.146075
H3    H     H_    0.993760 0.312267 0.581487 0.146077
H4    H     H_    0.993760 0.687733 0.581488 0.146077
H5    H     H_    0.416511 0.639514 0.426301 0.137518
H6    H     H_    0.416511 0.360486 0.426300 0.137518
H7    H     H_    0.916515 0.139513 0.426308 0.137515
H8    H     H_    0.916514 0.860487 0.426306 0.137515
H9    H     H_    0.377425 0.687404 0.348118 0.145167
H10   H     H_    0.377425 0.312595 0.348117 0.145168
H11   H     H_    0.877427 0.187400 0.348121 0.145177
H12   H     H_    0.852936 0.453084 0.581931 0.145073
H13   H     H_    0.877426 0.812599 0.348120 0.145177
H14   H     H_    0.509773 0.639510 0.426284 0.137813
H15   H     H_    0.509773 0.360490 0.426283 0.137813
H16   H     H_    0.009777 0.139508 0.426291 0.137811
H17   H     H_    0.009776 0.860491 0.426289 0.137811
H18   H     H_    0.470726 0.687403 0.348106 0.145176
H19   H     H_    0.470725 0.312596 0.348106 0.145176
H20   H     H_    0.970727 0.187398 0.348109 0.145185
H21   H     H_    0.970727 0.812600 0.348108 0.145186
H22   H     H_    0.754395 0.046657 0.359216 0.147124
H23   H     H_    0.352935 0.046916 0.581939 0.145077
H24   H     H_    0.754395 0.953343 0.359217 0.147124
H25   H     H_    0.254328 0.546657 0.359172 0.147128
H26   H     H_    0.254329 0.453342 0.359172 0.147127
H27   H     H_    0.837581 0.046535 0.446817 0.137388
H28   H     H_    0.837582 0.953465 0.446817 0.137388
H29   H     H_    0.337532 0.546535 0.446742 0.137395
H30   H     H_    0.337532 0.453465 0.446742 0.137395
H31   H     H_    0.611753 0.453385 0.347732 0.145079
H32   H     H_    0.611753 0.546615 0.347732 0.145079
H33   H     H_    0.111760 0.953385 0.347725 0.145069
H34   H     H_    0.352935 0.953084 0.581939 0.145077
H35   H     H_    0.111759 0.046615 0.347725 0.145070
H36   H     H_    0.602399 0.453400 0.425526 0.137918
H37   H     H_    0.602399 0.546600 0.425527 0.137918
H38   H     H_    0.102395 0.953400 0.425511 0.137919
H39   H     H_    0.102395 0.046600 0.425511 0.137919
H40   H     H_    0.891108 0.727910 0.953922 0.107750
H41   H     H_    0.891160 0.272293 0.953921 0.107744
H42   H     H_    0.391616 0.226023 0.953921 0.107700
H43   H     H_    0.391603 0.773933 0.953919 0.107701
H44   H     H_    0.501219 0.164180 0.046204 0.106889
H45   H     H_    0.587654 0.812258 0.581492 0.151016
H46   H     H_    0.501175 0.835809 0.046203 0.106888
H47   H     H_    0.999331 0.664683 0.046206 0.106877
H48   H     H_    0.999533 0.335373 0.046205 0.106879
H49   H     H_    0.459682 0.311836 0.046266 0.107926
H50   H     H_    0.459712 0.688132 0.046265 0.107925
H51   H     H_    0.961062 0.813219 0.046264 0.107938
H52   H     H_    0.960912 0.186927 0.046265 0.107936
H53   H     H_    0.000641 0.835319 0.953812 0.108955
H54   H     H_    0.000440 0.164625 0.953812 0.108963
H55   H     H_    0.498753 0.335822 0.953814 0.109025
H56   H     H_    0.587654 0.187742 0.581492 0.151016
H57   H     H_    0.498797 0.664189 0.953814 0.109022
H58   H     H_    0.608356 0.273977 0.046097 0.106809
H59   H     H_    0.608368 0.726066 0.046099 0.106809
H60   H     H_    0.108864 0.772091 0.046096 0.106816
H61   H     H_    0.108811 0.227706 0.046096 0.106815
H62   H     H_    0.038911 0.686781 0.953754 0.108495
H63   H     H_    0.039061 0.313072 0.953754 0.108496
H64   H     H_    0.540291 0.188165 0.953753 0.108500
H65   H     H_    0.540261 0.811867 0.953754 0.108499
H66   H     H_    0.087652 0.312260 0.581488 0.151018
H67   H     H_    0.087652 0.687740 0.581489 0.151018
H68   H     H_    0.493762 0.812265 0.581491 0.146074
O1    O     O_3   0.749980 0.749980 0.500000 -0.440409
O2    O     O_R   0.612630 0.280380 0.456900 -0.545361
O3    O     O_R   0.112630 0.219620 0.456900 -0.545361
O4    O     O_R   0.112630 0.780380 0.456900 -0.545361
O5    O     O_R   0.698160 0.780350 0.335610 -0.540377
O6    O     O_R   0.698160 0.219650 0.335610 -0.540376
O7    O     O_R   0.198160 0.280350 0.335610 -0.540378
O8    O     O_R   0.198160 0.719650 0.335610 -0.540378
O9    O     O_R   0.801810 0.780340 0.664390 -0.534854
O10   O     O_R   0.801810 0.219660 0.664390 -0.534854
O11   O     O_R   0.301810 0.280340 0.664390 -0.534851
O12   O     O_3   0.749980 0.250020 0.500000 -0.440409
O13   O     O_R   0.301810 0.719660 0.664390 -0.534852
O14   O     O_R   0.637440 0.719620 0.335610 -0.540689
O15   O     O_R   0.637440 0.280380 0.335610 -0.540690
O16   O     O_R   0.137440 0.219620 0.335610 -0.540690
O17   O     O_R   0.137440 0.780380 0.335610 -0.540690
O18   O     O_R   0.862520 0.719620 0.664390 -0.539686
O19   O     O_R   0.862520 0.280380 0.664390 -0.539686
O20   O     O_R   0.362520 0.219620 0.664390 -0.539686
O21   O     O_R   0.362520 0.780380 0.664390 -0.539686
O22   O     O_R   0.844240 0.780350 0.456900 -0.544575
O23   O     O_3   0.249980 0.249980 0.500000 -0.440409
O24   O     O_R   0.844240 0.219650 0.456900 -0.544575
O25   O     O_R   0.344240 0.280350 0.456900 -0.544574
O26   O     O_R   0.344240 0.719650 0.456900 -0.544575
O27   O     O_R   0.655730 0.780340 0.543100 -0.545445
O28   O     O_R   0.655730 0.219660 0.543100 -0.545445
O29   O     O_R   0.155730 0.280340 0.543100 -0.545446
O30   O     O_R   0.155730 0.719660 0.543100 -0.545446
O31   O     O_R   0.758800 0.865790 0.456890 -0.548676
O32   O     O_R   0.758800 0.134210 0.456890 -0.548676
O33   O     O_R   0.258800 0.365790 0.456890 -0.548675
O34   O     O_3   0.249980 0.750020 0.500000 -0.440409
O35   O     O_R   0.258800 0.634210 0.456890 -0.548675
O36   O     O_R   0.698070 0.634180 0.456910 -0.544365
O37   O     O_R   0.698070 0.365820 0.456910 -0.544365
O38   O     O_R   0.198070 0.134180 0.456910 -0.544366
O39   O     O_R   0.198070 0.865820 0.456910 -0.544366
O40   O     O_R   0.741170 0.865780 0.543090 -0.517680
O41   O     O_R   0.741170 0.134220 0.543090 -0.517680
O42   O     O_R   0.241170 0.365780 0.543090 -0.517682
O43   O     O_R   0.241170 0.634220 0.543090 -0.517682
O44   O     O_R   0.801880 0.634180 0.543110 -0.549689
O45   O     O_R   0.887330 0.719620 0.543100 -0.549647
O46   O     O_R   0.801880 0.365820 0.543110 -0.549689
O47   O     O_R   0.301880 0.134180 0.543110 -0.549686
O48   O     O_R   0.301880 0.865820 0.543110 -0.549686
O49   O     O_R   0.887330 0.280380 0.543100 -0.549647
O50   O     O_R   0.387330 0.219620 0.543100 -0.549647
O51   O     O_R   0.387330 0.780380 0.543100 -0.549647
O52   O     O_R   0.612630 0.719620 0.456900 -0.545361
Zn1   Zn    Zn3+2 0.824140 0.706600 0.561580 0.932545
Zn2   Zn    Zn3+2 0.737390 0.206640 0.561570 0.954040
Zn3   Zn    Zn3+2 0.237390 0.293360 0.561570 0.954039
Zn4   Zn    Zn3+2 0.237390 0.706640 0.561570 0.954039
Zn5   Zn    Zn3+2 0.675820 0.706600 0.438430 0.928532
Zn6   Zn    Zn3+2 0.675820 0.293400 0.438430 0.928532
Zn7   Zn    Zn3+2 0.175820 0.206600 0.438430 0.928531
Zn8   Zn    Zn3+2 0.175820 0.793400 0.438430 0.928531
Zn9   Zn    Zn3+2 0.824140 0.293400 0.561580 0.932545
Zn10  Zn    Zn3+2 0.324140 0.206600 0.561580 0.932547
Zn11  Zn    Zn3+2 0.324140 0.793400 0.561580 0.932547
Zn12  Zn    Zn3+2 0.762580 0.793360 0.438420 0.928527
Zn13  Zn    Zn3+2 0.762580 0.206640 0.438420 0.928527
Zn14  Zn    Zn3+2 0.262580 0.293360 0.438420 0.928526
Zn15  Zn    Zn3+2 0.262580 0.706640 0.438420 0.928526
Zn16  Zn    Zn3+2 0.737390 0.793360 0.561570 0.954040

loop_
_geom_bond_atom_site_label_1
_geom_bond_atom_site_label_2
_ccdc_geom_bond_type
O9    Zn16  S    
C99   C103  A    
C74   H54   S    
C55   C59   S    
O16   Zn7   S    
C124  C133  S    
C68   C81   S    
C18   O2    A    
C60   O7    A    
C73   H53   S    
C18   O28   A    
C63   C76   S    
C71   O8    A    
C80   O13   A    
C65   H59   S    
O19   Zn9   S    
C39   H1    S    
C49   C51   S    
C12   C135  S    
C68   C90   S    
C109  H2    S    
C112  C129  S    
C70   C84   S    
C59   C73   S    
O17   Zn8   S    
C107  H67   S    
C72   C94   S    
C77   O18   A    
O2    Zn6   S    
O27   Zn16  S    
C71   O17   A    
C76   C83   S    
C70   C92   S    
C43   C85   S    
C44   C81   S    
C56   H63   S    
C58   H65   S    
C98   C102  A    
C62   C88   S    
O33   Zn14  S    
C11   F4    S    
C9    F2    S    
C79   O11   A    
C55   H62   S    
C67   C74   S    
C17   O52   A    
C31   C82   S    
C81   H49   S    
C62   C75   S    
C14   H28   S    
C53   C71   S    
C101  C106  A    
C43   C61   S    
O45   Zn1   S    
C82   H31   S    
O12   Zn13  S    
C106  H66   S    
C46   C77   S    
C35   C84   S    
C98   C120  A    
C119  C123  S    
C61   C74   S    
C24   C56   S    
C35   H40   S    
C33   C38   A    
C24   H48   S    
O34   Zn11  S    
O20   Zn10  S    
C25   O43   A    
C77   O9    A    
C112  C117  A    
C20   O30   A    
O25   Zn14  S    
C57   H64   S    
C121  H9    S    
C95   C99   A    
C20   O4    A    
C110  H3    S    
O4    Zn8   S    
C13   C70   S    
C24   C43   S    
O34   Zn4   S    
C31   C36   A    
C52   C91   T    
C66   H60   S    
C93   H32   S    
C13   H47   S    
O7    Zn14  S    
C123  C132  S    
C33   C104  S    
O21   Zn11  S    
C83   H50   S    
C103  H45   S    
C121  C130  S    
C108  H68   S    
O13   Zn4   S    
C72   C85   S    
C66   C70   S    
C95   C117  A    
C64   C68   S    
O34   Zn15  S    
C13   C35   S    
C23   O42   A    
C76   H57   S    
C27   O37   A    
C51   C90   T    
O32   Zn13  S    
C40   H12   S    
C3    C136  A    
C118  C122  S    
C115  H35   S    
C61   C87   S    
C29   C38   S    
C95   C130  S    
O34   Zn8   S    
C23   O33   A    
C2    C69   S    
C110  C114  A    
C114  C119  A    
C122  H6    S    
C124  H13   S    
C45   C83   S    
O3    Zn7   S    
C2    C45   S    
O48   Zn11  S    
C30   C34   A    
C34   C39   A    
C42   H34   S    
C39   C40   A    
C93   H37   S    
C43   H41   S    
O26   Zn15  S    
C116  C120  A    
C47   C87   T    
C97   C119  A    
C5    C9    A    
C67   H61   S    
C58   C65   S    
C63   C89   S    
C127  O49   A    
C102  C107  A    
C130  H14   S    
C28   O38   A    
C32   C37   A    
C131  H19   S    
O18   Zn1   S    
C26   O44   A    
C96   C131  S    
O44   Zn1   S    
C21   O31   A    
C116  C125  S    
O49   Zn9   S    
C16   C136  S    
O35   Zn15  S    
C79   O20   A    
O51   Zn11  S    
C24   C72   S    
C4    C134  A    
C82   H36   S    
C128  O25   A    
C5    C135  A    
O23   Zn3   S    
C107  C111  A    
C123  H7    S    
C129  O51   A    
C50   C80   S    
O1    Zn1   S    
C134  C135  A    
O46   Zn9   S    
C129  O26   A    
O36   Zn5   S    
C28   C37   S    
C96   C100  A    
C127  O24   A    
C132  H16   S    
C64   C75   S    
C133  H17   S    
C74   C85   S    
C14   H24   S    
C27   O46   A    
C10   C11   A    
C12   H22   S    
C15   H25   S    
C47   C78   S    
C69   C91   S    
O47   Zn10  S    
C105  H56   S    
O28   Zn2   S    
O23   Zn7   S    
O29   Zn3   S    
C41   C42   A    
C122  C131  S    
O30   Zn4   S    
C28   O47   A    
C12   H27   S    
C113  C128  S    
O1    Zn5   S    
C124  H8    S    
C98   C133  S    
C65   C76   S    
O31   Zn12  S    
C19   O3    A    
C122  H10   S    
C48   C79   S    
C3    C7    A    
C19   O29   A    
C30   C31   A    
O23   Zn10  S    
C78   O19   A    
C84   H51   S    
C35   C59   S    
O15   Zn6   S    
C105  C109  A    
O1    Zn12  S    
C48   C88   T    
C111  C116  A    
O41   Zn2   S    
C82   C93   S    
C49   O15   A    
C21   O40   A    
C22   O32   A    
C25   O35   A    
C123  H11   S    
O11   Zn3   S    
C49   O6    A    
C108  C112  A    
O23   Zn14  S    
C1    O14   A    
C104  C115  S    
C50   C89   T    
O1    Zn16  S    
O12   Zn9   S    
C17   C99   S    
C41   H23   S    
C1    O5    A    
C10   F3    S    
C44   H42   S    
C55   C66   S    
C45   H43   S    
O12   Zn2   S    
C97   C132  S    
C6    C10   A    
C2    C58   S    
O40   Zn16  S    
C104  H33   S    
C27   C36   S    
C64   H58   S    
C7    C25   S    
C130  H18   S    
C32   C33   A    
C131  H15   S    
C78   O10   A    
C114  C127  S    
C65   C69   S    
O5    Zn12  S    
O8    Zn15  S    
C32   C115  S    
O50   Zn10  S    
C1    C52   S    
O42   Zn3   S    
C16   H30   S    
C56   C61   S    
C8    F1    S    
O52   Zn5   S    
C13   C55   S    
C75   H55   S    
C126  H44   S    
O37   Zn6   S    
C80   O21   A    
C4    C8    A    
O12   Zn6   S    
C57   C62   S    
C54   C60   S    
C85   H52   S    
C7    C11   A    
C44   C126  S    
C100  C105  A    
C132  H20   S    
C96   C118  A    
C67   C72   S    
C30   C93   S    
C26   O36   A    
C20   C102  S    
C15   C16   S    
O6    Zn13  S    
C15   H29   S    
C29   O48   A    
C117  C121  S    
C6    C136  A    
C26   C34   S    
C104  H38   S    
C5    C22   S    
C16   H26   S    
C8    C9    A    
C103  C108  A    
C73   C84   S    
C109  C113  A    
O43   Zn4   S    
C37   C41   A    
C29   O39   A    
C18   C100  S    
C60   O16   A    
C17   O27   A    
C36   C40   A    
C22   O41   A    
C125  O22   A    
C57   C126  S    
O14   Zn5   S    
C75   C81   S    
C14   C134  S    
C44   C62   S    
C66   C73   S    
C45   C63   S    
C128  O50   A    
C2    H46   S    
C69   C83   S    
C53   C92   T    
C125  O45   A    
C111  H4    S    
O39   Zn8   S    
C12   C14   S    
O10   Zn2   S    
C121  H5    S    
O38   Zn7   S    
C68   C126  S    
C3    C15   S    
C57   C64   S    
C106  C110  A    
C58   C63   S    
O24   Zn13  S    
C133  H21   S    
C56   C67   S    
C59   C86   S    
C4    C21   S    
C19   C101  S    
O22   Zn12  S    
C6    C23   S    
C115  H39   S    
C54   C94   T    
C113  C118  A    
C38   C42   A    
C97   C101  A    
C120  C124  S    
C46   C86   T    
