data_mof_unit_34316.cif
_audit_creation_date              2012-10-26T18:27:27-0400
_audit_creation_method            fapswitch 2.2
_symmetry_space_group_name_H-M    P1
_symmetry_Int_Tables_number       1
_space_group_crystal_system       triclinic
_cell_length_a                    10.786449
_cell_length_b                    10.914024
_cell_length_c                    9.782148
_cell_angle_alpha                 109.135105
_cell_angle_beta                  98.613289
_cell_angle_gamma                 90.966321
_cell_volume                      1073.00661153

loop_
_atom_site_label
_atom_site_type_symbol
_atom_type_description
_atom_site_fract_x
_atom_site_fract_y
_atom_site_fract_z
_atom_type_partial_charge
C1    C     C_R   0.484966 0.254182 0.443673 0.588598
C2    C     C_2   0.421036 0.923485 0.477147 0.099213
C3    C     C_2   0.509954 0.512372 0.081657 -0.016527
C4    C     C_R   0.262902 0.505414 0.501979 0.569591
C5    C     C_2   0.480961 0.501379 0.923183 0.014367
C6    C     C_R   0.503633 0.745676 0.556031 0.541861
C7    C     C_R   0.737542 0.505702 0.500366 0.531946
C8    C     C_R   0.161184 0.724059 0.711033 -0.103447
C9    C     C_R   0.111253 0.825722 0.810901 -0.104242
C10   C     C_R   0.982069 0.827290 0.807704 -0.102880
C11   C     C_R   0.902027 0.726580 0.705521 -0.102562
C12   C     C_R   0.082119 0.618930 0.608666 0.026180
C13   C     C_R   0.950654 0.619963 0.606307 0.027548
C14   C     C_3   0.362053 0.811787 0.214979 -0.283282
C15   C     C_R   0.129727 0.514610 0.505078 0.020249
C16   C     C_R   0.048802 0.417174 0.398504 -0.121255
C17   C     C_R   0.920794 0.417920 0.396667 -0.142960
C18   C     C_R   0.871511 0.516179 0.501347 0.002902
C19   C     C_2   0.471532 0.114818 0.418062 -0.116875
C20   C     C_2   0.416276 0.062767 0.503345 0.219043
C21   C     C_2   0.493679 0.883688 0.577410 -0.104921
Cu1   Cu    Cu3+1 0.521920 0.521810 0.644910 0.989330
Cu2   Cu    Cu3+1 0.478080 0.478190 0.355090 0.971536
H1    H     H_    0.085307 0.338197 0.318172 0.142191
H2    H     H_    0.802194 0.734977 0.703810 0.133736
H3    H     H_    0.860002 0.339230 0.315571 0.135780
H4    H     H_    0.546708 0.954275 0.675842 0.101971
H5    H     H_    0.241768 0.856834 0.367445 0.272549
H6    H     H_    0.303577 0.725329 0.137210 0.156246
H7    H     H_    0.462613 0.792701 0.211711 0.152946
H8    H     H_    0.339912 0.896583 0.178948 0.123717
H9    H     H_    0.282661 0.000565 0.730523 0.333114
H10   H     H_    0.511242 0.051815 0.326468 0.055569
H11   H     H_    0.395821 0.446470 0.856885 0.220779
H12   H     H_    0.587147 0.579026 0.152223 0.139128
H13   H     H_    0.636396 0.604235 0.927824 0.201665
H14   H     H_    0.371161 0.384228 0.068502 0.241439
H15   H     H_    0.261597 0.730662 0.713971 0.133486
H16   H     H_    0.172949 0.904826 0.889546 0.119120
H17   H     H_    0.943527 0.907818 0.883447 0.121796
N1    N     N_2   0.445130 0.445430 0.137370 -0.338754
N2    N     N_2   0.554930 0.554500 0.862630 -0.362393
N3    N     N_2   0.333816 0.834966 0.360974 -0.480404
O1    O     O_R   0.511700 0.332330 0.577400 -0.419713
O2    O     O_2   0.268580 0.257149 0.610172 -0.265568
O3    O     O_3   0.232075 0.049483 0.675679 -0.513017
O4    O     O_R   0.474680 0.295500 0.332650 -0.493616
O5    O     O_R   0.338160 0.518420 0.622400 -0.487670
O6    O     O_R   0.301140 0.481590 0.377650 -0.496187
O7    O     O_R   0.525320 0.704500 0.667350 -0.523442
O8    O     O_R   0.488300 0.667670 0.422600 -0.465975
O9    O     O_R   0.698860 0.518410 0.622350 -0.500754
O10   O     O_R   0.661840 0.481580 0.377600 -0.504558
O11   O     O_2   0.431522 0.207538 0.784689 -0.331414
S1    S     S_3+6 0.336991 0.150524 0.647159 -0.005182

loop_
_geom_bond_atom_site_label_1
_geom_bond_atom_site_label_2
_ccdc_geom_bond_type
O3    S1    S    
Cu1   O5    S    
C5    N2    D    
C8    C12   A    
C9    C10   A    
C2    N3    S    
H5    N3    S    
H13   N2    S    
C19   C20   D    
Cu2   N1    S    
C12   C15   A    
C3    H12   S    
C4    O6    A    
Cu1   O7    S    
C7    C18   S    
C5    H11   S    
C2    C21   D    
C17   C18   A    
C21   H4    S    
C1    O4    A    
C16   H1    S    
C6    O7    A    
C11   C13   A    
Cu1   N2    S    
C8    H15   S    
C13   C18   A    
C14   H7    S    
C20   S1    S    
C17   H3    S    
C10   H17   S    
C7    O9    A    
Cu2   O10   S    
C4    C15   S    
H14   N1    S    
C6    O8    A    
Cu1   O1    S    
Cu2   O6    S    
C1    C19   S    
C10   C11   A    
C7    O10   A    
C14   H6    S    
C2    C20   S    
C15   C16   A    
C9    H16   S    
Cu2   O4    S    
C12   C13   A    
O2    S1    D    
Cu1   O9    S    
C4    O5    A    
C14   H8    S    
C11   H2    S    
O11   S1    D    
C14   N3    S    
C1    O1    A    
Cu1   Cu2   S    
C6    C21   S    
H9    O3    S    
C3    N1    D    
Cu2   O8    S    
C16   C17   A    
C19   H10   S    
C8    C9    A    
C3    C5    S    
