data_mof_unit_53400.cif
_audit_creation_date              2013-03-05T15:56:26-0500
_audit_creation_method            fapswitch 2.2
_symmetry_space_group_name_H-M    P1
_symmetry_Int_Tables_number       1
_space_group_crystal_system       triclinic
_cell_length_a                    6.944993
_cell_length_b                    14.806815
_cell_length_c                    15.852251
_cell_angle_alpha                 90.181566
_cell_angle_beta                  89.770567
_cell_angle_gamma                 90.520899
_cell_volume                      1630.04968272

loop_
_atom_site_label
_atom_site_type_symbol
_atom_site_description
_atom_site_fract_x
_atom_site_fract_y
_atom_site_fract_z
_atom_type_partial_charge
O1    O     O_R   0.494400 0.415640 0.412830 -0.552524
O2    O     O_R   0.823920 0.405510 0.586560 -0.600575
O3    O     O_R   0.994250 0.584360 0.587170 -0.564713
C1    C     C_R   0.654089 0.386021 0.616998 0.999855
O4    O     O_R   0.824110 0.404610 0.413450 -0.595828
O5    O     O_R   0.994440 0.583460 0.412820 -0.590391
C2    C     C_R   0.654947 0.384374 0.382646 1.037802
O6    O     O_R   0.494210 0.416540 0.587180 -0.623408
O7    O     O_3   0.660810 0.558680 0.500000 -0.248962
V1    V     V_3+5 0.935650 0.489110 0.500000 1.277066
O8    O     O_R   0.324150 0.594490 0.413440 -0.577435
C3    C     C_R   0.155519 0.616576 0.384288 1.105848
O9    O     O_R   0.323970 0.595390 0.586550 -0.599547
C4    C     C_R   0.155563 0.615455 0.616700 1.081252
V2    V     V_3+5 0.435660 0.510890 0.500000 1.285179
O10   O     O_3   0.160630 0.441320 0.500000 -0.276580
C5    C     C_3   0.101089 0.640593 0.773986 0.052912
H1    H     H_    0.234619 0.604887 0.792998 0.163166
C6    C     C_3   0.056919 0.715171 0.841583 0.036776
H2    H     H_    0.897737 0.719507 0.849626 0.165674
H3    H     H_    0.844246 0.724933 0.673025 0.135824
H4    H     H_    0.849047 0.845982 0.756865 0.236012
C7    C     C_3   0.987538 0.757871 0.666736 0.395840
C8    C     C_3   0.341932 0.735593 0.696497 -0.465117
C9    C     C_3   0.144906 0.685671 0.686145 -0.378244
H5    H     H_    0.378400 0.770637 0.637156 0.293306
H6    H     H_    0.459190 0.686200 0.706724 0.197237
C10   C     C_3   0.127514 0.810207 0.809397 -0.422566
C11   C     C_3   0.996084 0.834145 0.733763 -0.408189
C12   C     C_3   0.338456 0.801882 0.772444 0.405514
H7    H     H_    0.430521 0.772370 0.822002 0.125466
H8    H     H_    0.049435 0.896007 0.703641 0.306974
C13   C     C_R   0.953698 0.771941 0.215298 -0.016415
H9    H     H_    0.813266 0.788825 0.190816 0.128157
C14   C     C_R   0.965269 0.708686 0.280693 -0.115208
H10   H     H_    0.832964 0.678683 0.304293 0.136875
C15   C     C_R   0.144489 0.684455 0.315013 -0.128219
C16   C     C_R   0.311833 0.725221 0.281792 -0.014361
H11   H     H_    0.452244 0.708413 0.306356 0.123924
C17   C     C_R   0.300305 0.788338 0.216275 -0.077856
H12   H     H_    0.432638 0.818248 0.192610 0.131353
C18   C     C_R   0.121048 0.812695 0.182046 -0.107656
C19   C     C_R   0.794061 0.259878 0.696691 -0.236846
H13   H     H_    0.916333 0.264045 0.654353 0.167295
C20   C     C_R   0.787597 0.192621 0.757946 0.529744
C21   C     C_R   0.627275 0.185580 0.814246 -0.316179
C22   C     C_R   0.478173 0.248788 0.805171 -0.123018
H14   H     H_    0.356986 0.248524 0.848202 0.185237
C23   C     C_R   0.483809 0.313835 0.740968 -0.109695
H15   H     H_    0.365378 0.360461 0.735040 0.157549
C24   C     C_R   0.642560 0.319389 0.686062 -0.152771
C25   C     C_R   0.768397 0.242896 0.312339 -0.303540
H16   H     H_    0.870643 0.236093 0.363341 0.189264
C26   C     C_R   0.758888 0.174960 0.249959 0.416805
C27   C     C_R   0.621814 0.181230 0.184179 -0.311491
C28   C     C_R   0.498125 0.255714 0.183364 -0.256727
H17   H     H_    0.395371 0.261695 0.132516 0.183994
C29   C     C_R   0.509622 0.324345 0.244894 0.511842
C30   C     C_R   0.643460 0.317083 0.312055 -0.328768
O11   O     O_R   0.771300 0.080930 0.910090 -0.543463
O12   O     O_R   0.441270 0.092800 0.083770 -0.606388
O13   O     O_R   0.271080 0.913920 0.084380 -0.615250
C31   C     C_R   0.610425 0.113561 0.114104 0.996081
O14   O     O_R   0.441580 0.091910 0.910670 -0.552196
O15   O     O_R   0.271390 0.913020 0.910040 -0.555860
C32   C     C_R   0.612288 0.115205 0.882212 1.078322
O16   O     O_R   0.770990 0.081830 0.084440 -0.591227
O17   O     O_3   0.604750 0.938760 0.997250 -0.262608
V3    V     V_3+5 0.329850 0.008280 0.997210 1.315997
O18   O     O_R   0.941680 0.901940 0.910610 -0.568744
C33   C     C_R   0.111455 0.880838 0.880353 1.139154
O19   O     O_R   0.941370 0.902830 0.083720 -0.593441
C34   C     C_R   0.110005 0.880707 0.112846 0.997869
V4    V     V_3+5 0.829860 0.986420 0.997150 1.325724
O20   O     O_3   0.104830 0.056030 0.997180 -0.258638
N1    N     N_R   0.946403 0.572200 0.770484 0.248065
O21   O     O_R   0.768056 0.594559 0.758078 -0.436503
O22   O     O_R   0.986733 0.487670 0.783091 -0.388531
S1    S     S_3+6 0.457665 0.907586 0.745471 -0.029779
O23   O     O_2   0.319370 0.983941 0.736727 -0.228026
O24   O     O_2   0.592129 0.929811 0.816272 -0.293770
O25   O     O_3   0.585200 0.898986 0.655440 -0.502518
H18   H     H_    0.617226 0.961998 0.639525 0.416626
S2    S     S_3+6 0.988884 0.801825 0.559432 0.001380
O26   O     O_2   0.948164 0.901380 0.558695 -0.199128
O27   O     O_2   0.177633 0.785946 0.515447 -0.325905
O28   O     O_3   0.813715 0.748444 0.505353 -0.513814
H19   H     H_    0.810661 0.778857 0.449821 0.365855
S3    S     S_3+6 0.976217 0.114954 0.754166 -0.007615
O29   O     O_2   0.102032 0.127136 0.829999 -0.301542
O30   O     O_2   0.889407 0.022534 0.755326 -0.264525
O31   O     O_3   0.109119 0.126414 0.665672 -0.472648
H20   H     H_    0.209690 0.171806 0.679608 0.347381
N2    N     N_R   0.883577 0.098416 0.256886 0.236746
O32   O     O_R   0.058793 0.109099 0.284341 -0.388650
O33   O     O_R   0.814976 0.016930 0.247445 -0.412600
S4    S     S_3+6 0.362816 0.420631 0.231731 -0.011695
O34   O     O_2   0.477543 0.504902 0.250178 -0.291741
O35   O     O_2   0.288245 0.425576 0.142969 -0.243633
O36   O     O_3   0.174969 0.414579 0.298606 -0.511987
H21   H     H_    0.110567 0.356398 0.285013 0.338958
N3    N     N_R   0.137134 0.691690 0.924272 0.238261
O37   O     O_R   0.023038 0.684034 0.989213 -0.358754
O38   O     O_R   0.319586 0.675435 0.933639 -0.376154

loop_
_geom_bond_atom_site_label_1
_geom_bond_atom_site_label_2
_geom_bond_distance
_ccdc_geom_bond_type
O28   H19   0.990457 S    
H4    C11   1.098850 S    
C14   H10   1.082810 S    
S2    O28   1.681129 S    
C1    O6    1.294299 A    
S4    O34   1.502943 D    
C22   C23   1.403643 A    
C20   C21   1.427470 A    
C13   C18   1.406115 A    
C7    C11   1.549081 S    
C10   C11   1.553609 S    
C14   C15   1.410221 A    
S2    O27   1.502354 D    
C21   C32   1.503893 S    
C11   H8    1.095211 S    
O5    C3    1.297633 A    
C12   H7    1.108254 S    
C6    N3    1.470289 S    
O17   V4    1.709419 S    
V2    O10   2.161888 S    
C28   H17   1.083066 S    
O11   V4    2.013817 S    
C3    C15   1.493678 S    
O12   C31   1.304939 A    
O36   H21   0.990562 S    
C5    C6    1.567732 S    
C21   C22   1.410165 A    
O8    V2    2.012855 S    
S2    O26   1.503598 D    
C6    H2    1.114745 S    
O17   V3    2.177227 S    
C23   C24   1.403929 A    
C27   C31   1.495441 S    
O18   V4    2.011969 S    
C5    N1    1.470730 S    
C8    H6    1.112194 S    
O13   C34   1.297778 A    
O18   C33   1.311163 A    
O1    V2    2.014594 S    
S3    O30   1.490482 D    
C20   S3    1.751686 S    
O7    V1    2.177212 S    
N2    O33   1.301592 A    
C17   C18   1.410382 A    
O11   C32   1.299209 A    
O9    C4    1.298295 A    
N2    O32   1.302126 A    
C29   S4    1.773595 S    
C2    C30   1.497837 S    
S4    O35   1.503534 D    
C25   C26   1.409635 A    
C13   H9    1.082777 S    
C31   O16   1.299728 A    
C7    S2    1.823146 S    
C1    C24   1.477547 S    
C8    C9    1.558312 S    
O19   V4    2.012871 S    
V4    O20   2.161801 S    
S1    O24   1.496842 D    
C29   C30   1.421085 A    
O15   C33   1.294390 A    
O13   V3    2.006369 S    
O14   C32   1.310472 A    
O2    C1    1.302836 A    
C19   H13   1.081708 S    
C15   C16   1.405968 A    
C25   C30   1.406033 A    
C22   H14   1.081238 S    
C27   C28   1.404216 A    
C5    H1    1.114683 S    
O16   V4    2.017738 S    
O14   V3    2.000560 S    
N1    O21   1.300871 A    
S3    O31   1.684320 S    
N3    O38   1.301103 A    
C6    C10   1.571885 S    
C19   C20   1.393420 A    
O3    C4    1.296031 A    
C12   S1    1.815420 S    
C17   H12   1.082777 S    
C23   H15   1.083196 S    
O6    V2    2.013455 S    
O9    V2    2.011914 S    
C10   C33   1.537856 S    
O2    V1    2.000503 S    
S4    O36   1.679662 S    
C25   H16   1.083728 S    
O4    C2    1.306035 A    
O12   V3    2.006946 S    
C26   C27   1.418600 A    
C18   C34   1.494145 S    
O1    C2    1.300081 A    
C8    H5    1.103220 S    
N1    O22   1.301290 A    
O19   C34   1.305520 A    
O5    V1    2.006403 S    
S1    O25   1.681775 S    
O8    C3    1.305503 A    
C5    C9    1.573495 S    
H3    C7    1.108524 S    
O7    V2    1.710455 S    
O4    V1    2.006975 S    
O3    V1    2.011447 S    
V1    O10   1.721098 S    
C16   C17   1.402386 A    
C19   C24   1.389652 A    
C16   H11   1.082848 S    
O15   V3    2.011358 S    
C10   C12   1.581301 S    
O31   H20   0.990027 S    
C13   C14   1.402341 A    
C28   C29   1.408307 A    
V3    O20   1.721106 S    
C7    C9    1.567817 S    
C4    C9    1.513861 S    
N3    O37   1.301195 A    
C8    C12   1.551173 S    
C26   N2    1.437316 S    
S1    O23   1.497231 D    
O25   H18   0.990408 S    
S3    O29   1.498446 D    
