data_mof_unit_61042.cif
_audit_creation_date              2012-12-10T17:22:31-0500
_audit_creation_method            fapswitch 2.2
_symmetry_space_group_name_H-M    P1
_symmetry_Int_Tables_number       1
_space_group_crystal_system       monoclinic
_cell_length_a                    21.755202
_cell_length_b                    21.755202
_cell_length_c                    30.375205
_cell_angle_alpha                 90.0
_cell_angle_beta                  90.0
_cell_angle_gamma                 89.914541
_cell_volume                      14376.2287599

loop_
_atom_site_label
_atom_site_type_symbol
_atom_type_description
_atom_site_fract_x
_atom_site_fract_y
_atom_site_fract_z
_atom_type_partial_charge
C1    C     C_R   0.118798 0.499962 0.500005 0.896783
C2    C     C_R   0.500073 0.881177 0.500047 0.893053
C3    C     C_R   0.881202 0.500038 0.500005 0.896783
C4    C     C_R   0.499927 0.118823 0.500047 0.893050
C5    C     C_R   0.618823 0.999927 0.999953 0.893055
C6    C     C_R   0.000038 0.381202 0.999995 0.896784
C7    C     C_R   0.381177 0.000072 0.999953 0.893051
C8    C     C_R   0.999962 0.618798 0.999995 0.896783
C9    C     C_R   0.500092 0.381057 0.499995 0.806885
C10   C     C_R   0.381033 0.499985 0.500000 0.807080
C11   C     C_R   0.499908 0.618943 0.499995 0.806885
C12   C     C_R   0.618967 0.500015 0.500000 0.807080
C13   C     C_R   0.999985 0.881033 1.000000 0.807080
C14   C     C_R   0.881057 0.000092 0.000005 0.806886
C15   C     C_R   0.000015 0.118967 1.000000 0.807080
C16   C     C_R   0.118943 0.999908 0.000005 0.806885
C17   C     C_R   0.314300 0.499947 0.500006 -0.062937
C18   C     C_R   0.499964 0.685633 0.499980 -0.061396
C19   C     C_R   0.685700 0.500053 0.500006 -0.062937
C20   C     C_R   0.500036 0.314367 0.499980 -0.061395
C21   C     C_R   0.814367 0.000036 0.000019 -0.061397
C22   C     C_R   0.000053 0.185700 0.999994 -0.062938
C23   C     C_R   0.185633 0.999964 0.000019 -0.061396
C24   C     C_R   0.999946 0.814300 0.999994 -0.062938
C25   C     C_R   0.282461 0.530684 0.533195 -0.195853
C26   C     C_R   0.532750 0.717255 0.532175 -0.197035
C27   C     C_R   0.717539 0.469316 0.533194 -0.195853
C28   C     C_R   0.467250 0.282745 0.532175 -0.197036
C29   C     C_R   0.282559 0.469159 0.466836 -0.195373
C30   C     C_R   0.532445 0.282488 0.467652 -0.196731
C31   C     C_R   0.717441 0.530841 0.466836 -0.195373
C32   C     C_R   0.467556 0.717512 0.467652 -0.196731
C33   C     C_R   0.782488 0.032443 0.032349 -0.196730
C34   C     C_R   0.030841 0.217441 0.033164 -0.195373
C35   C     C_R   0.217512 0.967556 0.032348 -0.196731
C36   C     C_R   0.969159 0.782559 0.033164 -0.195374
C37   C     C_R   0.782745 0.967252 0.967824 -0.197034
C38   C     C_R   0.030684 0.782461 0.966805 -0.195852
C39   C     C_R   0.217255 0.032749 0.967824 -0.197035
C40   C     C_R   0.969316 0.217539 0.966805 -0.195852
C41   C     C_R   1.000000 0.500000 0.414953 0.885641
C42   C     C_R   0.500000 0.000000 0.414953 0.881982
C43   C     C_R   1.000000 0.500000 0.585046 0.885652
C44   C     C_R   0.500000 0.000000 0.584850 0.873126
C45   C     C_R   0.500000 0.000000 0.915150 0.873131
C46   C     C_R   1.000000 0.500000 0.914953 0.885652
C47   C     C_R   0.500000 0.000000 0.085047 0.881986
C48   C     C_R   1.000000 0.500000 0.085047 0.885642
C49   C     C_R   0.185879 0.499887 0.500027 -0.165216
C50   C     C_R   0.500295 0.814056 0.499967 -0.167117
C51   C     C_R   0.814121 0.500113 0.500027 -0.165216
C52   C     C_R   0.499705 0.185944 0.499967 -0.167117
C53   C     C_R   0.685944 0.999705 0.000033 -0.167116
C54   C     C_R   0.000113 0.314121 0.999973 -0.165216
C55   C     C_R   0.314056 0.000295 0.000033 -0.167116
C56   C     C_R   0.999887 0.685879 0.999973 -0.165216
C57   C     C_R   0.218361 0.530991 0.533840 -0.027242
C58   C     C_R   0.533508 0.781358 0.532733 -0.029730
C59   C     C_R   0.781639 0.469008 0.533840 -0.027241
C60   C     C_R   0.466491 0.218642 0.532733 -0.029729
C61   C     C_R   0.218455 0.468790 0.466212 -0.027494
C62   C     C_R   0.532628 0.218381 0.467006 -0.026691
C63   C     C_R   0.781545 0.531210 0.466212 -0.027494
C64   C     C_R   0.467372 0.781619 0.467005 -0.026693
C65   C     C_R   0.718380 0.032626 0.032995 -0.026693
C66   C     C_R   0.031209 0.281545 0.033788 -0.027494
C67   C     C_R   0.281620 0.967373 0.032995 -0.026692
C68   C     C_R   0.968790 0.718455 0.033788 -0.027493
C69   C     C_R   0.718642 0.966493 0.967266 -0.029730
C70   C     C_R   0.030991 0.718361 0.966160 -0.027242
C71   C     C_R   0.281358 0.033507 0.967267 -0.029728
C72   C     C_R   0.969009 0.281639 0.966160 -0.027242
C73   C     C_R   0.019033 0.552341 0.297409 -0.154705
C74   C     C_R   0.552394 0.980959 0.297408 -0.154552
C75   C     C_R   0.980967 0.447659 0.297409 -0.154705
C76   C     C_R   0.447605 0.019041 0.297408 -0.154552
C77   C     C_R   0.019097 0.447625 0.702591 -0.154644
C78   C     C_R   0.529454 0.047242 0.701709 -0.151724
C79   C     C_R   0.980903 0.552375 0.702591 -0.154644
C80   C     C_R   0.470546 0.952758 0.701709 -0.151724
C81   C     C_R   0.547237 0.029462 0.798291 -0.151726
C82   C     C_R   0.052375 0.480903 0.797409 -0.154644
C83   C     C_R   0.452762 0.970538 0.798291 -0.151726
C84   C     C_R   0.947625 0.519097 0.797409 -0.154644
C85   C     C_R   0.519042 0.947606 0.202592 -0.154552
C86   C     C_R   0.052341 0.519033 0.202590 -0.154705
C87   C     C_R   0.480958 0.052394 0.202592 -0.154552
C88   C     C_R   0.947659 0.480967 0.202590 -0.154705
C89   C     C_R   0.018592 0.552517 0.343293 -0.166025
C90   C     C_R   0.552572 0.981406 0.343294 -0.166412
C91   C     C_R   0.981408 0.447483 0.343293 -0.166025
C92   C     C_R   0.447428 0.018594 0.343294 -0.166412
C93   C     C_R   0.018653 0.447449 0.656706 -0.165921
C94   C     C_R   0.530722 0.046302 0.655846 -0.166229
C95   C     C_R   0.981346 0.552551 0.656706 -0.165921
C96   C     C_R   0.469277 0.953698 0.655846 -0.166230
C97   C     C_R   0.546297 0.030730 0.844154 -0.166224
C98   C     C_R   0.052551 0.481346 0.843294 -0.165922
C99   C     C_R   0.453703 0.969270 0.844154 -0.166223
C100  C     C_R   0.947449 0.518654 0.843294 -0.165921
C101  C     C_R   0.518594 0.947428 0.156706 -0.166412
C102  C     C_R   0.052517 0.518592 0.156706 -0.166026
C103  C     C_R   0.481405 0.052572 0.156706 -0.166412
C104  C     C_R   0.947483 0.481408 0.156706 -0.166025
C105  C     C_R   1.000000 0.500000 0.366580 -0.032154
C106  C     C_R   0.500000 0.000000 0.366582 -0.028234
C107  C     C_R   1.000000 0.500000 0.633420 -0.032340
C108  C     C_R   0.500000 0.000000 0.632839 -0.027811
C109  C     C_R   0.500000 0.000000 0.867160 -0.027819
C110  C     C_R   1.000000 0.500000 0.866580 -0.032341
C111  C     C_R   0.500000 0.000000 0.133418 -0.028237
C112  C     C_R   1.000000 0.500000 0.133420 -0.032154
C113  C     C_R   1.000000 0.500000 0.274202 0.093546
C114  C     C_R   0.500000 0.000000 0.274201 0.093522
C115  C     C_R   1.000000 0.500000 0.725798 0.093413
C116  C     C_R   0.500000 0.000000 0.725464 0.099581
C117  C     C_R   0.500000 0.000000 0.774536 0.099580
C118  C     C_R   1.000000 0.500000 0.774202 0.093413
C119  C     C_R   0.500000 0.000000 0.225798 0.093522
C120  C     C_R   1.000000 0.500000 0.225798 0.093547
Cu1   Cu    Cu3+1 1.000000 0.438210 0.500000 1.029331
Cu2   Cu    Cu3+1 0.438210 0.000000 0.500000 1.030911
Cu3   Cu    Cu3+1 1.000000 0.561790 0.500000 1.029330
Cu4   Cu    Cu3+1 0.561790 0.000000 0.500000 1.030911
Cu5   Cu    Cu3+1 0.500000 0.938210 0.000000 1.030910
Cu6   Cu    Cu3+1 0.938210 0.500000 0.000000 1.029330
Cu7   Cu    Cu3+1 0.500000 0.061790 0.000000 1.030910
Cu8   Cu    Cu3+1 0.061790 0.500000 0.000000 1.029330
Cu9   Cu    Cu3+1 0.500000 0.500000 0.544060 0.990984
Cu10  Cu    Cu3+1 0.500000 0.500000 0.455940 0.991602
Cu11  Cu    Cu3+1 0.000000 0.000000 0.044060 0.991602
Cu12  Cu    Cu3+1 0.000000 0.000000 0.955940 0.990985
H1    H     H_    0.033514 0.593284 0.279991 0.142913
H2    H     H_    0.593376 0.966468 0.279988 0.142787
H3    H     H_    0.966486 0.406716 0.279991 0.142913
H4    H     H_    0.406624 0.033532 0.279988 0.142787
H5    H     H_    0.033628 0.406657 0.720009 0.143046
H6    H     H_    0.551015 0.085591 0.718203 0.135014
H7    H     H_    0.966372 0.593343 0.720009 0.143046
H8    H     H_    0.448985 0.914410 0.718203 0.135014
H9    H     H_    0.585581 0.051030 0.781796 0.135014
H10   H     H_    0.093343 0.466372 0.779991 0.143046
H11   H     H_    0.414418 0.948970 0.781796 0.135014
H12   H     H_    0.906657 0.533628 0.779991 0.143046
H13   H     H_    0.533532 0.906625 0.220012 0.142787
H14   H     H_    0.093284 0.533514 0.220009 0.142913
H15   H     H_    0.466468 0.093376 0.220012 0.142787
H16   H     H_    0.906716 0.466486 0.220009 0.142913
H17   H     H_    0.033326 0.593507 0.360529 0.163349
H18   H     H_    0.593606 0.966673 0.360528 0.162373
H19   H     H_    0.966674 0.406493 0.360529 0.163350
H20   H     H_    0.406393 0.033328 0.360528 0.162373
H21   H     H_    0.033437 0.406434 0.639470 0.163494
H22   H     H_    0.554201 0.082693 0.638265 0.166859
H23   H     H_    0.966563 0.593566 0.639470 0.163494
H24   H     H_    0.445799 0.917308 0.638265 0.166860
H25   H     H_    0.582683 0.054215 0.861735 0.166858
H26   H     H_    0.093566 0.466563 0.860529 0.163494
H27   H     H_    0.417316 0.945785 0.861735 0.166857
H28   H     H_    0.906434 0.533437 0.860529 0.163494
H29   H     H_    0.533328 0.906394 0.139472 0.162374
H30   H     H_    0.093507 0.533326 0.139471 0.163350
H31   H     H_    0.466672 0.093606 0.139472 0.162374
H32   H     H_    0.906493 0.466674 0.139471 0.163350
O1    O     O_R   0.090160 0.447820 0.500030 -0.573322
O2    O     O_R   0.447820 0.909840 0.500030 -0.576199
O3    O     O_R   0.909840 0.552180 0.500030 -0.573322
O4    O     O_R   0.552180 0.090160 0.500030 -0.576199
O5    O     O_R   0.090160 0.552180 0.499970 -0.573624
O6    O     O_R   0.447820 0.090160 0.499970 -0.569531
O7    O     O_R   0.909840 0.447820 0.499970 -0.573624
O8    O     O_R   0.552180 0.909840 0.499970 -0.569531
O9    O     O_R   0.590160 0.947820 0.000030 -0.569534
O10   O     O_R   0.947820 0.409840 0.000030 -0.573624
O11   O     O_R   0.409840 0.052180 0.000030 -0.569534
O12   O     O_R   0.052180 0.590160 0.000030 -0.573624
O13   O     O_R   0.590160 0.052180 0.999970 -0.576198
O14   O     O_R   0.947820 0.590160 0.999970 -0.573322
O15   O     O_R   0.409840 0.947820 0.999970 -0.576198
O16   O     O_R   0.052180 0.409840 0.999970 -0.573322
O17   O     O_R   0.999980 0.447820 0.435750 -0.582729
O18   O     O_R   0.447820 0.000020 0.435750 -0.582935
O19   O     O_R   0.000020 0.552180 0.435750 -0.582730
O20   O     O_R   0.552180 0.999980 0.435750 -0.582935
O21   O     O_R   0.999980 0.552180 0.564250 -0.582702
O22   O     O_R   0.447820 0.999980 0.564250 -0.575224
O23   O     O_R   0.000020 0.447820 0.564250 -0.582703
O24   O     O_R   0.552180 0.000020 0.564250 -0.575225
O25   O     O_R   0.499980 0.947820 0.935750 -0.575226
O26   O     O_R   0.947820 0.500020 0.935750 -0.582701
O27   O     O_R   0.500020 0.052180 0.935750 -0.575227
O28   O     O_R   0.052180 0.499980 0.935750 -0.582702
O29   O     O_R   0.499980 0.052180 0.064250 -0.582935
O30   O     O_R   0.947820 0.499980 0.064250 -0.582730
O31   O     O_R   0.500020 0.947820 0.064250 -0.582935
O32   O     O_R   0.052180 0.500020 0.064250 -0.582730
O33   O     O_R   0.499980 0.409740 0.537200 -0.584909
O34   O     O_R   0.409740 0.500020 0.537200 -0.585120
O35   O     O_R   0.500020 0.590260 0.537200 -0.584909
O36   O     O_R   0.590260 0.499980 0.537200 -0.585120
O37   O     O_R   0.499980 0.590260 0.462800 -0.584449
O38   O     O_R   0.409740 0.499980 0.462800 -0.585122
O39   O     O_R   0.500020 0.409740 0.462800 -0.584449
O40   O     O_R   0.590260 0.500020 0.462800 -0.585122
O41   O     O_R   0.999980 0.909740 0.037200 -0.585122
O42   O     O_R   0.909740 0.000020 0.037200 -0.584450
O43   O     O_R   0.000020 0.090260 0.037200 -0.585122
O44   O     O_R   0.090260 0.999980 0.037200 -0.584450
O45   O     O_R   0.999980 0.090260 0.962800 -0.585120
O46   O     O_R   0.909740 0.999980 0.962800 -0.584909
O47   O     O_R   0.000020 0.909740 0.962800 -0.585120
O48   O     O_R   0.090260 0.000020 0.962800 -0.584909
C121  C     C_2   0.187385 0.562224 0.571250 0.853577
O49   O     O_2   0.209238 0.609387 0.586570 -0.578392
O50   O     O_R   0.134858 0.536691 0.590226 -0.783306
H33   H     H_    0.119097 0.561766 0.616010 0.334801
C122  C     C_2   0.567965 0.812000 0.568808 0.854602
O51   O     O_2   0.615448 0.788941 0.582766 -0.576631
O52   O     O_R   0.545370 0.865741 0.588016 -0.791783
H34   H     H_    0.572834 0.881436 0.612519 0.337694
C123  C     C_2   0.812615 0.437775 0.571249 0.853577
O53   O     O_2   0.790763 0.390611 0.586569 -0.578391
O54   O     O_R   0.865141 0.463310 0.590226 -0.783306
H35   H     H_    0.880903 0.438234 0.616011 0.334801
C124  C     C_2   0.432035 0.188000 0.568808 0.854602
O55   O     O_2   0.384551 0.211059 0.582765 -0.576631
O56   O     O_R   0.454630 0.134259 0.588016 -0.791783
H36   H     H_    0.427165 0.118564 0.612519 0.337694
C125  C     C_2   0.187573 0.437523 0.428815 0.853540
O57   O     O_2   0.209608 0.390385 0.413486 -0.577692
O58   O     O_R   0.134922 0.462991 0.409863 -0.783426
H37   H     H_    0.119231 0.437889 0.384092 0.334816
C126  C     C_2   0.565408 0.187336 0.430297 0.855459
O59   O     O_2   0.613415 0.208918 0.416176 -0.578504
O60   O     O_R   0.540398 0.135056 0.410592 -0.781706
H38   H     H_    0.566595 0.119096 0.385448 0.335116
C127  C     C_2   0.812427 0.562478 0.428815 0.853541
O61   O     O_2   0.790391 0.609615 0.413486 -0.577693
O62   O     O_R   0.865078 0.537010 0.409863 -0.783425
H39   H     H_    0.880769 0.562111 0.384092 0.334816
C128  C     C_2   0.434593 0.812664 0.430296 0.855459
O63   O     O_2   0.386587 0.791081 0.416174 -0.578505
O64   O     O_R   0.459603 0.864945 0.410592 -0.781705
H40   H     H_    0.433406 0.880904 0.385448 0.335116
C129  C     C_2   0.687336 0.065404 0.069705 0.855458
O65   O     O_2   0.708920 0.113410 0.083828 -0.578506
O66   O     O_R   0.635054 0.040395 0.089408 -0.781706
H41   H     H_    0.619095 0.066590 0.114553 0.335115
C130  C     C_2   0.062477 0.312427 0.071185 0.853540
O67   O     O_2   0.109615 0.290391 0.086514 -0.577693
O68   O     O_R   0.037009 0.365079 0.090137 -0.783425
H42   H     H_    0.062111 0.380769 0.115908 0.334816
C131  C     C_2   0.312664 0.934594 0.069704 0.855459
O69   O     O_2   0.291081 0.886587 0.083826 -0.578505
O70   O     O_R   0.364945 0.959604 0.089408 -0.781706
H43   H     H_    0.380904 0.933408 0.114553 0.335115
C132  C     C_2   0.937523 0.687573 0.071185 0.853540
O71   O     O_2   0.890385 0.709608 0.086514 -0.577693
O72   O     O_R   0.962991 0.634922 0.090137 -0.783426
H44   H     H_    0.937889 0.619231 0.115908 0.334816
C133  C     C_2   0.688000 0.932039 0.931190 0.854600
O73   O     O_2   0.711058 0.884556 0.917231 -0.576630
O74   O     O_R   0.634260 0.954636 0.911983 -0.791782
H45   H     H_    0.618564 0.927173 0.887479 0.337693
C134  C     C_2   0.062224 0.687385 0.928750 0.853576
O75   O     O_2   0.109388 0.709238 0.913430 -0.578391
O76   O     O_R   0.036690 0.634859 0.909774 -0.783306
H46   H     H_    0.061766 0.619097 0.883989 0.334801
C135  C     C_2   0.312000 0.067962 0.931191 0.854603
O77   O     O_2   0.288942 0.115446 0.917233 -0.576630
O78   O     O_R   0.365740 0.045365 0.911983 -0.791781
H47   H     H_    0.381435 0.072828 0.887479 0.337693
C136  C     C_2   0.937775 0.312615 0.928750 0.853577
O79   O     O_2   0.890612 0.290762 0.913430 -0.578391
O80   O     O_R   0.963310 0.365141 0.909774 -0.783306
H48   H     H_    0.938234 0.380903 0.883989 0.334800
H49   H     H_    0.307826 0.554144 0.558919 0.178422
H50   H     H_    0.557659 0.691671 0.557117 0.178175
H51   H     H_    0.692174 0.445856 0.558919 0.178420
H52   H     H_    0.442340 0.308329 0.557117 0.178174
H53   H     H_    0.308002 0.445718 0.441106 0.178655
H54   H     H_    0.557261 0.307839 0.442581 0.177349
H55   H     H_    0.691998 0.554282 0.441106 0.178655
H56   H     H_    0.442739 0.692161 0.442580 0.177351
H57   H     H_    0.807839 0.057258 0.057421 0.177352
H58   H     H_    0.054281 0.191998 0.058894 0.178655
H59   H     H_    0.192161 0.942740 0.057420 0.177350
H60   H     H_    0.945718 0.808002 0.058894 0.178655
H61   H     H_    0.808329 0.942343 0.942881 0.178175
H62   H     H_    0.054144 0.807826 0.941080 0.178421
H63   H     H_    0.191671 0.057658 0.942882 0.178174
H64   H     H_    0.945856 0.192174 0.941080 0.178421

loop_
_geom_bond_atom_site_label_1
_geom_bond_atom_site_label_2
_ccdc_geom_bond_type
C87   C103  A    
C79   H7    S    
C38   C70   A    
C11   C18   S    
C100  C110  A    
C133  O73   D    
Cu2   O2    S    
C79   C115  A    
C73   H1    S    
C17   C29   A    
C91   C105  A    
C102  C112  A    
O54   H35   S    
Cu12  O48   S    
C38   H62   S    
C82   H10   S    
Cu5   O9    S    
C34   C66   A    
C76   H4    S    
C33   C65   A    
O68   H42   S    
C20   C30   A    
C121  O49   D    
C42   O18   A    
C79   C95   A    
C94   C108  A    
C130  O67   D    
C123  O53   D    
C87   H15   S    
C4    C52   S    
C98   C110  A    
C50   C64   A    
C14   C21   S    
C47   O31   A    
C34   H58   S    
O62   H39   S    
C6    C54   S    
C128  O63   D    
Cu9   O36   S    
C99   H27   S    
Cu7   O29   S    
C131  O69   D    
C58   C122  S    
C45   C109  S    
Cu2   O22   S    
C6    O16   A    
C21   C33   A    
Cu5   O31   S    
C10   C17   S    
C77   C115  A    
O78   H47   S    
C74   C114  A    
C127  O62   S    
C10   O34   A    
C30   H54   S    
C35   H59   S    
C73   C113  A    
C116  C117  S    
C85   C119  A    
C132  O71   D    
C11   O37   A    
C77   C93   A    
Cu6   O26   S    
O56   H36   S    
C100  H28   S    
C16   O48   A    
Cu3   O19   S    
C52   C60   A    
C3    O7    A    
Cu4   O4    S    
Cu2   O18   S    
C104  C112  A    
C55   C71   A    
C45   O27   A    
C15   C22   S    
C95   C107  A    
C80   C116  A    
Cu2   O6    S    
C136  O80   S    
C7    O11   A    
Cu5   O15   S    
C24   C38   A    
O60   H38   S    
C126  O60   S    
Cu6   O14   S    
Cu8   O16   S    
C35   C67   A    
C88   C120  A    
C9    O39   A    
C2    C50   S    
C126  O59   D    
C2    O2    A    
Cu9   O34   S    
Cu6   O10   S    
C43   O21   A    
C75   C91   A    
O72   H44   S    
Cu3   O3    S    
C19   C31   A    
C81   H9    S    
C96   C108  A    
C66   C130  S    
Cu11  O43   S    
C62   C126  S    
C83   C99   A    
C129  O65   D    
C48   O32   A    
Cu7   O11   S    
C82   C98   A    
C8    C56   S    
Cu12  O47   S    
C25   C57   A    
C123  O54   S    
C46   O26   A    
C96   H24   S    
Cu11  O44   S    
C78   H6    S    
C19   C27   A    
C88   C104  A    
C9    O33   A    
C28   H52   S    
C51   C59   A    
C77   H5    S    
C44   C108  S    
C37   H61   S    
C88   H16   S    
C22   C34   A    
C29   C61   A    
C89   H17   S    
Cu8   O12   S    
C49   C61   A    
C14   O46   A    
Cu1   O17   S    
C39   H63   S    
C72   C136  S    
Cu7   O13   S    
C135  O77   D    
C98   H26   S    
C124  O55   D    
O74   H45   S    
C51   C63   A    
C32   C64   A    
Cu5   O25   S    
C25   H49   S    
C26   C58   A    
O52   H34   S    
Cu4   O24   S    
C14   O42   A    
C3    C51   S    
Cu10  O40   S    
C27   H51   S    
C64   C128  S    
C6    O10   A    
C54   C72   A    
C42   O20   A    
C53   C69   A    
C80   H8    S    
C93   H21   S    
C135  O78   S    
Cu7   O27   S    
C60   C124  S    
C13   C24   S    
C128  O64   S    
C97   H25   S    
C80   C96   A    
Cu3   O21   S    
C15   O43   A    
C31   H55   S    
O50   H33   S    
C59   C123  S    
C87   C119  A    
C125  O57   D    
C31   C63   A    
Cu1   O23   S    
C113  C120  S    
C134  O76   S    
C37   C69   A    
Cu6   O30   S    
C9    C20   S    
C61   C125  S    
C76   C114  A    
C10   O38   A    
C1    O1    A    
Cu8   O32   S    
C71   C135  S    
C115  C118  S    
C22   C40   A    
C18   C26   A    
C8    O12   A    
C136  O79   D    
C12   O36   A    
C50   C58   A    
Cu12  O46   S    
C44   O24   A    
C43   C107  S    
C45   O25   A    
C132  O72   S    
C41   O17   A    
C5    O13   A    
Cu3   O5    S    
Cu10  O37   S    
C41   C105  S    
C130  O68   S    
C76   C92   A    
C8    O14   A    
C75   C113  A    
C7    C55   S    
C81   C117  A    
C92   C106  A    
C48   C112  S    
O80   H48   S    
C57   C121  S    
C49   C57   A    
C16   C23   S    
C56   C70   A    
C30   C62   A    
C84   C118  A    
C125  O58   S    
C13   O41   A    
C28   C60   A    
C18   C32   A    
C82   C118  A    
C27   C59   A    
Cu2   Cu4   S    
O70   H43   S    
Cu11  O41   S    
C26   H50   S    
O58   H37   S    
C85   C101  A    
C102  H30   S    
C70   C134  S    
C133  O74   S    
Cu9   Cu10  S    
C134  O75   D    
C5    C53   S    
Cu1   O7    S    
C65   C129  S    
Cu6   Cu8   S    
C40   C72   A    
C48   O30   A    
C3    O3    A    
C5    O9    A    
C47   O29   A    
C78   C116  A    
Cu12  O45   S    
C114  C119  S    
C33   H57   S    
C16   O44   A    
Cu10  O38   S    
C43   O23   A    
C63   C127  S    
C84   C100  A    
C69   C133  S    
C90   H18   S    
C36   C68   A    
Cu4   O20   S    
C54   C66   A    
C103  C111  A    
C101  C111  A    
C20   C28   A    
C4    O6    A    
C103  H31   S    
C24   C36   A    
C7    O15   A    
O76   H46   S    
C56   C68   A    
C91   H19   S    
Cu9   O35   S    
C99   C109  A    
C101  H29   S    
C97   C109  A    
C122  O51   D    
C121  O50   S    
C17   C25   A    
C55   C67   A    
C15   O45   A    
C46   C110  S    
C32   H56   S    
Cu11  Cu12  S    
C93   C107  A    
C83   H11   S    
C94   H22   S    
C83   C117  A    
C104  H32   S    
C68   C132  S    
C75   H3    S    
C81   C97   A    
C53   C65   A    
C78   C94   A    
C47   C111  S    
C74   C90   A    
C74   H2    S    
C12   C19   S    
C1    O5    A    
C124  O56   S    
C129  O66   S    
Cu1   O1    S    
C40   H64   S    
C95   H23   S    
Cu4   O8    S    
C12   O40   A    
C122  O52   S    
C23   C35   A    
C11   O35   A    
Cu1   Cu3   S    
C36   H60   S    
C67   C131  S    
C13   O47   A    
C73   C89   A    
C42   C106  S    
C4    O4    A    
C92   H20   S    
C46   O28   A    
C21   C37   A    
C86   H14   S    
C29   H53   S    
C131  O70   S    
C89   C105  A    
C52   C62   A    
Cu5   Cu7   S    
C84   H12   S    
C41   O19   A    
C86   C120  A    
Cu8   O28   S    
C85   H13   S    
C127  O61   D    
Cu11  O42   S    
C1    C49   S    
C44   O22   A    
C23   C39   A    
Cu9   O33   S    
Cu10  O39   S    
O64   H40   S    
O66   H41   S    
C2    O8    A    
C90   C106  A    
C39   C71   A    
C86   C102  A    
