data_mof_unit_56313.cif
_audit_creation_date              2013-03-05T15:50:32-0500
_audit_creation_method            fapswitch 2.2
_symmetry_space_group_name_H-M    P1
_symmetry_Int_Tables_number       1
_space_group_crystal_system       triclinic
_cell_length_a                    19.536079
_cell_length_b                    7.445914
_cell_length_c                    17.673571
_cell_angle_alpha                 89.770791
_cell_angle_beta                  108.162259
_cell_angle_gamma                 89.660275
_cell_volume                      2442.69163525

loop_
_atom_site_label
_atom_site_type_symbol
_atom_site_description
_atom_site_fract_x
_atom_site_fract_y
_atom_site_fract_z
_atom_type_partial_charge
O1    O     O_R   0.562310 0.505770 0.439670 -0.586863
O2    O     O_R   0.437690 0.005770 0.560330 -0.595999
O3    O     O_R   0.411650 0.169150 0.405330 -0.546554
O4    O     O_R   0.588350 0.669150 0.594670 -0.557099
C1    C     C_R   0.388288 0.346908 0.379483 0.961011
C2    C     C_R   0.613088 0.847103 0.618073 0.903094
O5    O     O_R   0.560140 0.175610 0.430010 -0.569564
O6    O     O_R   0.439860 0.675610 0.569990 -0.563607
O7    O     O_R   0.587240 0.012100 0.585200 -0.485067
O8    O     O_R   0.412760 0.512100 0.414800 -0.479562
C3    C     C_R   0.578655 0.343820 0.413014 0.972012
C4    C     C_R   0.420206 0.845974 0.585898 0.940596
O9    O     O_3   0.508720 0.341420 0.550890 -0.236857
O10   O     O_3   0.491280 0.841420 0.449110 -0.232596
V1    V     V_3+5 0.498380 0.063930 0.490560 1.352242
V2    V     V_3+5 0.501620 0.563930 0.509440 1.352780
C5    C     C_R   0.197573 0.009947 0.892482 -0.144476
C6    C     C_R   0.826343 0.268570 0.128871 -0.095524
C7    C     C_R   0.132330 0.914939 0.869207 -0.265534
C8    C     C_R   0.870034 0.420223 0.134632 -0.317651
C9    C     C_R   0.116475 0.806102 0.800874 0.287728
C10   C     C_R   0.862521 0.562999 0.184532 0.309595
C11   C     C_R   0.165080 0.793355 0.756189 0.001168
C12   C     C_R   0.812174 0.550272 0.227343 -0.019190
C13   C     C_R   0.230377 0.888894 0.779957 0.004715
C14   C     C_R   0.768819 0.396111 0.220486 0.012944
C15   C     C_R   0.246482 0.997477 0.848314 0.126645
C16   C     C_R   0.775847 0.256750 0.170181 0.104113
C17   C     C_R   0.146859 0.697382 0.684563 -0.143875
C18   C     C_R   0.803838 0.690672 0.276235 -0.155861
C19   C     C_R   0.190371 0.701779 0.635531 -0.095719
C20   C     C_R   0.755962 0.677840 0.320103 -0.046157
C21   C     C_R   0.259485 0.778117 0.662917 0.092282
C22   C     C_R   0.713382 0.522633 0.315302 0.100377
C23   C     C_R   0.278087 0.880824 0.733406 0.056367
C24   C     C_R   0.718593 0.381498 0.263841 0.056557
C25   C     C_R   0.340969 0.987002 0.753448 0.037504
C26   C     C_R   0.674130 0.226697 0.255534 0.038431
C27   C     C_R   0.358227 0.088644 0.825256 -0.030587
C28   C     C_R   0.679879 0.092381 0.199608 -0.024840
C29   C     C_R   0.311053 0.093095 0.871153 -0.191883
C30   C     C_R   0.731239 0.107835 0.159890 -0.189056
C31   C     C_R   0.309373 0.757860 0.620622 -0.202464
C32   C     C_R   0.666465 0.506184 0.361082 -0.186437
C33   C     C_R   0.371747 0.862602 0.637869 -0.190157
C34   C     C_R   0.624516 0.352525 0.358215 -0.151131
C35   C     C_R   0.381422 0.995165 0.698554 -0.078735
C36   C     C_R   0.627399 0.212703 0.304045 -0.068318
H1    H     H_    0.210266 0.093293 0.945176 0.157881
H2    H     H_    0.830538 0.159164 0.090659 0.226114
H3    H     H_    0.095772 0.629055 0.662684 0.202680
H4    H     H_    0.834572 0.813035 0.280710 0.192474
H5    H     H_    0.297458 0.666142 0.571587 0.209212
H6    H     H_    0.663975 0.612985 0.401531 0.146819
H7    H     H_    0.324806 0.172490 0.925125 0.158281
H8    H     H_    0.735735 0.002838 0.119147 0.164291
C37   C     C_3   0.751446 0.792863 0.838457 -0.228058
C38   C     C_3   0.227378 0.230626 0.176202 -0.273858
H9    H     H_    0.727324 0.872265 0.876269 0.159889
H10   H     H_    0.224812 0.220053 0.112746 0.177769
C39   C     C_3   0.684791 0.747672 0.763175 0.158393
C40   C     C_3   0.309920 0.232840 0.230725 0.114569
C41   C     C_3   0.826001 0.842732 0.735846 0.077954
C42   C     C_3   0.170675 0.384868 0.272072 0.036939
C43   C     C_3   0.768830 0.095827 0.799933 -0.000505
C44   C     C_3   0.236038 0.568939 0.188524 0.025819
C45   C     C_3   0.809739 0.910888 0.816342 -0.385222
C46   C     C_3   0.185382 0.404416 0.187588 -0.421596
H11   H     H_    0.807028 0.188897 0.786372 0.184340
H12   H     H_    0.204182 0.679635 0.198320 0.137992
C47   C     C_3   0.684913 0.874740 0.689545 -0.530517
C48   C     C_3   0.316876 0.370849 0.305551 -0.534746
C49   C     C_3   0.753181 0.831970 0.659309 0.051434
C50   C     C_3   0.248176 0.346119 0.339836 0.099522
C51   C     C_3   0.694856 0.078706 0.725281 0.469362
C52   C     C_3   0.310321 0.567053 0.263267 0.443811
O11   O     O_R   0.087220 0.271820 0.085230 -0.591475
O12   O     O_R   0.912780 0.771820 0.914770 -0.564003
O13   O     O_R   0.939860 0.595540 0.069990 -0.577447
O14   O     O_R   0.060140 0.095540 0.930010 -0.595607
C53   C     C_R   0.920786 0.427371 0.086108 0.993035
C54   C     C_R   0.081324 0.926852 0.916718 0.953377
O15   O     O_R   0.088340 0.601930 0.094680 -0.595758
O16   O     O_R   0.911660 0.101930 0.905320 -0.566813
O17   O     O_R   0.062310 0.765410 0.939660 -0.537518
O18   O     O_R   0.937690 0.265410 0.060340 -0.534744
C55   C     C_R   0.114467 0.430336 0.116981 1.018167
C56   C     C_R   0.883388 0.931785 0.885304 0.969158
O19   O     O_3   0.991270 0.429630 0.949130 -0.248585
O20   O     O_3   0.008730 0.929630 0.050870 -0.273928
V3    V     V_3+5 0.001620 0.707150 0.009440 1.321122
V4    V     V_3+5 0.998380 0.207150 0.990560 1.317274
C57   C     C_1   0.616496 0.767262 0.784274 0.190419
N1    N     N_1   0.563295 0.776599 0.800057 -0.036410
C58   C     C_1   0.352468 0.284566 0.177196 0.298934
N2    N     N_1   0.386535 0.314197 0.135425 -0.004177
N3    N     N_R   0.686723 0.561389 0.741772 0.253883
O21   O     O_R   0.628590 0.466556 0.727097 -0.308458
O22   O     O_R   0.747847 0.481252 0.753330 -0.370856
N4    N     N_R   0.338902 0.051765 0.252192 0.255410
O23   O     O_R   0.308403 0.927693 0.202493 -0.375182
O24   O     O_R   0.408506 0.032310 0.282416 -0.344376
N5    N     N_R   0.865576 0.668368 0.744109 0.271713
O25   O     O_R   0.877418 0.563163 0.805620 -0.304511
O26   O     O_R   0.886286 0.610641 0.685205 -0.288347
N6    N     N_R   0.116096 0.246681 0.273910 0.221328
O27   O     O_R   0.055637 0.240126 0.216020 -0.405314
O28   O     O_R   0.113948 0.183562 0.341947 -0.331105
C59   C     C_1   0.742835 0.659066 0.616753 0.411354
N7    N     N_1   0.734511 0.534704 0.576179 0.024768
C60   C     C_1   0.255665 0.163521 0.373891 0.307300
N8    N     N_1   0.263051 0.031245 0.409822 0.035014
N9    N     N_R   0.758997 0.176751 0.872983 0.274917
O29   O     O_R   0.790716 0.113219 0.944100 -0.454578
O30   O     O_R   0.720198 0.320482 0.867998 -0.315214
N10   N     N_R   0.241180 0.611362 0.108251 0.286642
O31   O     O_R   0.253645 0.488642 0.062090 -0.424163
O32   O     O_R   0.219081 0.767531 0.076219 -0.371361
N11   N     N_R   0.629302 0.126068 0.749063 0.252532
O33   O     O_R   0.568215 0.162716 0.695922 -0.349218
O34   O     O_R   0.626219 0.105164 0.821092 -0.383232
N12   N     N_R   0.376324 0.607717 0.239395 0.242682
O35   O     O_R   0.440554 0.591569 0.290140 -0.399048
O36   O     O_R   0.373252 0.666118 0.168902 -0.296574
N13   N     N_R   0.702486 0.207081 0.663214 0.269251
O37   O     O_R   0.765702 0.243981 0.657192 -0.386477
O38   O     O_R   0.648228 0.293799 0.615347 -0.277648
N14   N     N_R   0.305115 0.708445 0.320003 0.260433
O39   O     O_R   0.243675 0.763274 0.324181 -0.482588
O40   O     O_R   0.360997 0.797641 0.361066 -0.259083
C61   C     C_1   0.877207 0.978690 0.723495 0.278028
N15   N     N_1   0.916922 0.085974 0.714962 0.045008
C62   C     C_1   0.134278 0.551109 0.285912 0.328029
N16   N     N_1   0.104410 0.678452 0.296628 0.041579
N17   N     N_R   0.047057 0.726689 0.770910 0.214356
O41   O     O_R   0.035601 0.570399 0.797607 -0.326309
O42   O     O_R   0.003796 0.786093 0.703662 -0.381174
N18   N     N_R   0.906804 0.719132 0.193692 0.234885
O43   O     O_R   0.885880 0.852152 0.143754 -0.405889
O44   O     O_R   0.956946 0.745785 0.260935 -0.369451
N19   N     N_R   0.757570 0.948020 0.592178 0.240557
O45   O     O_R   0.815439 0.940709 0.570302 -0.355558
O46   O     O_R   0.698924 0.997783 0.537129 -0.399672
N20   N     N_R   0.249774 0.452291 0.411398 0.232291
O47   O     O_R   0.202325 0.415800 0.446943 -0.406266
O48   O     O_R   0.304082 0.547757 0.451033 -0.398682
C63   C     C_1   0.154162 0.674196 0.551986 0.260069
N21   N     N_1   0.122277 0.659214 0.485203 0.029315
C64   C     C_1   0.751625 0.830609 0.368201 0.132370
N22   N     N_1   0.748915 0.955455 0.405791 0.021611
C65   C     C_1   0.415205 0.163758 0.691219 0.212951
N23   N     N_1   0.439348 0.302555 0.685005 0.004819
C66   C     C_1   0.585084 0.052558 0.301643 0.163864
N24   N     N_1   0.552006 0.923564 0.300590 0.032439
C67   C     C_1   0.426087 0.180494 0.857103 0.126104
N25   N     N_1   0.480415 0.253869 0.882885 -0.015033
C68   C     C_1   0.633929 0.937128 0.177717 0.081769
N26   N     N_1   0.597668 0.812127 0.159284 -0.040837
C69   C     C_1   0.781020 0.653166 0.898270 0.403290
N27   N     N_1   0.806086 0.551419 0.948910 -0.032646
C70   C     C_1   0.185724 0.071571 0.185682 0.398599
N28   N     N_1   0.149096 0.954248 0.191016 -0.005177

loop_
_geom_bond_atom_site_label_1
_geom_bond_atom_site_label_2
_geom_bond_distance
_ccdc_geom_bond_type
C38   C40   1.600255 S    
O15   C55   1.382443 A    
C36   C66   1.448207 S    
O11   V4    2.061454 S    
O4    V2    2.046398 S    
C68   N26   1.157851 T    
C48   C50   1.646657 S    
C44   C46   1.576274 S    
C58   N2    1.159034 T    
O1    C3    1.368132 A    
C48   C52   1.624350 S    
O2    C4    1.353996 A    
N14   O39   1.289370 A    
C2    O7    1.380552 A    
N3    O21   1.297310 A    
O17   V3    2.007053 S    
N17   O41   1.300576 A    
C27   C29   1.405088 A    
C49   N19   1.489209 S    
O5    C3    1.363768 A    
C45   C56   1.578229 S    
C57   N1    1.158840 T    
C44   N10   1.486016 S    
C11   C17   1.403273 A    
C7    C9    1.410245 A    
C12   C14   1.413630 A    
C1    C48   1.595051 S    
N19   O46   1.301407 A    
C39   C57   1.499596 S    
C37   H9    1.101998 S    
N6    O27   1.300741 A    
C38   H10   1.110029 S    
N10   O31   1.298844 A    
C29   H7    1.085442 S    
C18   H4    1.083662 S    
C63   N21   1.156313 T    
C30   H8    1.086530 S    
O12   C56   1.349112 A    
C31   H5    1.073534 S    
C20   C64   1.440552 S    
C60   N8    1.153408 T    
C40   C58   1.491782 S    
C43   C45   1.567910 S    
C65   N23   1.157473 T    
C19   C21   1.408660 A    
C41   C61   1.489825 S    
C25   C35   1.430939 A    
C7    C54   1.492331 S    
O13   V3    2.025162 S    
C53   O18   1.365358 A    
C19   C63   1.440749 S    
C39   C47   1.606459 S    
N11   O34   1.301828 A    
C37   C69   1.461703 S    
O6    V2    2.023015 S    
C26   C28   1.437208 A    
C8    C53   1.500575 S    
C43   N9    1.492066 S    
C37   C45   1.583860 S    
N3    O22   1.289263 A    
C32   C34   1.403182 A    
C70   N28   1.154490 T    
C34   C36   1.429866 A    
N12   O35   1.299650 A    
C33   C35   1.429893 A    
C2    C47   1.583467 S    
C41   C45   1.633401 S    
C5    C15   1.412612 A    
C28   C68   1.446110 S    
C6    C16   1.401242 A    
N20   O48   1.292759 A    
C5    H1    1.084615 S    
C50   C60   1.472536 S    
O13   C53   1.362637 A    
C4    C33   1.515532 S    
C41   N5    1.490240 S    
O5    V1    2.025381 S    
C41   C49   1.631736 S    
C21   C31   1.408795 A    
C27   C67   1.445936 S    
C51   N13   1.494812 S    
C20   C22   1.415240 A    
O14   V4    2.022807 S    
C18   C20   1.391975 A    
C15   C29   1.398790 A    
C28   C30   1.397339 A    
C69   N27   1.153998 T    
O6    C4    1.378399 A    
C44   C52   1.629632 S    
N4    O24   1.303669 A    
C40   C48   1.650388 S    
N5    O26   1.302426 A    
O1    V2    2.005847 S    
O19   V4    1.795496 S    
C42   N6    1.493657 S    
O2    V1    2.006746 S    
C31   C33   1.402720 A    
O11   C55   1.348290 A    
N18   O44   1.299899 A    
C13   C23   1.423741 A    
C40   N4    1.461261 S    
C14   C24   1.425154 A    
C35   C65   1.445721 S    
C9    C11   1.414687 A    
C62   N16   1.157232 T    
C52   N14   1.481536 S    
C10   C12   1.418938 A    
O4    C2    1.430972 A    
N12   O36   1.301392 A    
C61   N15   1.158522 T    
C42   C46   1.612265 S    
C67   N25   1.157560 T    
O3    V1    2.034051 S    
C6    H2    1.079132 S    
C47   C49   1.614410 S    
N9    O29   1.301454 A    
C17   H3    1.082327 S    
C38   C46   1.574973 S    
N17   O42   1.299096 A    
C22   C32   1.404492 A    
C50   N20   1.486340 S    
C42   C62   1.482574 S    
C23   C25   1.414965 A    
C26   C36   1.437959 A    
C39   N3    1.442528 S    
O16   C56   1.387538 A    
C8    C10   1.419790 A    
N20   O47   1.300923 A    
O3    C1    1.423669 A    
N14   O40   1.295437 A    
N11   O33   1.294630 A    
C37   C39   1.583594 S    
O12   V3    2.053503 S    
C13   C15   1.409274 A    
C54   O17   1.357455 A    
O15   V3    2.034020 S    
C10   N18   1.432579 S    
C14   C16   1.402805 A    
C43   C51   1.631046 S    
C52   N12   1.508327 S    
C24   C26   1.427716 A    
O7    V1    2.033946 S    
C1    O8    1.399342 A    
C17   C19   1.390678 A    
C51   N11   1.507497 S    
O8    V2    2.040381 S    
C64   N22   1.155249 T    
C47   C51   1.636406 S    
O20   V3    1.802408 S    
N13   O37   1.302976 A    
N6    O28   1.302189 A    
C43   H11   1.100380 S    
C16   C30   1.391490 A    
N4    O23   1.291025 A    
C21   C23   1.413349 A    
O14   C54   1.364147 A    
N10   O32   1.302087 A    
C6    C8    1.404342 A    
C49   C59   1.476501 S    
C11   C13   1.410273 A    
C12   C18   1.399641 A    
N18   O43   1.300137 A    
C5    C7    1.407268 A    
C32   H6    1.082393 S    
C44   H12   1.076515 S    
C22   C24   1.416330 A    
C25   C27   1.428653 A    
O9    V2    1.795847 S    
C59   N7    1.154345 T    
N5    O25   1.297392 A    
N13   O38   1.297946 A    
C46   C55   1.559138 S    
C42   C50   1.634489 S    
O10   V1    1.802759 S    
C3    C34   1.511960 S    
O18   V4    2.006144 S    
O16   V4    2.046364 S    
C66   N24   1.157787 T    
N19   O45   1.304801 A    
C38   C70   1.479090 S    
C9    N17   1.426026 S    
N9    O30   1.294463 A    
