data_mof_unit_32783.cif
_audit_creation_date              2012-12-10T17:16:11-0500
_audit_creation_method            fapswitch 2.2
_symmetry_space_group_name_H-M    P1
_symmetry_Int_Tables_number       1
_space_group_crystal_system       triclinic
_cell_length_a                    19.330065
_cell_length_b                    13.06364
_cell_length_c                    11.897586
_cell_angle_alpha                 101.963258
_cell_angle_beta                  93.274421
_cell_angle_gamma                 95.491466
_cell_volume                      2916.49815054

loop_
_atom_site_label
_atom_site_type_symbol
_atom_type_description
_atom_site_fract_x
_atom_site_fract_y
_atom_site_fract_z
_atom_type_partial_charge
C1    C     C_R   0.495507 0.298251 0.476353 0.798228
C2    C     C_R   0.504493 0.701749 0.523647 0.798227
C3    C     C_R   0.510277 0.817949 0.539059 -0.084225
C4    C     C_R   0.489723 0.182050 0.460941 -0.084225
C5    C     C_R   0.438010 0.002274 0.373656 0.034868
C6    C     C_R   0.561990 0.997726 0.626344 0.034868
C7    C     C_R   0.443102 0.111650 0.376840 0.111215
C8    C     C_R   0.556898 0.888350 0.623160 0.111215
C9    C     C_R   0.529445 0.142638 0.540149 -0.266562
C10   C     C_R   0.470555 0.857362 0.459851 -0.266562
C11   C     C_R   0.522866 0.035398 0.542208 0.056657
C12   C     C_R   0.477133 0.964602 0.457792 0.056657
C13   C     C_R   0.452674 0.375145 0.019912 0.088679
C14   C     C_R   0.547325 0.624855 0.980088 0.088679
C15   C     C_R   0.443823 0.402028 0.138749 0.329997
C16   C     C_R   0.556177 0.597972 0.861250 0.329997
C17   C     C_R   0.525077 0.553125 0.159146 0.311836
C18   C     C_R   0.474923 0.446875 0.840854 0.311835
C19   C     C_R   0.517337 0.546366 0.035832 -0.062361
C20   C     C_R   0.482663 0.453634 0.964168 -0.062361
C21   C     C_R   0.367891 0.500773 0.500664 0.789840
C22   C     C_R   0.632108 0.499227 0.499336 0.789840
C23   C     C_R   0.261224 0.570592 0.586588 0.154061
C24   C     C_R   0.738776 0.429408 0.413411 0.154061
C25   C     C_R   0.188532 0.567399 0.581874 -0.193052
C26   C     C_R   0.811468 0.432601 0.418126 -0.193052
C27   C     C_R   0.145929 0.496234 0.494870 0.006101
C28   C     C_R   0.854071 0.503766 0.505130 0.006101
C29   C     C_R   0.176961 0.427321 0.409093 0.192786
C30   C     C_R   0.823039 0.572679 0.590908 0.192786
C31   C     C_R   0.249668 0.430761 0.413857 -0.233110
C32   C     C_R   0.750332 0.569238 0.586143 -0.233109
C33   C     C_R   0.291993 0.500996 0.501541 -0.071583
C34   C     C_R   0.708007 0.499004 0.498459 -0.071583
C35   C     C_R   0.930207 0.502114 0.504169 0.420230
C36   C     C_R   0.069793 0.497886 0.495831 0.420231
Cu1   Cu    Cu3+1 0.505120 0.507730 0.615930 0.931023
Cu2   Cu    Cu3+1 0.494880 0.492270 0.384070 0.931023
H1    H     H_    0.164762 0.620378 0.647351 0.159558
H2    H     H_    0.835237 0.379622 0.352648 0.159558
H3    H     H_    0.273596 0.377209 0.349376 0.145729
H4    H     H_    0.726404 0.622791 0.650625 0.145729
H5    H     H_    0.434092 0.802066 0.399010 0.196747
H6    H     H_    0.565908 0.197934 0.600990 0.196747
N1    N     N_R   0.025828 0.407647 0.465731 -0.233208
N2    N     N_R   0.974172 0.592352 0.534269 -0.233208
N3    N     N_R   0.957328 0.409746 0.469241 -0.241184
N4    N     N_R   0.042672 0.590253 0.530759 -0.241184
N5    N     N_R   0.512830 0.519350 0.790130 -0.191726
N6    N     N_R   0.487170 0.480650 0.209870 -0.191726
O1    O     O_R   0.503640 0.354460 0.582000 -0.575833
O2    O     O_R   0.496360 0.645540 0.418000 -0.575833
O3    O     O_R   0.494980 0.341410 0.386200 -0.575127
O4    O     O_R   0.505020 0.658590 0.613800 -0.575127
O5    O     O_R   0.404470 0.506520 0.597930 -0.588421
O6    O     O_R   0.595530 0.493480 0.402070 -0.588421
O7    O     O_R   0.395820 0.493460 0.402130 -0.579341
O8    O     O_R   0.604180 0.506540 0.597870 -0.579341
C37   C     C_3   0.304490 0.650553 0.680289 -0.802757
H7    H     H_    0.343346 0.698359 0.641666 0.227964
H8    H     H_    0.271859 0.705325 0.731770 0.221295
H9    H     H_    0.331720 0.610091 0.740228 0.252092
C38   C     C_3   0.695510 0.349447 0.319711 -0.802757
H10   H     H_    0.656654 0.301641 0.358333 0.227964
H11   H     H_    0.668280 0.389909 0.259772 0.252092
H12   H     H_    0.728141 0.294675 0.268229 0.221295
C39   C     C_3   0.442505 0.258948 0.964268 -0.830951
H13   H     H_    0.447098 0.210482 0.030304 0.234885
H14   H     H_    0.390166 0.235516 0.917918 0.229619
H15   H     H_    0.484596 0.238357 0.906955 0.281981
C40   C     C_3   0.557494 0.741052 0.035732 -0.830951
H16   H     H_    0.552902 0.789518 0.969696 0.234885
H17   H     H_    0.515404 0.761642 0.093045 0.281981
H18   H     H_    0.609834 0.764484 0.082082 0.229619
C41   C     C_3   0.134506 0.352394 0.310199 -0.828527
H19   H     H_    0.168064 0.313904 0.244946 0.220637
H20   H     H_    0.104320 0.289274 0.342341 0.249848
H21   H     H_    0.098524 0.395672 0.266252 0.238992
C42   C     C_3   0.865494 0.647605 0.689802 -0.828527
H22   H     H_    0.831936 0.686095 0.755055 0.220637
H23   H     H_    0.901476 0.604327 0.733748 0.238992
H24   H     H_    0.895680 0.710725 0.657660 0.249848
C43   C     C_3   0.601368 0.846318 0.707038 -0.884754
H25   H     H_    0.633922 0.790576 0.657125 0.214204
H26   H     H_    0.637829 0.905858 0.767218 0.223440
H27   H     H_    0.566563 0.809421 0.761728 0.263151
C44   C     C_3   0.398632 0.153682 0.292962 -0.884755
H28   H     H_    0.366078 0.209424 0.342875 0.214205
H29   H     H_    0.433437 0.190579 0.238272 0.263151
H30   H     H_    0.362171 0.094142 0.232782 0.223440
C45   C     C_2   0.391285 0.927849 0.283026 0.326118
H31   H     H_    0.335776 0.934698 0.276291 0.075693
O9    O     O_2   0.414992 0.859837 0.214129 -0.555949
C46   C     C_2   0.608715 0.072151 0.716974 0.326118
H32   H     H_    0.664224 0.065302 0.723709 0.075693
O10   O     O_2   0.585008 0.140163 0.785871 -0.555949
C47   C     C_3   0.421429 0.362766 0.769640 -0.747626
H33   H     H_    0.403954 0.375732 0.686254 0.257866
H34   H     H_    0.442532 0.285716 0.751108 0.232307
H35   H     H_    0.372811 0.358638 0.814537 0.195092
C48   C     C_3   0.578571 0.637234 0.230360 -0.747626
H36   H     H_    0.596046 0.624268 0.313746 0.257866
H37   H     H_    0.627189 0.641362 0.185463 0.195092
H38   H     H_    0.557468 0.714284 0.248892 0.232307
C49   C     C_3   0.623122 0.639047 0.820829 -0.836141
H39   H     H_    0.650115 0.709674 0.881276 0.215354
H40   H     H_    0.658856 0.576705 0.811844 0.232956
H41   H     H_    0.613653 0.658673 0.737318 0.261390
C50   C     C_3   0.376878 0.360953 0.179171 -0.836142
H42   H     H_    0.341144 0.423295 0.188156 0.232956
H43   H     H_    0.349885 0.290326 0.118724 0.215354
H44   H     H_    0.386347 0.341327 0.262682 0.261390

loop_
_geom_bond_atom_site_label_1
_geom_bond_atom_site_label_2
_ccdc_geom_bond_type
C44   H28   S    
C38   H11   S    
C48   H36   S    
C27   C29   A    
C8    C43   S    
C14   C40   S    
C15   C50   S    
C19   C20   A    
C35   N3    A    
C42   H24   S    
C47   H33   S    
C21   O5    A    
C23   C37   S    
C49   H40   S    
C24   C26   A    
C50   H43   S    
Cu1   O1    S    
Cu2   O2    S    
C26   H2    S    
C15   N6    A    
C41   H20   S    
C1    O3    A    
C17   C48   S    
C7    C44   S    
C28   C35   S    
C37   H9    S    
C31   C33   A    
C18   C47   S    
Cu1   O8    S    
C9    C11   A    
C38   H12   S    
C37   H7    S    
C48   H37   S    
C4    C7    A    
C10   C12   A    
C47   H34   S    
N1    N3    A    
C22   C34   S    
C49   H41   S    
N2    N4    A    
C37   H8    S    
C39   H13   S    
C16   N5    A    
C5    C12   A    
C3    C8    A    
C2    O4    A    
C50   H44   S    
C6    C11   A    
C42   H23   S    
C22   O6    A    
C23   C33   A    
C24   C34   A    
C38   H10   S    
C39   H14   S    
C32   C34   A    
C41   H19   S    
C21   O7    A    
Cu1   Cu2   S    
C45   O9    D    
Cu2   O7    S    
Cu1   N5    S    
C43   H25   S    
Cu2   O6    S    
C36   N1    A    
C46   O10   D    
C1    O1    A    
C5    C45   S    
C2    O2    A    
C16   C49   S    
Cu2   N6    S    
Cu1   O4    S    
C43   H26   S    
C24   C38   S    
C13   C15   A    
C14   C16   A    
C25   C27   A    
C30   C42   S    
C45   H31   S    
C47   H35   S    
C5    C7    A    
C13   C39   S    
C9    H6    S    
C31   H3    S    
C13   C20   A    
C10   H5    S    
C14   C19   A    
C17   N6    A    
C22   O8    A    
C40   H18   S    
C6    C8    A    
C11   C12   A    
C29   C41   S    
C27   C36   S    
C48   H38   S    
C49   H39   S    
C26   C28   A    
C39   H15   S    
C1    C4    S    
C28   C30   A    
C2    C3    S    
C40   H16   S    
C29   C31   A    
C3    C10   A    
C50   H42   S    
C25   H1    S    
C30   C32   A    
C6    C46   S    
Cu2   O3    S    
C17   C19   A    
C36   N4    A    
C18   C20   A    
C23   C25   A    
C46   H32   S    
C41   H21   S    
C42   H22   S    
Cu1   O5    S    
C43   H27   S    
C21   C33   S    
C44   H30   S    
C40   H17   S    
C44   H29   S    
C32   H4    S    
C4    C9    A    
C35   N2    A    
C18   N5    A    
