data_mof_unit_32809.cif
_audit_creation_date              2013-03-05T15:44:20-0500
_audit_creation_method            fapswitch 2.2
_symmetry_space_group_name_H-M    P1
_symmetry_Int_Tables_number       1
_space_group_crystal_system       triclinic
_cell_length_a                    23.51933
_cell_length_b                    10.924796
_cell_length_c                    9.692567
_cell_angle_alpha                 90.565277
_cell_angle_beta                  90.072961
_cell_angle_gamma                 90.071851
_cell_volume                      2490.32057249

loop_
_atom_site_label
_atom_site_type_symbol
_atom_site_description
_atom_site_fract_x
_atom_site_fract_y
_atom_site_fract_z
_atom_type_partial_charge
O1    O     O_R   0.500010 0.321960 0.617040 -0.552830
O2    O     O_R   0.499990 0.321920 0.382900 -0.545643
C1    C     C_R   0.499992 0.265164 0.499037 0.874907
O3    O     O_R   0.417890 0.499980 0.617100 -0.567160
O4    O     O_R   0.417870 0.499940 0.382950 -0.588853
C2    C     C_R   0.390936 0.499724 0.499981 0.770239
Cu1   Cu    Cu3+1 0.500010 0.500020 0.638630 1.071772
Cu2   Cu    Cu3+1 0.499990 0.499980 0.361370 0.987306
O5    O     O_R   0.500010 0.678080 0.617100 -0.525455
O6    O     O_R   0.499990 0.678040 0.382960 -0.565810
O7    O     O_R   0.582130 0.500060 0.617050 -0.562612
O8    O     O_R   0.582110 0.500020 0.382900 -0.586001
C3    C     C_R   0.500881 0.734693 0.500712 0.882918
C4    C     C_R   0.609076 0.499823 0.500036 0.799682
C5    C     C_R   0.880987 0.596497 0.473849 0.553378
N1    N     N_R   0.851912 0.491037 0.499857 -0.479061
C6    C     C_R   0.879395 0.383437 0.526251 0.596419
C7    C     C_R   0.939564 0.377980 0.525258 -0.179055
C8    C     C_R   0.970063 0.487137 0.500510 -0.050422
C9    C     C_R   0.940472 0.597034 0.474254 -0.001973
C10   C     C_R   0.970063 0.268449 0.550408 0.255585
C11   C     C_R   0.029914 0.269139 0.554444 0.258619
C12   C     C_R   0.060561 0.378467 0.528697 -0.177813
C13   C     C_R   0.030212 0.487333 0.501934 -0.050200
C14   C     C_R   0.059956 0.597293 0.476286 -0.001999
C15   C     C_R   0.029823 0.705407 0.450468 -0.113041
C16   C     C_R   0.970766 0.705292 0.449490 -0.110241
C17   C     C_R   0.120737 0.383039 0.525741 0.590769
N2    N     N_R   0.148299 0.490924 0.501166 -0.479356
C18   C     C_R   0.119435 0.596801 0.476941 0.551538
O9    O     O_2   0.852245 0.700881 0.448947 -0.494982
O10   O     O_2   0.848232 0.282949 0.553804 -0.453565
O11   O     O_2   0.151837 0.281045 0.545229 -0.467539
O12   O     O_2   0.148387 0.701330 0.453589 -0.502461
H1    H     H_    0.051778 0.790681 0.430797 0.227266
H2    H     H_    0.948945 0.790552 0.429330 0.226330
C19   C     C_R   0.238734 0.488115 0.375580 -0.097806
H3    H     H_    0.215708 0.482070 0.278932 0.141035
C20   C     C_R   0.298016 0.490478 0.375070 -0.207621
H4    H     H_    0.320023 0.485848 0.277069 0.153803
C21   C     C_R   0.328327 0.498338 0.500007 -0.038533
C22   C     C_R   0.298228 0.504055 0.625163 -0.217427
H5    H     H_    0.320374 0.510839 0.722896 0.163779
C23   C     C_R   0.238996 0.500909 0.625375 -0.104202
H6    H     H_    0.216201 0.504987 0.722306 0.140848
C24   C     C_R   0.209168 0.493102 0.500682 0.353868
C25   C     C_R   0.761205 0.487728 0.624738 -0.089068
H7    H     H_    0.784090 0.481429 0.721416 0.150982
C26   C     C_R   0.701928 0.490343 0.624981 -0.185141
H8    H     H_    0.679845 0.485607 0.722760 0.176652
C27   C     C_R   0.671708 0.498414 0.500125 -0.042012
C28   C     C_R   0.701912 0.504280 0.375245 -0.190033
H9    H     H_    0.679824 0.510624 0.277481 0.169307
C29   C     C_R   0.761182 0.502031 0.375370 -0.086219
H10   H     H_    0.784047 0.506480 0.278642 0.149903
C30   C     C_R   0.790966 0.493517 0.500002 0.336082
C31   C     C_2   0.506306 0.930769 0.386716 -0.240577
C32   C     C_2   0.504119 0.866795 0.503687 -0.357941
H11   H     H_    0.507235 0.882615 0.288314 0.191153
H12   H     H_    0.506916 0.909759 0.604354 0.162236
C33   C     C_2   0.510572 0.065454 0.384601 0.484528
C34   C     C_2   0.496503 0.132774 0.496869 -0.394535
H13   H     H_    0.479119 0.092049 0.589036 0.116288
C35   C     C_2   0.466654 0.428887 0.921238 0.542944
N3    N     N_2   0.499380 0.498660 0.846910 -0.083438
C36   C     C_2   0.460938 0.445876 0.077662 -0.149799
N4    N     N_2   0.499370 0.498630 0.153040 -0.261043
H14   H     H_    0.424331 0.408363 0.130053 0.129874
H15   H     H_    0.537823 0.517086 0.107370 0.230248
N5    N     N_R   0.941043 0.154767 0.571892 0.190273
O13   O     O_R   0.943137 0.102661 0.691893 -0.271809
O14   O     O_R   0.920080 0.094825 0.466874 -0.273757
O15   O     O_3   0.534624 0.121770 0.270547 -0.576771
C37   C     C_3   0.501988 0.100299 0.149707 0.046774
H16   H     H_    0.488716 0.190537 0.109181 0.173605
H17   H     H_    0.462075 0.046863 0.166093 0.119098
C38   C     C_3   0.539012 0.036630 0.041162 -0.307665
H18   H     H_    0.577244 0.093602 0.020900 0.235777
H19   H     H_    0.553424 0.946624 0.080342 0.240876
C39   C     C_3   0.506770 0.016651 0.906219 -0.846217
H20   H     H_    0.468407 0.959409 0.923355 0.277143
H21   H     H_    0.534898 0.968935 0.831359 0.270759
H22   H     H_    0.493829 0.105764 0.862061 0.267926
O16   O     O_3   0.441614 0.329373 0.854099 -0.608160
C40   C     C_3   0.386284 0.304784 0.902619 -0.011852
H23   H     H_    0.361654 0.390859 0.919381 0.137626
H24   H     H_    0.388657 0.252074 0.000063 0.131730
C41   C     C_3   0.355341 0.226084 0.794995 -0.323595
H25   H     H_    0.355825 0.273093 0.693865 0.228492
H26   H     H_    0.377844 0.137201 0.782635 0.218492
C42   C     C_3   0.293827 0.202119 0.836783 -0.817690
H27   H     H_    0.292336 0.153194 0.936656 0.255121
H28   H     H_    0.272707 0.144599 0.756696 0.283286
H29   H     H_    0.270222 0.289786 0.846640 0.253546
N6    N     N_R   0.511260 0.615064 0.899752 0.187859
O17   O     O_R   0.561002 0.663014 0.877558 -0.354790
O18   O     O_R   0.470048 0.686038 0.941023 -0.386974
N7    N     N_R   0.058784 0.157177 0.585273 0.193752
O19   O     O_R   0.080089 0.141050 0.707687 -0.275250
O20   O     O_R   0.056350 0.065376 0.498942 -0.296395

loop_
_geom_bond_atom_site_label_1
_geom_bond_atom_site_label_2
_geom_bond_distance
_ccdc_geom_bond_type
C36   H14   1.082319 S    
C11   N7    1.433613 S    
C7    C10   1.418905 A    
C21   C22   1.406203 A    
N6    O17   1.300240 A    
Cu1   Cu2   2.687355 S    
C20   C21   1.406268 A    
C38   H18   1.111750 S    
C23   H6    1.082872 S    
Cu1   O7    1.942965 S    
C15   C16   1.389005 A    
N2    C18   1.364121 A    
C37   H17   1.117181 S    
C17   N2    1.367522 A    
C19   H3    1.082858 S    
O3    Cu1   1.942381 S    
C4    C27   1.473164 S    
O4    C2    1.299957 A    
O7    C4    1.299912 A    
C31   H11   1.084941 S    
C42   H28   1.110316 S    
C32   H12   1.080463 S    
C5    N1    1.364827 A    
C7    C8    1.413552 A    
O15   C37   1.416982 S    
O5    C3    1.292036 A    
C35   O16   1.391291 S    
C8    C9    1.413590 A    
C23   C24   1.398491 A    
N1    C6    1.368396 A    
C26   C27   1.406256 A    
C37   C38   1.529160 S    
C12   C13   1.413888 A    
N5    O13   1.300883 A    
C38   H19   1.110786 S    
C36   N4    1.292932 D    
C10   C11   1.408155 A    
C22   C23   1.393482 A    
C39   H22   1.110060 S    
C28   C29   1.394254 A    
C40   H24   1.112400 S    
C5    C9    1.399071 A    
C29   C30   1.399591 A    
C37   H16   1.109819 S    
C18   O12   1.350007 S    
C27   C28   1.406208 A    
C13   C14   1.413688 A    
O3    C2    1.299477 A    
C20   H4    1.083095 S    
C3    C32   1.445099 S    
C33   O15   1.390946 S    
C14   C15   1.402643 A    
C40   H23   1.115707 S    
C2    C21   1.472576 S    
O1    C1    1.295826 A    
C35   C36   1.531748 S    
N1    C30   1.433682 S    
C34   H13   1.082348 S    
Cu1   N3    2.019042 S    
C25   H7    1.082876 S    
C41   C42   1.525901 S    
Cu2   O8    1.942385 S    
C6    C7    1.416510 A    
C12   C17   1.416452 A    
O16   C40   1.410659 S    
C31   C33   1.475041 S    
C39   H21   1.109276 S    
C41   H26   1.111985 S    
C17   O11   1.348373 S    
C26   H8    1.082947 S    
N7    O20   1.300940 A    
C22   H5    1.082306 S    
C42   H27   1.110964 S    
C28   H9    1.082922 S    
C40   C41   1.528332 S    
C1    C34   1.448508 S    
C14   C18   1.398930 A    
Cu1   O5    1.958475 S    
C29   H10   1.082890 S    
O1    Cu1   1.954440 S    
O2    Cu2   1.958475 S    
O8    C4    1.299797 A    
C39   H20   1.110734 S    
O6    C3    1.293089 A    
O4    Cu2   1.942965 S    
N6    O18   1.302877 A    
C5    O9    1.350037 S    
C9    C16   1.402834 A    
C16   H2    1.083367 S    
C25   C26   1.394470 A    
N2    C24   1.431783 S    
C10   N5    1.433534 S    
C35   N3    1.305100 D    
O2    C1    1.290481 A    
C19   C20   1.394503 A    
C42   H29   1.110986 S    
C38   C39   1.524738 S    
C31   C32   1.338724 D    
C8    C13   1.414699 A    
C33   C34   1.349157 D    
C15   H1    1.083244 S    
N3    N6    1.394092 S    
C41   H25   1.111142 S    
Cu2   N4    2.019196 S    
Cu2   O6    1.954439 S    
N7    O19   1.301060 A    
C6    O10   1.348314 S    
C11   C12   1.418650 A    
N5    O14   1.301064 A    
N4    H15   1.028037 S    
C19   C24   1.399203 A    
C25   C30   1.399725 A    
