data_mof_unit_28886.cif
_audit_creation_date              2012-12-10T17:22:42-0500
_audit_creation_method            fapswitch 2.2
_symmetry_space_group_name_H-M    P1
_symmetry_Int_Tables_number       1
_space_group_crystal_system       triclinic
_cell_length_a                    10.724951
_cell_length_b                    10.863288
_cell_length_c                    9.603032
_cell_angle_alpha                 90.423005
_cell_angle_beta                  90.517879
_cell_angle_gamma                 100.168227
_cell_volume                      1101.16870965

loop_
_atom_site_label
_atom_site_type_symbol
_atom_type_description
_atom_site_fract_x
_atom_site_fract_y
_atom_site_fract_z
_atom_type_partial_charge
C1    C     C_R   0.486312 0.260911 0.499233 0.768058
C2    C     C_3   0.954283 0.490668 0.364828 -0.297834
C3    C     C_3   0.011029 0.380579 0.426589 -0.258123
C4    C     C_3   0.118581 0.477286 0.496196 -0.099631
C5    C     C_R   0.343011 0.097502 0.721376 0.203145
C6    C     C_R   0.338812 0.045329 0.854424 -0.181917
C7    C     C_R   0.397568 0.943647 0.879696 -0.210042
C8    C     C_R   0.446955 0.884205 0.769254 -0.182900
C9    C     C_R   0.449580 0.933537 0.632310 0.072551
C10   C     C_R   0.420386 0.054726 0.618683 0.108765
C11   C     C_R   0.460318 0.123600 0.497842 -0.112478
C12   C     C_R   0.257760 0.487011 0.498957 0.814701
C13   C     C_R   0.480747 0.059421 0.376253 -0.233909
C14   C     C_R   0.477156 0.931697 0.379496 -0.221961
C15   C     C_R   0.474489 0.868866 0.507332 -0.113477
C16   C     C_R   0.694571 0.679954 0.138652 0.470840
C17   C     C_R   0.788380 0.746030 0.052066 -0.278019
C18   C     C_R   0.772910 0.749803 0.911902 -0.339588
C19   C     C_R   0.676231 0.669784 0.848936 -0.168030
C20   C     C_R   0.589044 0.584621 0.924450 0.160299
C21   C     C_R   0.592612 0.586812 0.075421 0.100770
C22   C     C_R   0.414788 0.419444 0.072573 -0.073390
C23   C     C_R   0.490792 0.736437 0.502050 0.831266
C24   C     C_R   0.414932 0.419667 0.925164 -0.054725
C25   C     C_R   0.741388 0.503538 0.500271 0.837576
C26   C     C_3   0.039795 0.479532 0.629591 -0.237099
C27   C     C_3   0.931056 0.386005 0.559929 0.198167
C28   C     C_3   0.877499 0.496517 0.499595 -0.139690
C29   C     C_3   0.985679 0.589588 0.567330 0.114985
C30   C     C_3   0.062452 0.584643 0.434067 0.530075
Cu1   Cu    Cu3+1 0.499990 0.499990 0.640660 0.910057
Cu2   Cu    Cu3+1 0.500010 0.500010 0.359340 0.960382
H1    H     H_    0.396219 0.904723 0.983304 0.146007
H2    H     H_    0.483034 0.802214 0.797850 0.189214
H3    H     H_    0.487059 0.884187 0.281793 0.153910
H4    H     H_    0.344461 0.353610 0.126486 0.120096
H5    H     H_    0.872770 0.802848 0.093576 0.176722
H6    H     H_    0.838896 0.814314 0.851129 0.178476
H7    H     H_    0.675916 0.676413 0.738953 0.212636
H8    H     H_    0.344035 0.354706 0.869826 0.115032
H9    H     H_    0.075946 0.472674 0.737412 0.156019
H10   H     H_    0.913572 0.490323 0.258120 0.162412
H11   H     H_    0.023131 0.296935 0.364988 0.147083
H12   H     H_    0.500525 0.107791 0.278522 0.170229
H13   H     H_    0.285585 0.079686 0.937021 0.119217
N1    N     N_R   0.501210 0.501210 0.147910 -0.193551
N2    N     N_R   0.501250 0.501290 0.852040 -0.192850
O1    O     O_R   0.499990 0.319640 0.618810 -0.588439
O2    O     O_R   0.500000 0.319660 0.381240 -0.583828
O3    O     O_R   0.316850 0.499960 0.618770 -0.600128
O4    O     O_R   0.316860 0.499980 0.381190 -0.587642
O5    O     O_R   0.500000 0.680340 0.618760 -0.625016
O6    O     O_R   0.500010 0.680360 0.381190 -0.538913
O7    O     O_R   0.683140 0.500020 0.618810 -0.612143
O8    O     O_R   0.683150 0.500040 0.381230 -0.517075
C31   C     C_3   0.835162 0.285037 0.632765 -0.355623
C32   C     C_3   0.888357 0.172781 0.682193 -0.891147
H14   H     H_    0.901919 0.113216 0.591567 0.262596
H15   H     H_    0.977331 0.203596 0.741676 0.266434
H16   H     H_    0.819127 0.115890 0.751842 0.248229
H17   H     H_    0.797368 0.328472 0.724720 0.223312
H18   H     H_    0.754887 0.251435 0.560213 0.198449
O9    O     O_3   0.710743 0.706101 0.280735 -0.576818
C33   C     C_3   0.741275 0.837941 0.310962 0.049837
H19   H     H_    0.692742 0.856564 0.406452 0.137838
H20   H     H_    0.705694 0.896040 0.229325 0.144190
C34   C     C_3   0.881596 0.885039 0.348022 -0.387266
H21   H     H_    0.893040 0.899820 0.462120 0.197849
H22   H     H_    0.939473 0.815196 0.319632 0.238718
C35   C     C_3   0.932700 0.010416 0.279831 -0.939060
H23   H     H_    0.919430 0.005318 0.165134 0.253176
H24   H     H_    0.035495 0.037310 0.302472 0.257296
H25   H     H_    0.882992 0.083969 0.321721 0.262143
C36   C     C_3   0.976045 0.701222 0.659591 -0.449257
C37   C     C_3   0.104359 0.786150 0.679366 -0.771861
H26   H     H_    0.177715 0.731044 0.710568 0.271474
H27   H     H_    0.134319 0.835002 0.581184 0.287508
H28   H     H_    0.097586 0.856725 0.761837 0.233847
H29   H     H_    0.905510 0.753597 0.616186 0.183833
H30   H     H_    0.943267 0.663852 0.762366 0.222544
O10   O     O_3   0.141854 0.690359 0.377166 -0.625501
C38   C     C_3   0.122108 0.701848 0.232250 0.021097
H31   H     H_    0.152335 0.802093 0.206049 0.168266
H32   H     H_    0.021143 0.677618 0.200207 0.129607
C39   C     C_3   0.201415 0.625418 0.146842 -0.307133
H33   H     H_    0.303422 0.657429 0.171661 0.249821
H34   H     H_    0.174501 0.524698 0.171980 0.224179
C40   C     C_3   0.179538 0.641273 0.991510 -0.977120
H35   H     H_    0.079468 0.603169 0.963173 0.262112
H36   H     H_    0.242228 0.590602 0.930635 0.271386
H37   H     H_    0.200866 0.741708 0.964151 0.266468
C41   C     C_3   0.242887 0.173854 0.682411 -0.429965
C42   C     C_3   0.156351 0.110127 0.566357 -0.893486
H38   H     H_    0.208861 0.074360 0.480642 0.260508
H39   H     H_    0.087598 0.032015 0.609113 0.266278
H40   H     H_    0.104464 0.178903 0.520386 0.254871
H41   H     H_    0.183904 0.186806 0.773918 0.180532
H42   H     H_    0.283581 0.268355 0.648617 0.223549

loop_
_geom_bond_atom_site_label_1
_geom_bond_atom_site_label_2
_ccdc_geom_bond_type
C42   H38   S    
C6    H13   S    
C2    C28   S    
C19   C20   A    
C1    C11   S    
Cu1   O5    S    
O10   C38   S    
C23   O5    A    
C41   H42   S    
C7    C8    A    
C39   H33   S    
C25   C28   S    
C3    H11   S    
C26   C27   S    
C16   C21   A    
C28   C29   S    
C5    C6    A    
C32   H15   S    
C31   C32   S    
C18   C19   A    
C8    C9    A    
C35   H23   S    
C16   O9    S    
C4    C12   S    
C9    C10   A    
Cu2   O8    S    
C15   C23   S    
C42   H39   S    
Cu1   N2    S    
C13   C14   A    
C7    H1    S    
C41   H41   S    
C23   O6    A    
C39   H34   S    
Cu1   O1    S    
C36   C37   S    
C34   H21   S    
C20   N2    A    
C33   C34   S    
C25   O7    A    
C14   H3    S    
C27   C31   S    
C16   C17   A    
C32   H16   S    
C8    H2    S    
C29   C36   S    
C34   H22   S    
C33   H20   S    
C37   H26   S    
Cu2   O4    S    
C29   C30   S    
C12   O3    A    
Cu1   Cu2   S    
C40   H37   S    
C35   H25   S    
C17   C18   A    
C17   H5    S    
C40   H35   S    
C37   H27   S    
C19   H7    S    
C22   N1    A    
C40   H36   S    
C42   H40   S    
C38   H32   S    
C36   H29   S    
C22   C24   A    
Cu1   O3    S    
C3    C4    S    
Cu2   O6    S    
C12   O4    A    
C21   N1    A    
C39   C40   S    
C14   C15   A    
C24   N2    A    
Cu2   N1    S    
C25   O8    A    
C36   H30   S    
C4    C26   S    
C1    O1    A    
C6    C7    A    
C38   C39   S    
C22   H4    S    
C2    C30   S    
C34   C35   S    
C33   H19   S    
C30   O10   S    
C3    C27   S    
C2    C3    S    
C9    C15   A    
C5    C10   A    
C11   C13   A    
C32   H14   S    
C2    H10   S    
C41   C42   S    
C24   H8    S    
C31   H18   S    
Cu1   O7    S    
C18   H6    S    
C37   H28   S    
Cu2   O2    S    
C5    C41   S    
C10   C11   A    
O9    C33   S    
C20   C21   A    
C26   C29   S    
C38   H31   S    
C27   C28   S    
C31   H17   S    
C35   H24   S    
C1    O2    A    
C13   H12   S    
C4    C30   S    
C26   H9    S    
