data_mof_unit_43342.cif
_audit_creation_date              2013-03-05T15:53:42-0500
_audit_creation_method            fapswitch 2.2
_symmetry_space_group_name_H-M    P1
_symmetry_Int_Tables_number       1
_space_group_crystal_system       triclinic
_cell_length_a                    14.965797
_cell_length_b                    14.786815
_cell_length_c                    17.004683
_cell_angle_alpha                 109.150427
_cell_angle_beta                  106.123186
_cell_angle_gamma                 108.439299
_cell_volume                      3051.54796659

loop_
_atom_site_label
_atom_site_type_symbol
_atom_site_description
_atom_site_fract_x
_atom_site_fract_y
_atom_site_fract_z
_atom_type_partial_charge
C1    C     C_R   0.086861 0.275789 0.057731 0.283908
N1    N     N_R   0.055640 0.348550 0.045600 -0.074975
C2    C     C_R   0.934576 0.516530 0.746443 -0.069837
H1    H     H_    0.857708 0.505530 0.708567 0.165797
N2    N     N_R   0.960830 0.507850 0.823710 -0.052281
C3    C     C_R   0.769139 0.199972 0.810292 -0.087166
H2    H     H_    0.750486 0.133331 0.825483 0.107371
N3    N     N_R   0.811290 0.303400 0.871650 -0.039251
C4    C     C_R   0.255240 0.533319 0.946501 -0.121588
H3    H     H_    0.268251 0.568775 0.902097 0.111407
N4    N     N_R   0.205180 0.552990 0.997660 -0.046333
C5    C     C_R   0.778803 0.297622 0.734524 -0.054789
H4    H     H_    0.774093 0.324646 0.682596 0.141798
N5    N     N_R   0.814810 0.361830 0.823710 -0.038035
C6    C     C_R   0.253706 0.437731 0.024174 -0.121016
H5    H     H_    0.268522 0.385244 0.051278 0.157370
N6    N     N_R   0.201660 0.494570 0.045600 -0.038165
C7    C     C_R   0.106773 0.596249 0.819141 -0.139060
H6    H     H_    0.186796 0.652236 0.843077 0.106498
N7    N     N_R   0.068420 0.560530 0.871650 -0.049053
C8    C     C_R   0.915288 0.192262 0.977592 -0.168810
H7    H     H_    0.834974 0.135564 0.948436 0.181819
N8    N     N_R   0.948050 0.295860 0.997660 -0.064173
C9    C     C_R   0.000919 0.174446 0.008494 0.041763
C10   C     C_R   0.023853 0.565634 0.737876 0.103866
C11   C     C_R   0.752582 0.194416 0.723901 0.017565
C12   C     C_R   0.286800 0.460809 0.961348 0.053593
C13   C     C_R   0.274020 0.688922 0.252074 -0.129331
H8    H     H_    0.296524 0.651826 0.294078 0.112326
N9    N     N_R   0.185190 0.638170 0.176290 -0.044279
C14   C     C_R   0.703968 0.494369 0.912240 0.241716
N10   N     N_R   0.798340 0.505430 0.954400 -0.090248
C15   C     C_R   0.890476 0.471366 0.185967 -0.083762
H9    H     H_    0.809020 0.448068 0.166402 0.143262
N11   N     N_R   0.931580 0.439470 0.128350 -0.034554
C16   C     C_R   0.080566 0.808580 0.051143 -0.061589
H10   H     H_    0.159708 0.869404 0.095591 0.122268
N12   N     N_R   0.051950 0.704140 0.002340 -0.051963
C17   C     C_R   0.908331 0.724254 0.976231 -0.100750
H11   H     H_    0.827284 0.707014 0.952002 0.134126
N13   N     N_R   0.944360 0.651450 0.954400 -0.034605
C18   C     C_R   0.063234 0.554027 0.264396 -0.080418
H12   H     H_    0.141249 0.603997 0.318223 0.101057
N14   N     N_R   0.039170 0.492150 0.176290 -0.039470
C19   C     C_R   0.280237 0.784749 0.175529 -0.143436
H13   H     H_    0.309980 0.836827 0.147244 0.109642
N15   N     N_R   0.188710 0.696600 0.128350 -0.048043
C20   C     C_R   0.695850 0.400755 0.990823 0.250514
N16   N     N_R   0.794820 0.447010 0.002340 -0.093816
Ni1   Ni    Ni4+2 0.119330 0.493420 0.109950 0.256638
Ni2   Ni    Ni4+2 0.880670 0.506580 0.890050 0.261423
Ni3   Ni    Ni4+2 0.872590 0.372590 0.000000 0.263222
Ni4   Ni    Ni4+2 0.127410 0.627410 0.000000 0.218455
C21   C     C_R   0.336681 0.781477 0.253327 0.067517
C22   C     C_R   0.637366 0.431205 0.935215 -0.079678
C23   C     C_R   0.970686 0.543815 0.272071 0.015839
C24   C     C_R   0.991974 0.824746 0.037669 -0.008502
C25   C     C_R   0.421205 0.502844 0.907184 0.133418
C26   C     C_R   0.355383 0.430507 0.925755 0.029224
C27   C     C_R   0.365419 0.337143 0.917822 -0.210398
H14   H     H_    0.311619 0.276664 0.926422 0.155993
C28   C     C_R   0.452266 0.327411 0.907896 -0.112884
H15   H     H_    0.461221 0.257373 0.905982 0.207730
C29   C     C_R   0.529897 0.413222 0.909701 0.056434
C30   C     C_R   0.507534 0.495011 0.900420 0.251827
C31   C     C_3   0.573134 0.614266 0.952154 -0.491104
C32   C     C_3   0.477625 0.622782 0.959053 -0.518139
H16   H     H_    0.636005 0.640507 0.019930 0.187704
H17   H     H_    0.598548 0.649442 0.908992 0.231875
H18   H     H_    0.485335 0.654517 0.030909 0.212298
H19   H     H_    0.448041 0.661469 0.918974 0.204033
C33   C     C_R   0.957201 0.585461 0.356717 0.124807
C34   C     C_R   0.026431 0.594906 0.663644 0.019150
C35   C     C_R   0.123244 0.699585 0.604771 -0.195151
C36   C     C_R   0.117206 0.677504 0.677206 -0.185043
C37   C     C_R   0.938362 0.539606 0.577799 0.225738
C38   C     C_R   0.940009 0.574826 0.511329 0.082655
C39   C     C_R   0.035739 0.645660 0.520528 0.138325
C40   C     C_R   0.044195 0.650500 0.442072 -0.230056
C41   C     C_R   0.858229 0.539436 0.354396 -0.170031
C42   C     C_R   0.849829 0.532373 0.431169 -0.123686
H20   H     H_    0.120020 0.693874 0.445990 0.119826
H21   H     H_    0.787740 0.496909 0.291472 0.139753
H22   H     H_    0.196569 0.756701 0.613924 0.148069
H23   H     H_    0.773463 0.486978 0.425152 0.183547
H24   H     H_    0.185491 0.721699 0.742181 0.160064
C43   C     C_R   0.711222 0.098083 0.636957 0.118403
C44   C     C_R   0.445585 0.854398 0.318737 0.117673
C45   C     C_R   0.589337 0.031837 0.392822 -0.176526
C46   C     C_R   0.498293 0.950631 0.317166 -0.167866
C47   C     C_R   0.492860 0.834620 0.390710 -0.260024
C48   C     C_R   0.579477 0.917694 0.469028 0.177666
C49   C     C_R   0.625025 0.018509 0.471488 0.163694
C50   C     C_R   0.695030 0.107300 0.555205 -0.237708
C51   C     C_R   0.676450 0.995944 0.633036 -0.154452
C52   C     C_R   0.612095 0.905506 0.548750 -0.205436
H25   H     H_    0.726260 0.184560 0.556331 0.165556
H26   H     H_    0.692392 0.985648 0.694692 0.132838
H27   H     H_    0.624974 0.108416 0.393362 0.171202
H28   H     H_    0.579505 0.827957 0.547332 0.141524
H29   H     H_    0.465860 0.966908 0.261150 0.137657
H30   H     H_    0.456435 0.759366 0.391577 0.126654
C53   C     C_R   0.090648 0.059108 0.973236 0.133962
C54   C     C_R   0.001263 0.067790 0.978199 -0.103329
C55   C     C_R   0.907918 0.969917 0.934910 0.499573
C56   C     C_R   0.902773 0.874368 0.874213 -0.311337
H31   H     H_    0.829282 0.802568 0.834622 0.187568
C57   C     C_R   0.990235 0.872339 0.860479 -0.003905
C58   C     C_R   0.085135 0.963120 0.916636 0.080637
C59   C     C_3   0.165494 0.016658 0.890134 0.194787
C60   C     C_3   0.171682 0.122049 0.951280 -0.558293
H32   H     H_    0.134611 0.995850 0.815789 0.102902
H33   H     H_    0.247535 0.175324 0.012576 0.262273
H34   H     H_    0.142894 0.161911 0.912053 0.163440
Br1   Br    Br    0.207957 0.312137 0.161613 -0.578683
Br2   Br    Br    0.663602 0.506829 0.800114 -0.605715
Br3   Br    Br    0.644022 0.279051 0.012408 -0.577191
Br4   Br    Br    0.829914 0.397331 0.536454 -0.629913
O1    O     O_3   0.817076 0.967667 0.940466 -0.671067
C61   C     C_3   0.817058 0.960148 0.021029 0.161092
H35   H     H_    0.879873 0.034534 0.083252 0.125211
H36   H     H_    0.828173 0.889533 0.022414 0.101281
C62   C     C_3   0.711936 0.945950 0.022474 -0.236773
H37   H     H_    0.700210 0.016792 0.023238 0.228140
H38   H     H_    0.648672 0.873495 0.959260 0.210576
C63   C     C_3   0.705452 0.933293 0.106548 -0.968255
H39   H     H_    0.715296 0.861798 0.106268 0.261715
H40   H     H_    0.628078 0.922642 0.105182 0.279452
H41   H     H_    0.766694 0.005701 0.170735 0.275822
Br5   Br    Br    0.290408 0.000420 0.936745 -0.532584

loop_
_geom_bond_atom_site_label_1
_geom_bond_atom_site_label_2
_geom_bond_distance
_ccdc_geom_bond_type
C20   C22   1.389952 A    
C31   H16   1.112423 S    
C49   C50   1.386797 A    
C44   C46   1.405134 A    
C51   C52   1.389672 A    
C51   H26   1.080799 S    
C62   H37   1.112176 S    
C17   N13   1.342999 A    
N2    N7    1.387398 A    
C38   C39   1.411685 A    
C13   H8    1.079264 S    
C63   H39   1.111302 S    
C45   H27   1.084063 S    
C27   C28   1.400985 A    
C16   H10   1.079785 S    
C7    H6    1.079943 S    
C33   C40   1.403269 A    
C62   H38   1.112293 S    
C31   H17   1.110972 S    
C56   H31   1.082225 S    
C6    H5    1.072733 S    
C17   C24   1.394603 A    
C43   C50   1.402830 A    
C48   C52   1.398920 A    
C57   C58   1.389459 A    
C53   C60   1.497256 S    
C1    N1    1.352232 A    
C59   C60   1.519988 S    
C28   C29   1.408135 A    
C25   C30   1.365388 A    
C18   C23   1.392566 A    
N5    Ni2   1.813573 S    
C11   C43   1.466380 S    
C23   C33   1.466344 S    
C43   C51   1.404901 A    
C32   H19   1.111831 S    
C63   H40   1.110632 S    
N1    Ni1   1.812702 S    
C4    H3    1.076924 S    
N3    Ni3   1.865748 S    
C10   C34   1.468747 S    
N4    Ni4   1.836953 S    
C61   C62   1.528287 S    
N15   Ni4   1.865745 S    
C15   C23   1.383333 A    
C31   C32   1.506657 S    
N9    Ni1   1.813572 S    
C26   C27   1.402473 A    
C8    H7    1.073420 S    
C34   C36   1.407842 A    
C7    C10   1.391485 A    
C18   N14   1.343122 A    
C41   H21   1.079423 S    
C54   C55   1.427874 A    
C61   H36   1.114605 S    
C19   N15   1.339025 A    
C35   C36   1.392460 A    
N9    N15   1.367840 A    
C2    C10   1.377468 A    
C37   C38   1.393905 A    
N12   N13   1.387400 A    
C16   C24   1.391126 A    
C17   H11   1.078830 S    
C13   C21   1.382314 A    
C39   C40   1.397041 A    
C41   C42   1.379634 A    
C62   C63   1.526258 S    
C3    N3    1.342654 A    
C50   H25   1.080214 S    
C25   C26   1.393575 A    
C19   H13   1.080533 S    
C37   Br4   1.946850 S    
C5    C11   1.384366 A    
C27   H14   1.079397 S    
C9    C54   1.492056 S    
C46   H29   1.080919 S    
C28   H15   1.076885 S    
C36   H24   1.081139 S    
C6    C12   1.388962 A    
C14   N10   1.322878 A    
C44   C47   1.403127 A    
C38   C42   1.398009 A    
N16   Ni3   1.836952 S    
C22   C29   1.453245 S    
C15   H9    1.072069 S    
C60   H33   1.110877 S    
N11   N14   1.387398 A    
C4    N4    1.317770 A    
C3    H2    1.071794 S    
C20   N16   1.345414 A    
C5    N5    1.330238 A    
C19   C21   1.383186 A    
C8    N8    1.338830 A    
C34   C37   1.415345 A    
C18   H12   1.078857 S    
C47   H30   1.080333 S    
C2    H1    1.079831 S    
C14   Br2   1.922358 S    
C47   C48   1.386884 A    
C61   H35   1.114888 S    
C4    C12   1.366795 A    
N10   Ni2   1.861081 S    
N14   Ni1   1.861026 S    
C6    N6    1.347840 A    
N4    N6    1.367722 A    
N3    N5    1.367841 A    
C55   O1    1.379540 S    
C35   H22   1.083661 S    
N7    Ni4   1.866098 S    
C2    N2    1.324011 A    
N6    Ni1   1.861079 S    
C40   H20   1.083082 S    
O1    C61   1.410394 S    
C20   Br3   1.919235 S    
C55   C56   1.413399 A    
C63   H41   1.111127 S    
C53   C58   1.390419 A    
C32   H18   1.112553 S    
C29   C30   1.396972 A    
C16   N12   1.341801 A    
C33   C41   1.403881 A    
C12   C26   1.441756 S    
C58   C59   1.486259 S    
C21   C44   1.466532 S    
N11   Ni3   1.866095 S    
N8    Ni3   1.835795 S    
C3    C11   1.389970 A    
N12   Ni4   1.835795 S    
C56   C57   1.399571 A    
C52   H28   1.083932 S    
C13   N9    1.331946 A    
C48   C49   1.410355 A    
C15   N11   1.332624 A    
C59   Br5   1.940756 S    
C60   H34   1.112214 S    
C7    N7    1.344611 A    
C45   C49   1.398666 A    
C59   H32   1.112136 S    
N10   N16   1.367720 A    
C25   C32   1.499656 S    
C53   C54   1.406165 A    
C5    H4    1.076631 S    
C1    C9    1.400125 A    
C30   C31   1.501552 S    
C35   C39   1.396774 A    
C8    C9    1.385013 A    
N1    N8    1.387399 A    
N2    Ni2   1.861024 S    
C1    Br1   1.917443 S    
C14   C22   1.373044 A    
C45   C46   1.389732 A    
N13   Ni2   1.812701 S    
C42   H23   1.082537 S    
