data_mof_unit_10333.cif
_audit_creation_date              2012-12-10T18:47:03-0500
_audit_creation_method            fapswitch 2.2
_symmetry_space_group_name_H-M    P1
_symmetry_Int_Tables_number       1
_space_group_crystal_system       triclinic
_cell_length_a                    10.626406
_cell_length_b                    9.839547
_cell_length_c                    15.00603
_cell_angle_alpha                 89.994199
_cell_angle_beta                  90.453654
_cell_angle_gamma                 90.004089
_cell_volume                      1568.9666169

loop_
_atom_site_label
_atom_site_type_symbol
_atom_type_description
_atom_site_fract_x
_atom_site_fract_y
_atom_site_fract_z
_atom_type_partial_charge
C1    C     C_R   0.260550 0.500008 0.499358 0.927227
C2    C     C_R   0.128011 0.500067 0.499193 -0.123339
C3    C     C_R   0.572747 0.071954 0.559395 -0.070472
C4    C     C_R   0.427253 0.928046 0.440604 -0.070470
C5    C     C_R   0.427253 0.071963 0.440605 -0.070792
C6    C     C_R   0.572747 0.928037 0.559395 -0.070788
C7    C     C_R   0.500722 0.500006 0.326551 0.872017
C8    C     C_R   0.499289 0.499994 0.673449 0.871984
C9    C     C_R   0.506603 0.376385 0.815168 -0.259418
C10   C     C_R   0.493435 0.623621 0.184831 -0.259422
C11   C     C_R   0.499162 0.499983 0.769343 -0.070693
C12   C     C_R   0.739449 0.499992 0.500657 0.927252
C13   C     C_R   0.500864 0.500020 0.230657 -0.070711
C14   C     C_R   0.491907 0.623585 0.815089 -0.260233
C15   C     C_R   0.508124 0.376418 0.184912 -0.260229
C16   C     C_R   0.492226 0.624538 0.907255 0.119098
C17   C     C_R   0.507816 0.375468 0.092745 0.119103
C18   C     C_R   0.499805 0.499998 0.953645 0.060451
C19   C     C_R   0.500242 0.500009 0.046355 0.060451
C20   C     C_R   0.506976 0.375448 0.907335 0.119307
C21   C     C_R   0.493071 0.624559 0.092665 0.119308
C22   C     C_R   0.485152 0.747766 0.953627 -0.218704
C23   C     C_R   0.485566 0.747776 0.046213 -0.218738
C24   C     C_R   0.514893 0.252241 0.046373 -0.218705
C25   C     C_3   0.145851 0.497329 0.667921 -0.874069
C26   C     C_3   0.854176 0.502613 0.332063 -0.874189
C27   C     C_3   0.866664 0.496591 0.671392 -0.883059
C28   C     C_3   0.133328 0.503415 0.328597 -0.882926
C29   C     C_R   0.514483 0.252232 0.953787 -0.218739
C30   C     C_R   0.067584 0.498558 0.582294 0.139700
C31   C     C_R   0.932418 0.501407 0.417714 0.139717
C32   C     C_R   0.936387 0.498382 0.583277 0.146573
C33   C     C_R   0.063608 0.501597 0.416734 0.146608
C34   C     C_R   0.871986 0.499934 0.500831 -0.123298
H1    H     H_    0.512455 0.280867 0.779320 0.160040
H2    H     H_    0.369088 0.873491 0.393135 0.128565
H3    H     H_    0.369085 0.126525 0.393140 0.129695
H4    H     H_    0.630916 0.873475 0.606860 0.129689
H5    H     H_    0.206549 0.405508 0.669386 0.238882
H6    H     H_    0.206597 0.589093 0.670470 0.237179
H7    H     H_    0.090525 0.496506 0.729971 0.247362
H8    H     H_    0.793385 0.594352 0.330614 0.238864
H9    H     H_    0.909521 0.503605 0.270040 0.247374
H10   H     H_    0.793530 0.410786 0.329450 0.237230
H11   H     H_    0.763068 0.496302 0.664531 0.223683
H12   H     H_    0.487583 0.719140 0.220678 0.160042
H13   H     H_    0.892201 0.403710 0.709442 0.242840
H14   H     H_    0.891563 0.588364 0.710754 0.242941
H15   H     H_    0.236932 0.503702 0.335458 0.223711
H16   H     H_    0.108381 0.411687 0.289198 0.242952
H17   H     H_    0.107799 0.596338 0.290563 0.242761
H18   H     H_    0.485902 0.719102 0.779175 0.161097
H19   H     H_    0.514121 0.280899 0.220827 0.161095
H20   H     H_    0.479355 0.843763 0.918352 0.141088
H21   H     H_    0.520687 0.156244 0.081648 0.141088
H22   H     H_    0.480039 0.843779 0.081425 0.140650
H23   H     H_    0.520010 0.156230 0.918575 0.140652
H24   H     H_    0.630912 0.126509 0.606865 0.128565
N1    N     N_R   0.500000 0.857200 0.500000 -0.081093
N2    N     N_R   0.500000 0.142800 0.500000 -0.081095
O1    O     O_R   0.316770 0.614620 0.499990 -0.616566
O2    O     O_R   0.683230 0.385380 0.500010 -0.616545
O3    O     O_R   0.683230 0.614620 0.500010 -0.616129
O4    O     O_R   0.316770 0.385380 0.499990 -0.616109
O5    O     O_R   0.499980 0.614680 0.367850 -0.629964
O6    O     O_R   0.500020 0.385320 0.632150 -0.629965
O7    O     O_R   0.500020 0.614680 0.632150 -0.629834
O8    O     O_R   0.499980 0.385320 0.367850 -0.629813
Zn1   Zn    Zn3+2 0.500000 0.653120 0.500000 0.944628
Zn2   Zn    Zn3+2 0.500000 0.346880 0.500000 0.944639

loop_
_geom_bond_atom_site_label_1
_geom_bond_atom_site_label_2
_ccdc_geom_bond_type
C27   H14   S    
C28   C33   S    
C6    N1    A    
C6    H4    S    
C8    O6    A    
C25   H6    S    
O4    Zn2   S    
C7    O5    A    
C12   O2    A    
C28   H15   S    
C9    C20   A    
C5    N2    A    
N2    Zn2   S    
C2    C30   A    
C3    C6    A    
O1    Zn1   S    
C3    N2    A    
C27   H11   S    
C13   C15   A    
C27   C32   S    
C31   C34   A    
C26   H10   S    
C23   H22   S    
C22   H20   S    
C25   H5    S    
C24   H21   S    
C30   C32   A    
C9    C11   A    
C32   C34   A    
C26   H8    S    
O6    Zn2   S    
N1    Zn1   S    
C8    C11   S    
O5    Zn1   S    
C15   H19   S    
C4    N1    A    
O8    Zn2   S    
C17   C19   A    
C29   H23   S    
C26   H9    S    
C1    C2    S    
C18   C20   A    
C20   C29   A    
C21   C23   A    
C10   C21   A    
C28   H17   S    
C14   C16   A    
C17   C24   A    
C31   C33   A    
C27   H13   S    
C3    H24   S    
C10   H12   S    
C7    C13   S    
C5    H3    S    
C4    H2    S    
O2    Zn2   S    
C8    O7    A    
C16   C18   A    
C18   C19   A    
C26   C31   S    
C25   H7    S    
C11   C14   A    
C9    H1    S    
C12   O3    A    
C24   C29   A    
C25   C30   S    
C16   C22   A    
C12   C34   S    
C19   C21   A    
C7    O8    A    
C15   C17   A    
C28   H16   S    
C1    O4    A    
C22   C23   A    
C14   H18   S    
O3    Zn1   S    
C2    C33   A    
C4    C5    A    
O7    Zn1   S    
C10   C13   A    
C1    O1    A    
