data_mof_unit_14993.cif
_audit_creation_date              2013-03-05T15:42:34-0500
_audit_creation_method            fapswitch 2.2
_symmetry_space_group_name_H-M    P1
_symmetry_Int_Tables_number       1
_space_group_crystal_system       triclinic
_cell_length_a                    10.771616
_cell_length_b                    10.909938
_cell_length_c                    9.739561
_cell_angle_alpha                 91.036557
_cell_angle_beta                  89.978621
_cell_angle_gamma                 90.849352
_cell_volume                      1144.25739943

loop_
_atom_site_label
_atom_site_type_symbol
_atom_site_description
_atom_site_fract_x
_atom_site_fract_y
_atom_site_fract_z
_atom_type_partial_charge
O1    O     O_R   0.500020 0.321960 0.617040 -0.539940
O2    O     O_R   0.499980 0.321920 0.382900 -0.568060
C1    C     C_R   0.501432 0.265384 0.498702 0.885587
O3    O     O_R   0.319670 0.500020 0.617100 -0.529188
O4    O     O_R   0.319630 0.499980 0.382950 -0.593714
C2    C     C_R   0.262794 0.503411 0.500133 0.787786
Cu1   Cu    Cu3+1 0.500020 0.500020 0.638630 0.992808
Cu2   Cu    Cu3+1 0.499980 0.499980 0.361370 0.951906
O5    O     O_R   0.500020 0.678080 0.617100 -0.597968
O6    O     O_R   0.499980 0.678040 0.382960 -0.572419
O7    O     O_R   0.680370 0.500020 0.617050 -0.581524
O8    O     O_R   0.680330 0.499980 0.382900 -0.566190
C3    C     C_R   0.503754 0.734626 0.501333 0.832100
C4    C     C_R   0.737318 0.503891 0.500046 0.780833
H1    H     H_    0.110614 0.352299 0.366393 0.146200
C5    C     C_R   0.132837 0.702235 0.642333 -0.181995
H2    H     H_    0.233093 0.706979 0.640426 0.138002
C6    C     C_R   0.069482 0.796140 0.711787 0.214594
C7    C     C_R   0.939967 0.795010 0.711828 -0.126919
H3    H     H_    0.890112 0.867570 0.764241 0.149688
C8    C     C_R   0.873756 0.702064 0.642810 -0.230599
H4    H     H_    0.773677 0.707895 0.642433 0.154980
C9    C     C_R   0.936104 0.606043 0.573588 0.096833
C10   C     C_R   0.067310 0.606007 0.573540 0.081443
C11   C     C_R   0.129140 0.511734 0.500251 -0.060155
C12   C     C_R   0.062856 0.423407 0.423844 -0.175708
H5    H     H_    0.884794 0.352633 0.366143 0.158975
C13   C     C_R   0.934802 0.423589 0.423712 -0.180904
C14   C     C_R   0.871273 0.512031 0.500108 -0.082230
C15   C     C_2   0.536836 0.930914 0.392731 -0.191918
C16   C     C_2   0.515986 0.866834 0.506540 -0.358017
H6    H     H_    0.548559 0.883957 0.294330 0.174936
H7    H     H_    0.514354 0.910384 0.607454 0.152781
C17   C     C_2   0.550044 0.065186 0.395386 0.159971
C18   C     C_2   0.497137 0.132725 0.496056 -0.290434
H8    H     H_    0.445506 0.090881 0.578892 0.137585
C19   C     C_2   0.417346 0.442081 0.921779 0.421831
N1    N     N_2   0.498640 0.498660 0.846910 -0.361666
H9    H     H_    0.577931 0.530856 0.895061 0.159009
C20   C     C_2   0.433020 0.424668 0.073961 0.156096
N2    N     N_2   0.498610 0.498630 0.153040 -0.312870
H10   H     H_    0.536181 0.575295 0.108079 0.171652
N3    N     N_R   0.311503 0.384475 0.857966 0.175864
O9    O     O_R   0.202132 0.429609 0.880509 -0.355022
O10   O     O_R   0.319867 0.272996 0.809715 -0.360867
N4    N     N_3   0.369818 0.319937 0.128845 -0.522333
H11   H     H_    0.435337 0.256681 0.159363 0.249476
H12   H     H_    0.313058 0.345520 0.210532 0.261447
N5    N     N_3   0.135377 0.893733 0.782329 -0.565353
H13   H     H_    0.231189 0.880542 0.775791 0.219176
H14   H     H_    0.117167 0.974907 0.730986 0.230145
N6    N     N_3   0.620002 0.122402 0.287936 -0.568241
H15   H     H_    0.581537 0.094085 0.193871 0.213245
H16   H     H_    0.710412 0.089075 0.291534 0.219283

loop_
_geom_bond_atom_site_label_1
_geom_bond_atom_site_label_2
_geom_bond_distance
_ccdc_geom_bond_type
C19   N3    1.430466 S    
O4    Cu2   1.953921 S    
Cu1   O7    1.953919 S    
C9    C10   1.413311 A    
C16   H7    1.084162 S    
C19   N1    1.295887 D    
N2    H10   1.028696 S    
C17   N6    1.435898 S    
C7    H3    1.083247 S    
C1    C18   1.447115 S    
Cu2   O8    1.954023 S    
N5    H14   1.045979 S    
O2    C1    1.295469 A    
Cu1   Cu2   2.700383 S    
C5    C10   1.414989 A    
C5    C6    1.402929 A    
C8    H4    1.080838 S    
C10   C11   1.415738 A    
C15   H6    1.086717 S    
N3    O10   1.300284 A    
C13   C14   1.395048 A    
O4    C2    1.295148 A    
O3    Cu1   1.954023 S    
C9    C14   1.415767 A    
O3    C2    1.295073 A    
C20   N2    1.305558 D    
C7    C8    1.393924 A    
Cu1   N1    2.028926 S    
N6    H16   1.045379 S    
N5    H13   1.045904 S    
C19   C20   1.507580 S    
C8    C9    1.413497 A    
N3    O9    1.300654 A    
C15   C16   1.338302 D    
O7    C4    1.295042 A    
N4    H12   1.039873 S    
C2    C11   1.443877 S    
C20   N4    1.433017 S    
C4    C14   1.444327 S    
N1    H9    1.028704 S    
N6    H15   1.045324 S    
Cu2   O6    1.950184 S    
C17   C18   1.347211 D    
H5    C13   1.084421 S    
Cu1   O5    1.957676 S    
C15   C17   1.469450 S    
N4    H11   1.041488 S    
C6    C7    1.394963 A    
H1    C12   1.084183 S    
O5    C3    1.295333 A    
Cu2   N2    2.028888 S    
C11   C12   1.395076 A    
O1    Cu1   1.950186 S    
C12   C13   1.379384 A    
C3    C16   1.446417 S    
O2    Cu2   1.957677 S    
C18   H8    1.083548 S    
C6    N5    1.435617 S    
O8    C4    1.295530 A    
C5    H2    1.080562 S    
O1    C1    1.297738 A    
O6    C3    1.298268 A    
