data_mof_unit_26910.cif
_audit_creation_date              2012-12-11T15:12:51-0500
_audit_creation_method            fapswitch 2.2
_symmetry_space_group_name_H-M    P1
_symmetry_Int_Tables_number       1
_space_group_crystal_system       triclinic
_cell_length_a                    22.254147
_cell_length_b                    7.159974
_cell_length_c                    19.392257
_cell_angle_alpha                 90.974093
_cell_angle_beta                  99.244807
_cell_angle_gamma                 89.013196
_cell_volume                      3049.04003259

loop_
_atom_site_label
_atom_site_type_symbol
_atom_type_description
_atom_site_fract_x
_atom_site_fract_y
_atom_site_fract_z
_atom_type_partial_charge
O1    O     O_R   0.448420 0.506120 0.415750 -0.525794
O2    O     O_R   0.551580 0.006120 0.584250 -0.528739
O3    O     O_R   0.436490 0.174470 0.555610 -0.534720
O4    O     O_R   0.563510 0.674470 0.444390 -0.530116
C1    C     C_R   0.421534 0.346371 0.575229 0.707241
C2    C     C_R   0.578145 0.841849 0.423961 0.711332
O5    O     O_R   0.441310 0.176330 0.414520 -0.544309
O6    O     O_R   0.558690 0.676330 0.585480 -0.541829
O7    O     O_R   0.556430 0.007110 0.442150 -0.534005
O8    O     O_R   0.443570 0.507110 0.557850 -0.535537
C3    C     C_R   0.427691 0.345565 0.388542 0.754895
C4    C     C_R   0.572915 0.845390 0.610941 0.737589
O9    O     O_3   0.537770 0.339560 0.509230 -0.371580
O10   O     O_3   0.462230 0.839560 0.490770 -0.374182
V1    V     V_3+5 0.492990 0.064280 0.498290 1.421516
V2    V     V_3+5 0.507010 0.564280 0.501710 1.430234
C5    C     C_R   0.871553 0.865502 0.697963 0.235133
C6    C     C_R   0.130039 0.409176 0.303403 0.231873
H1    H     H_    0.957075 0.860416 0.767028 0.126380
H2    H     H_    0.044484 0.468836 0.238592 0.122971
C7    C     C_R   0.883856 0.933120 0.822632 -0.077580
C8    C     C_R   0.116065 0.437389 0.177208 -0.113049
C9    C     C_R   0.588633 0.837076 0.740336 0.213931
C10   C     C_R   0.413410 0.430777 0.263983 0.143648
C11   C     C_R   0.626960 0.831289 0.805494 0.204833
C12   C     C_R   0.376036 0.484246 0.201715 0.174472
C13   C     C_R   0.689806 0.850865 0.809240 -0.255523
C14   C     C_R   0.313045 0.471356 0.195398 -0.124007
C15   C     C_R   0.716467 0.885035 0.749645 0.061391
C16   C     C_R   0.284690 0.399985 0.249317 0.033259
C17   C     C_R   0.678372 0.875525 0.683369 -0.002320
C18   C     C_R   0.322542 0.353359 0.313454 -0.023229
C19   C     C_R   0.780893 0.909683 0.754080 -0.079385
C20   C     C_R   0.219505 0.393402 0.243633 -0.040493
C21   C     C_R   0.807273 0.883568 0.692159 0.094507
C22   C     C_R   0.193677 0.377550 0.306161 0.083659
C23   C     C_R   0.768530 0.877544 0.626506 0.220416
C24   C     C_R   0.232244 0.330379 0.369331 0.217186
C25   C     C_R   0.705268 0.879895 0.622919 -0.250908
C26   C     C_R   0.295097 0.312191 0.371374 -0.257880
C27   C     C_R   0.819983 0.958858 0.817940 0.237369
C28   C     C_R   0.178963 0.402927 0.178114 0.221045
C29   C     C_R   0.908264 0.881458 0.763239 -0.325139
C30   C     C_R   0.092863 0.444529 0.239628 -0.304943
C31   C     C_R   0.614282 0.854995 0.678935 -0.138418
C32   C     C_R   0.387183 0.363095 0.320016 -0.106447
H3    H     H_    0.717567 0.828055 0.859154 0.164349
H4    H     H_    0.287128 0.532620 0.149367 0.184851
H5    H     H_    0.677430 0.876579 0.571675 0.105691
H6    H     H_    0.322587 0.274914 0.420635 0.110062
C33   C     C_3   0.789901 0.696117 0.229076 0.378302
C34   C     C_3   0.186984 0.231286 0.732476 0.385464
C35   C     C_3   0.791562 0.045614 0.258814 -0.445215
C36   C     C_3   0.217055 0.571201 0.763478 -0.487921
C37   C     C_3   0.746187 0.012960 0.310597 0.336593
C38   C     C_3   0.264461 0.565769 0.712182 0.391742
H7    H     H_    0.786510 0.188098 0.239552 0.157624
H8    H     H_    0.229767 0.674617 0.806096 0.186292
H9    H     H_    0.839450 0.045814 0.286064 0.159136
H10   H     H_    0.172741 0.631824 0.739599 0.141788
C39   C     C_1   0.621392 0.842258 0.375048 -0.244236
C40   C     C_1   0.376271 0.359691 0.621174 -0.251043
C41   C     C_3   0.784327 0.901686 0.197107 0.087170
C42   C     C_3   0.209115 0.377089 0.795044 0.082322
C43   C     C_3   0.735055 0.662636 0.274664 0.348150
C44   C     C_3   0.237214 0.222788 0.678568 0.319378
C45   C     C_3   0.698940 0.855101 0.278970 0.092225
C46   C     C_3   0.292949 0.361144 0.709619 0.055370
C47   C     C_3   0.665847 0.910797 0.197445 0.483695
C48   C     C_3   0.325196 0.303271 0.789238 0.453708
C49   C     C_3   0.719952 0.938160 0.149683 0.276824
C50   C     C_3   0.273017 0.319496 0.840314 0.269042
C51   C     C_1   0.655988 0.843334 0.332097 0.041010
C52   C     C_1   0.338954 0.363280 0.660770 0.062731
C53   C     C_1   0.834634 0.931094 0.155287 0.108904
C54   C     C_1   0.162020 0.404325 0.841617 0.108792
C55   C     C_1   0.874563 0.945667 0.119663 -0.213439
C56   C     C_1   0.124218 0.428593 0.879681 -0.203643
O11   O     O_R   0.056480 0.288780 0.942210 -0.534588
O12   O     O_R   0.943520 0.788780 0.057790 -0.531979
O13   O     O_R   0.058700 0.616820 0.085490 -0.542630
O14   O     O_R   0.941300 0.116820 0.914510 -0.527351
C57   C     C_R   0.072502 0.448488 0.111261 0.708809
C58   C     C_R   0.926696 0.947927 0.889195 0.743888
O15   O     O_R   0.063520 0.618570 0.944410 -0.533622
O16   O     O_R   0.936480 0.118570 0.055590 -0.536476
O17   O     O_R   0.948420 0.787670 0.915740 -0.540720
O18   O     O_R   0.051580 0.287670 0.084260 -0.532434
C59   C     C_R   0.078522 0.447652 0.924723 0.707188
C60   C     C_R   0.921737 0.951977 0.075996 0.700607
O19   O     O_3   0.962260 0.453430 0.990800 -0.368587
O20   O     O_3   0.037740 0.953430 0.009200 -0.376016
V3    V     V_3+5 0.007000 0.728750 0.001710 1.410446
V4    V     V_3+5 0.993000 0.228750 0.998290 1.429811
N1    N     N_2   0.849669 0.679380 0.275009 -0.526611
H11   H     H_    0.858749 0.760635 0.319544 0.271056
C61   C     C_3   0.903319 0.597711 0.251600 -0.532094
H12   H     H_    0.945105 0.659479 0.281836 0.175443
H13   H     H_    0.903689 0.622900 0.195467 0.227166
H14   H     H_    0.904904 0.444995 0.260825 0.191855
N2    N     N_2   0.126318 0.292637 0.695856 -0.517352
H15   H     H_    0.120629 0.429167 0.680521 0.236082
C62   C     C_3   0.070129 0.214882 0.711652 -0.506006
H16   H     H_    0.031116 0.310248 0.693283 0.173111
H17   H     H_    0.072125 0.195183 0.768550 0.214682
H18   H     H_    0.060953 0.079379 0.683640 0.191595
N3    N     N_3   0.781798 0.960495 0.378343 -0.713820
H19   H     H_    0.753110 0.953883 0.415894 0.233336
H20   H     H_    0.814552 0.061079 0.396013 0.234420
N4    N     N_3   0.235144 0.627121 0.642645 -0.680277
H21   H     H_    0.254151 0.575751 0.600103 0.252375
H22   H     H_    0.187836 0.644192 0.633772 0.211226
N5    N     N_3   0.714198 0.188647 0.322743 -0.661093
H23   H     H_    0.670862 0.168536 0.334069 0.244046
H24   H     H_    0.734825 0.253530 0.368861 0.241495
N6    N     N_3   0.311086 0.704427 0.735449 -0.635432
H25   H     H_    0.326540 0.705344 0.788736 0.239531
H26   H     H_    0.347042 0.697009 0.707094 0.254634
N7    N     N_3   0.713969 0.804939 0.089705 -0.688043
H27   H     H_    0.750598 0.815540 0.062478 0.254128
H28   H     H_    0.675941 0.837002 0.052621 0.233551
N8    N     N_3   0.266167 0.140151 0.874814 -0.685768
H29   H     H_    0.305191 0.107351 0.910194 0.233129
H30   H     H_    0.231500 0.151091 0.905266 0.257624
N9    N     N_3   0.719507 0.123974 0.117855 -0.686437
H31   H     H_    0.682501 0.139234 0.077560 0.218512
H32   H     H_    0.715337 0.229409 0.153005 0.213342
N10   N     N_3   0.287400 0.459735 0.897760 -0.677868
H33   H     H_    0.319742 0.407849 0.938339 0.229862
H34   H     H_    0.303863 0.584809 0.882428 0.222014
N11   N     N_2   0.623826 0.768053 0.160327 -0.500412
H35   H     H_    0.643453 0.648052 0.144066 0.300133
C63   C     C_3   0.574448 0.820721 0.104452 -0.559897
H36   H     H_    0.567593 0.709285 0.063349 0.179580
H37   H     H_    0.583985 0.951291 0.078534 0.192220
H38   H     H_    0.530822 0.834465 0.124815 0.206575
N12   N     N_2   0.349314 0.110501 0.788957 -0.485550
H39   H     H_    0.316050 0.013968 0.782274 0.306659
C64   C     C_3   0.399597 0.048596 0.842071 -0.514707
H40   H     H_    0.395645 0.897908 0.852742 0.177636
H41   H     H_    0.400806 0.125281 0.892354 0.181411
H42   H     H_    0.443674 0.064363 0.823518 0.217347
N13   N     N_3   0.789104 0.558337 0.171071 -0.653200
H43   H     H_    0.745751 0.529315 0.144927 0.251186
H44   H     H_    0.807792 0.431253 0.189462 0.235460
N14   N     N_3   0.179312 0.046111 0.762549 -0.651443
H45   H     H_    0.220275 0.975636 0.776473 0.256738
H46   H     H_    0.154107 0.959130 0.725321 0.224306
N15   N     N_2   0.691661 0.524657 0.242155 -0.550560
H47   H     H_    0.712554 0.401577 0.234458 0.289112
C65   C     C_3   0.634082 0.495477 0.267532 -0.435164
H48   H     H_    0.608108 0.391903 0.234921 0.205667
H49   H     H_    0.601481 0.612467 0.258313 0.197132
H50   H     H_    0.640798 0.462062 0.323808 0.222258
N16   N     N_2   0.260191 0.031818 0.670540 -0.508053
H51   H     H_    0.223889 0.945462 0.657841 0.290690
C66   C     C_3   0.303781 0.994372 0.622687 -0.420358
H52   H     H_    0.300118 0.851478 0.600831 0.184954
H53   H     H_    0.350994 0.005051 0.651097 0.219658
H54   H     H_    0.295999 0.085741 0.576391 0.187127
N17   N     N_3   0.792750 0.877064 0.562407 -0.616246
H55   H     H_    0.775377 0.762202 0.532037 0.233657
H56   H     H_    0.777346 0.998893 0.535845 0.217983
N18   N     N_3   0.208248 0.297220 0.432271 -0.615765
H57   H     H_    0.220816 0.161707 0.448709 0.224397
H58   H     H_    0.228519 0.390714 0.470754 0.237231
N19   N     N_2   0.628825 0.080410 0.203137 -0.505954
H59   H     H_    0.621941 0.163024 0.159662 0.247138
C67   C     C_3   0.571571 0.063793 0.230976 -0.539283
H60   H     H_    0.533115 0.121284 0.193284 0.168974
H61   H     H_    0.573447 0.141857 0.281030 0.197860
H62   H     H_    0.560015 0.917884 0.240695 0.211682
N20   N     N_2   0.377215 0.425799 0.815819 -0.531562
H63   H     H_    0.389425 0.430877 0.869265 0.252934
C68   C     C_3   0.431894 0.428787 0.783380 -0.526824
H64   H     H_    0.473118 0.438997 0.824056 0.184091
H65   H     H_    0.431119 0.553001 0.750475 0.189795
H66   H     H_    0.437400 0.302114 0.751400 0.226234
N21   N     N_3   0.900328 0.822690 0.638441 -0.612210
H67   H     H_    0.924732 0.697016 0.647601 0.222182
H68   H     H_    0.931424 0.927943 0.633965 0.226418
N22   N     N_3   0.102360 0.409989 0.365249 -0.613978
H69   H     H_    0.068506 0.308798 0.358983 0.227874
H70   H     H_    0.081382 0.540411 0.369895 0.223528
N23   N     N_2   0.796932 0.070864 0.869904 -0.528450
H71   H     H_    0.758684 0.151978 0.853672 0.267307
C69   C     C_3   0.803643 0.005578 0.941032 -0.548940
H72   H     H_    0.758283 0.997174 0.957584 0.181584
H73   H     H_    0.830480 0.108345 0.975928 0.223617
H74   H     H_    0.825951 0.865443 0.946811 0.179895
N24   N     N_2   0.199938 0.358748 0.113881 -0.541324
H75   H     H_    0.177016 0.424850 0.070369 0.242485
C70   C     C_3   0.210203 0.161637 0.101957 -0.507342
H76   H     H_    0.229469 0.141723 0.052903 0.191554
H77   H     H_    0.166587 0.085469 0.096903 0.201198
H78   H     H_    0.243116 0.102473 0.145590 0.206068
N25   N     N_3   0.523670 0.819420 0.734849 -0.682936
H79   H     H_    0.509947 0.818283 0.783818 0.259828
H80   H     H_    0.512208 0.689960 0.711159 0.213804
N26   N     N_3   0.477922 0.459139 0.273140 -0.691402
H81   H     H_    0.485614 0.602501 0.271524 0.222275
H82   H     H_    0.495011 0.395135 0.231544 0.215397
N27   N     N_3   0.602426 0.800331 0.868233 -0.699133
H83   H     H_    0.614742 0.912313 0.902636 0.223773
H84   H     H_    0.622748 0.679145 0.891388 0.228126
N28   N     N_3   0.401044 0.560493 0.144772 -0.681494
H85   H     H_    0.430478 0.461167 0.127563 0.225827
H86   H     H_    0.425976 0.679055 0.162588 0.225468
N29   N     N_3   0.759731 0.581260 0.343453 -0.643571
H87   H     H_    0.791094 0.655537 0.377521 0.260097
H88   H     H_    0.786177 0.465167 0.333311 0.240502
N30   N     N_3   0.208883 0.274017 0.606126 -0.678775
H89   H     H_    0.172553 0.367102 0.601073 0.241668
H90   H     H_    0.189404 0.157648 0.578271 0.246007

loop_
_geom_bond_atom_site_label_1
_geom_bond_atom_site_label_2
_ccdc_geom_bond_type
C44   C46   S    
N27   H83   S    
N2    H15   S    
C9    C31   A    
C13   C15   A    
C67   H61   S    
C67   H60   S    
N1    H11   S    
O1    C3    A    
C58   O17   A    
O2    C4    A    
N10   H33   S    
C2    O7    A    
C5    C29   A    
C61   H12   S    
C35   H9    S    
O3    V1    S    
N19   C67   S    
C36   H10   S    
N20   H63   S    
O5    C3    A    
N27   H84   S    
C66   H52   S    
C36   C42   S    
C50   N10   S    
O14   V4    S    
C35   H7    S    
C2    C39   S    
N18   H57   S    
C21   C23   A    
C54   C56   T    
N14   H45   S    
N15   C65   S    
C44   N16   S    
C64   H42   S    
N28   H86   S    
N23   C69   S    
N16   C66   S    
C6    N22   S    
C46   C52   S    
N13   H43   S    
C15   C19   A    
N6    H25   S    
N25   H80   S    
C33   C43   S    
C65   H50   S    
C47   C49   S    
N22   H69   S    
C35   C41   S    
C69   H74   S    
O16   V4    S    
N11   C63   S    
C61   H13   S    
C7    C29   A    
O15   V3    S    
C28   N24   S    
O12   V3    S    
C8    C30   A    
N23   H71   S    
N6    H26   S    
N26   H81   S    
C43   C45   S    
C20   C28   A    
C8    C28   A    
C63   H38   S    
C65   H48   S    
C45   C51   S    
C43   N29   S    
C47   N11   S    
N7    H28   S    
C5    N21   S    
C18   C26   A    
C57   O18   A    
C66   H53   S    
C24   C26   A    
N21   H68   S    
C65   H49   S    
C43   N15   S    
N3    H20   S    
N8    H30   S    
C12   N28   S    
C38   N4    S    
N17   H56   S    
H1    C29   S    
N17   H55   S    
C68   H66   S    
N14   H46   S    
C35   C37   S    
C56   C59   S    
C42   C54   S    
C55   C60   S    
C36   C38   S    
C34   N2    S    
O11   C59   A    
C16   C20   A    
N24   H75   S    
C33   C41   S    
O11   V4    S    
C68   H65   S    
O16   C60   A    
N19   H59   S    
O15   C59   A    
N28   H85   S    
O5    V1    S    
C37   N5    S    
C39   C51   T    
C38   C46   S    
N4    H21   S    
C37   N3    S    
C45   C47   S    
O4    V2    S    
N24   C70   S    
C6    C30   A    
O19   V3    S    
O13   V3    S    
C68   H64   S    
C7    C58   S    
O6    C4    A    
C70   H78   S    
C70   H77   S    
N29   H87   S    
C38   N6    S    
C27   N23   S    
C62   H17   S    
O1    V2    S    
N30   H89   S    
N7    H27   S    
N9    H32   S    
O2    V1    S    
C53   C55   T    
N20   C68   S    
C7    C27   A    
C46   C48   S    
C25   H5    S    
C41   C49   S    
H2    C30   S    
C66   H54   S    
O14   C58   A    
C47   N19   S    
O9    V1    S    
C34   C42   S    
C63   H36   S    
C67   H62   S    
O10   V2    S    
O4    C2    A    
N3    H19   S    
C44   N30   S    
N11   H35   S    
O3    C1    A    
N16   H51   S    
C61   H14   S    
C34   C44   S    
C23   N17   S    
N5    H23   S    
C36   H8    S    
C13   H3    S    
C1    O8    A    
N13   H44   S    
C14   H4    S    
C34   N14   S    
N22   H70   S    
C50   N8    S    
N12   C64   S    
C18   C32   A    
C40   C52   T    
C10   C12   A    
C4    C31   S    
C11   N27   S    
N10   H34   S    
O13   C57   A    
C37   C45   S    
C64   H40   S    
N1    C61   S    
C33   N13   S    
C11   C13   A    
N12   H39   S    
C9    N25   S    
C12   C14   A    
N2    C62   S    
C49   N7    S    
C19   C27   A    
C8    C57   S    
N18   H58   S    
O7    V1    S    
C10   C32   A    
C69   H72   S    
C15   C17   A    
O8    V2    S    
N15   H47   S    
C22   C24   A    
C16   C18   A    
C64   H41   S    
O20   V4    S    
N9    H31   S    
C41   C53   S    
C26   H6    S    
O17   V3    S    
C14   C16   A    
O20   V3    S    
C19   C21   A    
C17   C25   A    
C1    C40   S    
C62   H18   S    
C20   C22   A    
C42   C50   S    
O12   C60   A    
N25   H79   S    
C48   N20   S    
N4    H22   S    
C69   H73   S    
N30   H90   S    
N21   H67   S    
C23   C25   A    
C9    C11   A    
C24   N18   S    
C10   N26   S    
C48   N12   S    
O6    V2    S    
C70   H76   S    
C17   C31   A    
O9    V2    S    
C62   H16   S    
C63   H37   S    
O18   V4    S    
N29   H88   S    
O10   V1    S    
C49   N9    S    
C3    C32   S    
C48   C50   S    
C5    C21   A    
N5    H24   S    
N8    H29   S    
C6    C22   A    
N26   H82   S    
C33   N1    S    
O19   V4    S    
