data_mof_unit_24954.cif
_audit_creation_date              2013-03-05T16:35:53-0500
_audit_creation_method            fapswitch 2.2
_symmetry_space_group_name_H-M    P1
_symmetry_Int_Tables_number       1
_space_group_crystal_system       triclinic
_cell_length_a                    23.623885
_cell_length_b                    9.08896
_cell_length_c                    7.777637
_cell_angle_alpha                 90.582875
_cell_angle_beta                  90.11903
_cell_angle_gamma                 89.428154
_cell_volume                      1669.81450597

loop_
_atom_site_label
_atom_site_type_symbol
_atom_site_description
_atom_site_fract_x
_atom_site_fract_y
_atom_site_fract_z
_atom_type_partial_charge
O1    O     O_R   0.500000 0.288390 0.642760 -0.571099
O2    O     O_R   0.500000 0.711610 0.357240 -0.568713
O3    O     O_R   0.500000 0.711610 0.642760 -0.573838
O4    O     O_R   0.500000 0.288390 0.357240 -0.571620
C1    C     C_R   0.500019 0.219993 0.499466 0.850546
C2    C     C_R   0.499947 0.780007 0.500532 0.850941
O5    O     O_R   0.417880 0.500000 0.642820 -0.545228
O6    O     O_R   0.582120 0.500000 0.357180 -0.540377
O7    O     O_R   0.582120 0.500000 0.642820 -0.540046
O8    O     O_R   0.417880 0.500000 0.357180 -0.545176
C3    C     C_R   0.209279 0.518513 0.493030 0.286099
C4    C     C_R   0.792092 0.491435 0.491601 0.253536
C5    C     C_R   0.390705 0.502034 0.499791 0.914561
C6    C     C_R   0.609455 0.498051 0.500087 0.904527
Cu1   Cu    Cu3+1 0.500000 0.500000 0.669080 1.127160
Cu2   Cu    Cu3+1 0.500000 0.500000 0.330920 1.128966
C7    C     C_R   0.299323 0.595118 0.375489 0.271973
C8    C     C_R   0.701677 0.423171 0.362457 0.275917
C9    C     C_R   0.296861 0.428697 0.620743 0.274618
C10   C     C_R   0.703483 0.559266 0.634892 0.277067
C11   C     C_R   0.328236 0.508520 0.498779 -0.240047
C12   C     C_R   0.672239 0.493343 0.499524 -0.246035
C13   C     C_R   0.879974 0.628935 0.503454 0.593844
C14   C     C_R   0.122349 0.398110 0.416674 0.595777
C15   C     C_R   0.884345 0.370054 0.459656 0.629796
C16   C     C_R   0.119015 0.636682 0.548043 0.594597
N1    N     N_R   0.853362 0.496570 0.484524 -0.424995
N2    N     N_R   0.148517 0.518129 0.485441 -0.409573
C17   C     C_R   0.943247 0.376777 0.433479 -0.066160
C18   C     C_R   0.059158 0.638790 0.544005 -0.110441
C19   C     C_R   0.939243 0.634148 0.525005 -0.108562
C20   C     C_R   0.062696 0.390022 0.413930 -0.076990
C21   C     C_R   0.971312 0.507965 0.478708 -0.089543
C22   C     C_R   0.031139 0.512378 0.478699 -0.061859
C23   C     C_R   0.974257 0.257650 0.362496 0.186218
C24   C     C_R   0.026254 0.760552 0.605690 0.166705
C25   C     C_R   0.967116 0.758949 0.593731 0.160519
C26   C     C_R   0.033382 0.265087 0.348417 0.100388
C27   C     C_1   0.499982 0.065367 0.499260 -0.097485
C28   C     C_1   0.499957 0.934634 0.500731 -0.097208
C29   C     C_R   0.239862 0.598095 0.371845 0.089157
C30   C     C_R   0.761144 0.425980 0.356522 0.090020
C31   C     C_R   0.237407 0.435394 0.618379 0.084837
C32   C     C_R   0.763011 0.555061 0.632424 0.095572
N3    N     N_1   0.500000 0.500000 0.076820 0.011207
N4    N     N_1   0.500000 0.500000 0.923180 0.009828
O9    O     O_2   0.849052 0.754263 0.498695 -0.527246
O10   O     O_2   0.154717 0.287472 0.353058 -0.545188
O11   O     O_2   0.858419 0.238552 0.463335 -0.489161
O12   O     O_2   0.148211 0.750869 0.613765 -0.547810
N5    N     N_3   0.945309 0.132755 0.291360 -0.502735
H1    H     H_    0.952774 0.129234 0.158894 0.243190
H2    H     H_    0.962701 0.037245 0.344326 0.242568
N6    N     N_3   0.051050 0.888211 0.684364 -0.534593
H3    H     H_    0.077030 0.940396 0.595879 0.257138
H4    H     H_    0.073926 0.856928 0.793438 0.265804
N7    N     N_3   0.936531 0.880756 0.669394 -0.530009
H5    H     H_    0.907845 0.841201 0.759672 0.253655
H6    H     H_    0.914991 0.938844 0.574137 0.289382
N8    N     N_3   0.061751 0.143758 0.264610 -0.588075
H7    H     H_    0.088709 0.091142 0.351490 0.270106
H8    H     H_    0.084155 0.182020 0.158563 0.272240
N9    N     N_3   0.209574 0.680846 0.244703 -0.539477
H9    H     H_    0.221985 0.643061 0.122940 0.264043
H10   H     H_    0.220631 0.791519 0.257338 0.283427
N10   N     N_3   0.790714 0.363328 0.212035 -0.523656
H11   H     H_    0.775115 0.411779 0.100532 0.248490
H12   H     H_    0.781838 0.250943 0.205374 0.295849
N11   N     N_3   0.204594 0.357009 0.741741 -0.543698
H13   H     H_    0.216184 0.392791 0.864943 0.264282
H14   H     H_    0.214209 0.244840 0.729987 0.282877
N12   N     N_3   0.794780 0.617184 0.772353 -0.541881
H15   H     H_    0.782512 0.566554 0.885638 0.247318
H16   H     H_    0.784685 0.729176 0.782851 0.290200
Cl1   Cl    Cl    0.336387 0.705923 0.228258 -0.554107
Cl2   Cl    Cl    0.665531 0.325215 0.197986 -0.546343
Cl3   Cl    Cl    0.330745 0.313537 0.772587 -0.550417
Cl4   Cl    Cl    0.669616 0.654455 0.806763 -0.545552

loop_
_geom_bond_atom_site_label_1
_geom_bond_atom_site_label_2
_geom_bond_distance
_ccdc_geom_bond_type
N10   H12   1.045561 S    
N9    H10   1.045395 S    
O3    C2    1.274404 A    
N3    N4    1.194957 T    
O1    C1    1.270607 A    
C24   C25   1.400190 A    
C9    C11   1.415348 A    
C16   O12   1.347640 S    
N7    H6    1.042879 S    
Cu1   Cu2   2.630087 S    
C17   C21   1.411138 A    
N8    H8    1.045299 S    
N11   H14   1.045418 S    
C4    C30   1.408893 A    
C32   N12   1.434937 S    
C8    Cl2   1.773581 S    
C19   C21   1.412190 A    
C3    C31   1.401793 A    
O1    Cu1   1.932107 S    
C20   C26   1.425166 A    
O2    Cu2   1.932106 S    
O5    Cu1   1.950295 S    
N10   H11   1.041646 S    
O6    Cu2   1.950293 S    
O2    C2    1.270592 A    
C10   C32   1.406605 A    
C9    C31   1.405338 A    
C7    C29   1.404923 A    
C15   C17   1.408765 A    
N6    H4    1.045230 S    
C13   O9    1.347847 S    
C18   C22   1.420611 A    
C4    N1    1.449826 S    
N5    H1    1.045731 S    
C14   O10   1.347901 S    
C23   C26   1.403613 A    
N12   H16   1.045559 S    
C27   C28   1.188404 T    
O4    C1    1.274391 A    
C7    C11   1.416835 A    
C19   C25   1.416703 A    
N8    H7    1.043842 S    
N5    H2    1.044770 S    
C13   C19   1.411024 A    
O4    Cu2   1.936249 S    
O7    C6    1.285319 A    
C14   C20   1.411983 A    
C9    Cl3   1.770744 S    
C21   C22   1.414327 A    
C5    C11   1.476362 S    
C26   N8    1.436158 S    
C10   C12   1.415996 A    
C16   C18   1.414274 A    
C13   N1    1.369449 A    
C1    C27   1.405388 S    
C23   N5    1.436499 S    
C2    C28   1.405383 S    
C29   N9    1.434218 S    
O3    Cu1   1.936248 S    
C30   N10   1.434360 S    
N6    H3    1.043778 S    
O6    C6    1.284486 A    
C8    C12   1.416789 A    
C14   N2    1.363224 A    
N12   H15   1.041179 S    
O8    C5    1.282594 A    
Cu2   N3    1.976297 S    
C10   Cl4   1.772741 S    
C15   N1    1.369176 A    
C17   C23   1.409777 A    
C16   N2    1.363678 A    
C18   C24   1.425744 A    
C6    C12   1.483397 S    
C8    C30   1.406205 A    
O7    Cu1   1.951137 S    
C4    C32   1.410081 A    
O8    Cu2   1.951139 S    
N7    H5    1.045707 S    
C3    N2    1.436553 S    
C3    C29   1.400245 A    
N11   H13   1.045597 S    
C15   O11   1.349022 S    
C24   N6    1.435778 S    
N9    H9    1.045608 S    
O5    C5    1.283430 A    
C31   N11   1.434248 S    
C7    Cl1   1.771274 S    
Cu1   N4    1.976297 S    
C25   N7    1.437563 S    
C20   C22   1.421223 A    
