data_mof_unit_58650.cif
_audit_creation_date              2013-03-05T16:26:36-0500
_audit_creation_method            fapswitch 2.2
_symmetry_space_group_name_H-M    P1
_symmetry_Int_Tables_number       1
_space_group_crystal_system       triclinic
_cell_length_a                    19.394696
_cell_length_b                    18.09682
_cell_length_c                    10.654708
_cell_angle_alpha                 90.001332
_cell_angle_beta                  90.006108
_cell_angle_gamma                 90.00451
_cell_volume                      3739.6141252

loop_
_atom_site_label
_atom_site_type_symbol
_atom_site_description
_atom_site_fract_x
_atom_site_fract_y
_atom_site_fract_z
_atom_type_partial_charge
O1    O     O_R   0.400190 0.561980 0.499980 -0.572199
O2    O     O_R   0.599810 0.438020 0.500020 -0.563139
O3    O     O_R   0.599810 0.561980 0.500020 -0.572554
O4    O     O_R   0.400190 0.438020 0.499980 -0.564291
C1    C     C_R   0.367422 0.499991 0.500029 0.849734
C2    C     C_R   0.632559 0.499997 0.499870 0.849005
O5    O     O_R   0.500000 0.561950 0.319660 -0.585322
O6    O     O_R   0.500000 0.438050 0.680340 -0.586196
O7    O     O_R   0.500000 0.561950 0.680340 -0.585613
O8    O     O_R   0.500000 0.438050 0.319660 -0.586237
C3    C     C_R   0.489977 0.499993 0.261932 0.866775
C4    C     C_R   0.509949 0.500001 0.738111 0.864865
Cu1   Cu    Cu3+1 0.500000 0.573360 0.500000 1.017327
Cu2   Cu    Cu3+1 0.500000 0.426640 0.500000 1.022503
H1    H     H_    0.458153 0.245443 0.085097 0.219165
H2    H     H_    0.541594 0.754517 0.915110 0.219820
H3    H     H_    0.541839 0.245487 0.915001 0.219086
H4    H     H_    0.457803 0.754439 0.085102 0.219726
C5    C     C_R   0.455265 0.635471 0.104572 0.363470
C6    C     C_R   0.544446 0.364452 0.895507 0.359033
C7    C     C_R   0.544306 0.635554 0.895620 0.365051
C8    C     C_R   0.455452 0.364404 0.104595 0.359373
C9    C     C_R   0.476663 0.702067 0.049975 -0.286431
C10   C     C_R   0.523016 0.297874 0.950129 -0.285183
C11   C     C_R   0.522791 0.702111 0.950197 -0.286448
C12   C     C_R   0.476928 0.297849 0.049963 -0.285077
C13   C     C_R   0.517082 0.567650 0.941874 -0.092762
C14   C     C_R   0.482652 0.432307 0.058237 -0.092852
C15   C     C_R   0.482555 0.567618 0.058230 -0.093581
C16   C     C_R   0.517178 0.432328 0.941845 -0.092220
C17   C     C_R   0.522291 0.499998 0.875621 -0.050181
C18   C     C_R   0.477491 0.499965 0.124475 -0.050137
C19   C     C_R   0.744543 0.435340 0.469265 -0.168453
C20   C     C_R   0.255335 0.565342 0.474339 -0.154275
C21   C     C_R   0.255358 0.434432 0.524154 -0.173578
C22   C     C_R   0.744617 0.564506 0.531027 -0.145303
H5    H     H_    0.717554 0.384980 0.444606 0.152236
H6    H     H_    0.282250 0.616490 0.454642 0.188189
H7    H     H_    0.282289 0.383317 0.544031 0.157055
H8    H     H_    0.717691 0.614909 0.555570 0.190565
C23   C     C_R   0.816351 0.435535 0.468339 -0.123440
C24   C     C_R   0.183534 0.565129 0.473374 -0.125098
C25   C     C_R   0.183558 0.434540 0.524624 -0.118800
C26   C     C_R   0.816423 0.564227 0.531996 -0.128466
H9    H     H_    0.843954 0.385630 0.443291 0.119031
H10   H     H_    0.155962 0.615892 0.453748 0.142070
H11   H     H_    0.156005 0.383746 0.544138 0.138218
H12   H     H_    0.844082 0.614112 0.556989 0.124927
C27   C     C_R   0.852293 0.499873 0.500105 0.273785
C28   C     C_R   0.147515 0.499822 0.498996 0.237404
C29   C     C_R   0.708157 0.499955 0.500080 -0.019017
C30   C     C_R   0.291788 0.499932 0.499507 -0.019392
C31   C     C_R   0.963400 0.516153 0.388454 0.342056
C32   C     C_R   0.036013 0.486759 0.611863 0.333265
C33   C     C_R   0.035756 0.512934 0.386935 0.336014
C34   C     C_R   0.963652 0.483584 0.610907 0.346091
C35   C     C_R   0.071928 0.499826 0.499255 -0.265669
C36   C     C_R   0.927689 0.499874 0.499821 -0.270880
C37   C     C_R   0.466703 0.720738 0.592925 0.020058
C38   C     C_R   0.533553 0.279277 0.407378 0.021578
C39   C     C_R   0.533293 0.720738 0.407065 0.020053
C40   C     C_R   0.466453 0.279273 0.592629 0.020861
H13   H     H_    0.442298 0.689058 0.666369 0.131274
H14   H     H_    0.558151 0.310975 0.334166 0.129498
H15   H     H_    0.557693 0.689057 0.333618 0.132001
H16   H     H_    0.441856 0.310978 0.665833 0.129519
C41   C     C_R   0.465011 0.799007 0.595091 0.357429
C42   C     C_R   0.535266 0.201012 0.405231 0.357846
C43   C     C_R   0.534990 0.799005 0.404893 0.357094
C44   C     C_R   0.464745 0.201004 0.594789 0.357645
C45   C     C_R   0.500001 0.838448 0.499990 -0.082283
C46   C     C_R   0.500004 0.161557 0.500002 -0.081961
N1    N     N_R   0.500000 0.683620 0.500000 -0.194299
N2    N     N_R   0.500000 0.316380 0.500000 -0.193781
C47   C     C_R   0.562244 0.961199 0.494422 -0.127721
C48   C     C_R   0.437761 0.038786 0.505528 -0.127099
C49   C     C_R   0.437762 0.961190 0.505552 -0.127494
C50   C     C_R   0.562246 0.038795 0.494453 -0.127390
H17   H     H_    0.611032 0.932150 0.491291 0.151337
H18   H     H_    0.388968 0.067825 0.508613 0.152294
H19   H     H_    0.388974 0.932134 0.508683 0.151660
H20   H     H_    0.611040 0.067841 0.491372 0.151988
C51   C     C_R   0.500004 0.078627 0.499994 0.207228
C52   C     C_R   0.500002 0.921367 0.499986 0.207955
N3    N     N_R   0.400963 0.637139 0.196951 0.130656
O9    O     O_R   0.389754 0.696596 0.262587 -0.393732
O10   O     O_R   0.356930 0.583058 0.204280 -0.347639
N4    N     N_R   0.598719 0.362702 0.803046 0.133564
O11   O     O_R   0.642698 0.416818 0.795304 -0.335688
O12   O     O_R   0.609892 0.303181 0.737556 -0.386015
N5    N     N_R   0.598718 0.637307 0.803474 0.130140
O13   O     O_R   0.609964 0.696790 0.737928 -0.395541
O14   O     O_R   0.642832 0.583298 0.796384 -0.346821
N6    N     N_R   0.401212 0.362601 0.197117 0.133108
O15   O     O_R   0.357194 0.416672 0.204906 -0.341785
O16   O     O_R   0.390099 0.303067 0.262608 -0.386557
O17   O     O_3   0.927198 0.529541 0.278894 -0.550049
C53   C     C_3   0.925407 0.606445 0.257883 -0.237568
H21   H     H_    0.977752 0.628732 0.238373 0.188276
H22   H     H_    0.901679 0.636378 0.338288 0.126978
H23   H     H_    0.893087 0.617341 0.174001 0.188387
O18   O     O_3   0.071777 0.473556 0.721930 -0.566068
C54   C     C_3   0.078187 0.540795 0.787706 -0.237385
H24   H     H_    0.026889 0.563057 0.815279 0.188188
H25   H     H_    0.107184 0.582520 0.731925 0.139227
H26   H     H_    0.107732 0.530485 0.875127 0.186423
O19   O     O_3   0.071259 0.526163 0.276610 -0.559723
C55   C     C_3   0.077689 0.458899 0.210925 -0.206856
H27   H     H_    0.026380 0.436440 0.183837 0.177179
H28   H     H_    0.106955 0.417317 0.266547 0.148676
H29   H     H_    0.106975 0.469245 0.123237 0.188808
O20   O     O_3   0.927702 0.470248 0.720750 -0.542956
C56   C     C_3   0.925882 0.393351 0.741811 -0.208605
H30   H     H_    0.978249 0.371019 0.760962 0.177631
H31   H     H_    0.901944 0.363426 0.661593 0.131362
H32   H     H_    0.893737 0.382501 0.825926 0.193496
O21   O     O_3   0.435978 0.838725 0.693812 -0.564514
C57   C     C_3   0.373040 0.807696 0.734468 -0.321951
H33   H     H_    0.382623 0.762204 0.802257 0.174369
H34   H     H_    0.340402 0.788479 0.654794 0.147339
H35   H     H_    0.343469 0.850961 0.784857 0.202851
O22   O     O_3   0.564607 0.161319 0.306783 -0.564639
C58   C     C_3   0.627660 0.192379 0.266778 -0.322861
H36   H     H_    0.660039 0.211632 0.346780 0.147637
H37   H     H_    0.618268 0.237857 0.198874 0.174382
H38   H     H_    0.657414 0.149123 0.216718 0.202711
O23   O     O_3   0.564026 0.838719 0.306168 -0.564517
C59   C     C_3   0.626979 0.807710 0.265563 -0.321905
H39   H     H_    0.617419 0.762199 0.197792 0.175041
H40   H     H_    0.659609 0.788526 0.345266 0.147373
H41   H     H_    0.656547 0.850978 0.215168 0.202297
O24   O     O_3   0.435420 0.161286 0.693235 -0.564949
C60   C     C_3   0.372496 0.192459 0.733643 -0.321241
H42   H     H_    0.340042 0.211860 0.653852 0.147873
H43   H     H_    0.382095 0.237851 0.801628 0.174222
H44   H     H_    0.342726 0.149230 0.783733 0.203031

loop_
_geom_bond_atom_site_label_1
_geom_bond_atom_site_label_2
_geom_bond_distance
_ccdc_geom_bond_type
C26   C27   1.398548 A    
C13   C15   1.409100 A    
O18   C54   1.409665 S    
C21   H7    1.083231 S    
C20   C24   1.392618 A    
O3    C2    1.289080 A    
C59   H39   1.110863 S    
O17   C53   1.410036 S    
C58   H36   1.114525 S    
C6    C16   1.425617 A    
N3    O9    1.301587 A    
O5    C3    1.293505 A    
C14   C18   1.416767 A    
O1    C1    1.289269 A    
Cu2   N2    1.995355 S    
C10   C12   1.389473 A    
C56   H30   1.111990 S    
C15   C18   1.416598 A    
C16   C17   1.416836 A    
C47   C52   1.407204 A    
C58   H37   1.110865 S    
C55   H27   1.112932 S    
C40   C44   1.416990 A    
C24   H10   1.083353 S    
C43   C45   1.413088 A    
O7    Cu1   1.932536 S    
C57   H33   1.110862 S    
C37   C41   1.416978 A    
C50   C51   1.407298 A    
C6    C10   1.401117 A    
C55   H28   1.113395 S    
O24   C60   1.411797 S    
C60   H44   1.109155 S    
O19   C55   1.409647 S    
C1    C30   1.466903 S    
C2    C29   1.466194 S    
C21   C25   1.392560 A    
C37   N1    1.359670 A    
O3    Cu1   1.946723 S    
C42   C46   1.413242 A    
C56   H32   1.109293 S    
N3    O10   1.301216 A    
C7    C13   1.425371 A    
C8    C14   1.425574 A    
Cu1   Cu2   2.655164 S    
C8    N6    1.442120 S    
O2    C2    1.288906 A    
C5    N3    1.441900 S    
C48   C51   1.407292 A    
C23   C27   1.398536 A    
O20   C56   1.410007 S    
O7    C4    1.293429 A    
C31   C33   1.404635 A    
C32   C34   1.404627 A    
H3    C10   1.082668 S    
C40   H16   1.079454 S    
C13   C17   1.416827 A    
H4    C9    1.082666 S    
C22   H8    1.083140 S    
C48   C49   1.404225 A    
O8    Cu2   1.932537 S    
C42   O22   1.392926 S    
N5    O13   1.301575 A    
H1    C12   1.082661 S    
C49   C52   1.407204 A    
C31   O17   1.383546 S    
C19   H5    1.083267 S    
C27   C36   1.462278 S    
C33   O19   1.383243 S    
C57   H35   1.109200 S    
C5    C9    1.401113 A    
N5    O14   1.301216 A    
C50   H20   1.082993 S    
C49   H19   1.083006 S    
O6    C4    1.293423 A    
C44   O24   1.392992 S    
C54   H25   1.113414 S    
N6    O16   1.301585 A    
C41   O21   1.392925 S    
C38   C42   1.416915 A    
C22   C29   1.404699 A    
C24   C28   1.399708 A    
N4    O12   1.301597 A    
C3    C18   1.484427 S    
C53   H22   1.113207 S    
C33   C35   1.407287 A    
C4    C17   1.484526 S    
C60   H42   1.114516 S    
C22   C26   1.392720 A    
O1    Cu1   1.946694 S    
O23   C59   1.411749 S    
C5    C15   1.425434 A    
C59   H41   1.109181 S    
C21   C30   1.404684 A    
C45   C52   1.500565 S    
C7    N5    1.441802 S    
C39   C43   1.416960 A    
H2    C11   1.082661 S    
C7    C11   1.401120 A    
O6    Cu2   1.932527 S    
C20   H6    1.083155 S    
C28   C35   1.466003 S    
C37   H13   1.079405 S    
C32   O18   1.383241 S    
C48   H18   1.083000 S    
Cu1   N1    1.995355 S    
O4    C1    1.289075 A    
C58   H38   1.109223 S    
C59   H40   1.114505 S    
C31   C36   1.405211 A    
C25   C28   1.399660 A    
C19   C29   1.404735 A    
C53   H23   1.109272 S    
C20   C30   1.404648 A    
C55   H29   1.109358 S    
C38   H14   1.079452 S    
C39   N1    1.359673 A    
C14   C16   1.409422 A    
C19   C23   1.392731 A    
O21   C57   1.411735 S    
C47   H17   1.083007 S    
C6    N4    1.442125 S    
C38   N2    1.359551 A    
C34   C36   1.405055 A    
C54   H26   1.109345 S    
C41   C45   1.413089 A    
C9    C11   1.389531 A    
O4    Cu2   1.946727 S    
N6    O15   1.301296 A    
O2    Cu2   1.946690 S    
C47   C50   1.404228 A    
C57   H34   1.114496 S    
C46   C51   1.500766 S    
O8    C3    1.293341 A    
C39   H15   1.079412 S    
O5    Cu1   1.932528 S    
N4    O11   1.301280 A    
C43   O23   1.392920 S    
C53   H21   1.111988 S    
C8    C12   1.401108 A    
C54   H24   1.112919 S    
C60   H43   1.110887 S    
C23   H9    1.083305 S    
C40   N2    1.359556 A    
C44   C46   1.413287 A    
O22   C58   1.411773 S    
C25   H11   1.083366 S    
C34   O20   1.383573 S    
C26   H12   1.083293 S    
C56   H31   1.113192 S    
C32   C35   1.407413 A    
