data_mof_unit_21690.cif
_audit_creation_date              2012-12-10T18:20:30-0500
_audit_creation_method            fapswitch 2.2
_symmetry_space_group_name_H-M    P1
_symmetry_Int_Tables_number       1
_space_group_crystal_system       triclinic
_cell_length_a                    14.109749
_cell_length_b                    13.671781
_cell_length_c                    14.909473
_cell_angle_alpha                 90.101373
_cell_angle_beta                  88.708413
_cell_angle_gamma                 84.411485
_cell_volume                      2861.69749135

loop_
_atom_site_label
_atom_site_type_symbol
_atom_type_description
_atom_site_fract_x
_atom_site_fract_y
_atom_site_fract_z
_atom_type_partial_charge
C1    C     C_R   0.501425 0.497170 0.327354 0.903519
C2    C     C_R   0.551192 0.323786 0.947993 0.002484
C3    C     C_R   0.802317 0.434725 0.551811 -0.036960
C4    C     C_R   0.199020 0.551431 0.436516 -0.031593
C5    C     C_R   0.794117 0.563357 0.445105 0.044135
C6    C     C_R   0.205221 0.443588 0.561051 0.048976
C7    C     C_R   0.895823 0.555859 0.434939 -0.090449
C8    C     C_R   0.105436 0.432440 0.555487 -0.089058
C9    C     C_R   0.950158 0.493477 0.494231 0.067564
C10   C     C_R   0.051318 0.492279 0.494167 0.067794
C11   C     C_R   0.902993 0.432372 0.553673 -0.064131
C12   C     C_R   0.498639 0.502585 0.672714 0.894821
C13   C     C_R   0.098682 0.550681 0.432542 -0.067071
C14   C     C_R   0.944777 0.607035 0.367156 -0.086510
C15   C     C_R   0.058066 0.363783 0.608504 -0.094856
C16   C     C_R   0.515959 0.314945 0.501980 0.911432
C17   C     C_R   0.484080 0.685070 0.497804 0.899904
C18   C     C_R   0.045523 0.604944 0.366884 -0.029108
C19   C     C_R   0.957319 0.366534 0.609877 -0.035804
C20   C     C_1   0.473771 0.787376 0.490829 -0.054939
C21   C     C_1   0.526277 0.212767 0.509812 -0.037562
C22   C     C_2   0.461905 0.978144 0.485423 -0.134213
C23   C     C_R   0.495856 0.499872 0.953377 0.036476
C24   C     C_2   0.536025 0.022351 0.518539 -0.156221
C25   C     C_1   0.532644 0.125972 0.515327 0.048728
C26   C     C_1   0.466764 0.874298 0.486609 0.052254
C27   C     C_R   0.526062 0.417633 0.810886 -0.263267
C28   C     C_R   0.475702 0.582336 0.189324 -0.241415
C29   C     C_R   0.495467 0.504184 0.768034 -0.072268
C30   C     C_R   0.504554 0.495260 0.232147 -0.066746
C31   C     C_R   0.462544 0.589871 0.815161 -0.047853
C32   C     C_R   0.534147 0.408446 0.185232 -0.065857
C33   C     C_R   0.465381 0.588791 0.909074 0.071991
C34   C     C_R   0.498838 0.498128 0.047096 0.032202
C35   C     C_R   0.530221 0.409327 0.091319 0.072700
C36   C     C_2   0.624338 0.970271 0.557365 0.912090
C37   C     C_2   0.373435 0.029983 0.446403 0.863761
C38   C     C_R   0.426126 0.679599 0.766187 0.063053
C39   C     C_R   0.483507 0.756952 0.753827 -0.154308
C40   C     C_R   0.446252 0.844124 0.713609 -0.117579
C41   C     C_R   0.352582 0.853732 0.684056 -0.133576
C42   C     C_R   0.295597 0.776456 0.695021 -0.123742
C43   C     C_R   0.331970 0.689778 0.736628 -0.102321
C44   C     C_R   0.569890 0.318342 0.234375 0.073712
C45   C     C_R   0.523713 0.412833 0.903803 0.084448
C46   C     C_R   0.663541 0.308147 0.265359 -0.116324
C47   C     C_R   0.699639 0.220864 0.306314 -0.128547
C48   C     C_R   0.642831 0.143116 0.315740 -0.121402
C49   C     C_R   0.549211 0.153213 0.285797 -0.139408
C50   C     C_R   0.512437 0.240783 0.245717 -0.159803
C51   C     C_R   0.420680 0.768954 0.100343 0.114608
C52   C     C_R   0.482264 0.843339 0.091701 -0.148728
C53   C     C_R   0.461720 0.932580 0.137387 -0.160129
C54   C     C_R   0.379543 0.948182 0.191651 -0.090871
C55   C     C_R   0.317667 0.874691 0.200142 -0.099720
C56   C     C_R   0.472113 0.585586 0.096570 0.078474
C57   C     C_R   0.337745 0.785445 0.154299 -0.186229
C58   C     C_R   0.571913 0.229047 0.899309 0.115064
C59   C     C_R   0.662368 0.176619 0.903351 -0.135302
C60   C     C_R   0.681867 0.088025 0.856386 -0.119887
C61   C     C_R   0.611216 0.051050 0.805554 -0.085761
C62   C     C_R   0.520715 0.102353 0.801921 -0.144214
C63   C     C_R   0.500815 0.190686 0.849057 -0.169904
C64   C     C_2   0.736392 0.649486 0.409235 0.973473
C65   C     C_2   0.257830 0.408213 0.640852 0.966104
C66   C     C_R   0.894066 0.648388 0.287287 0.086425
C67   C     C_R   0.439280 0.674580 0.959310 -0.261193
C68   C     C_R   0.865277 0.584763 0.221282 -0.102166
C69   C     C_R   0.815450 0.622703 0.146995 -0.080933
C70   C     C_R   0.794570 0.724224 0.137901 -0.112385
C71   C     C_R   0.823810 0.788018 0.202890 -0.151196
C72   C     C_R   0.873564 0.750412 0.277341 -0.041286
C73   C     C_R   0.112521 0.280174 0.653596 0.101149
C74   C     C_R   0.158949 0.203489 0.601610 -0.017123
C75   C     C_R   0.210951 0.124671 0.643020 -0.069242
C76   C     C_R   0.216589 0.121509 0.736479 -0.151259
C77   C     C_R   0.169324 0.196941 0.788744 -0.130404
C78   C     C_R   0.556345 0.323559 0.040938 -0.269438
C79   C     C_R   0.116877 0.275907 0.747602 -0.082420
C80   C     C_2   0.095423 0.655093 0.293986 0.877902
C81   C     C_2   0.909356 0.298154 0.669206 0.873934
C82   C     C_R   0.443424 0.674268 0.052234 -0.000471
H1    H     H_    0.551734 0.354225 0.770359 0.159396
H2    H     H_    0.489949 0.904152 0.704960 0.144718
H3    H     H_    0.324550 0.920732 0.651996 0.127449
H4    H     H_    0.223059 0.784051 0.672008 0.149417
H5    H     H_    0.286622 0.631192 0.746793 0.186236
H6    H     H_    0.708742 0.367279 0.256769 0.142936
H7    H     H_    0.771914 0.213175 0.330012 0.146357
H8    H     H_    0.671063 0.075308 0.346888 0.152395
H9    H     H_    0.505270 0.093112 0.293683 0.144554
H10   H     H_    0.440157 0.247541 0.221895 0.146712
H11   H     H_    0.546369 0.831860 0.050130 0.127038
H12   H     H_    0.456386 0.647364 0.229880 0.149628
H13   H     H_    0.509529 0.989591 0.130785 0.136141
H14   H     H_    0.363662 0.017268 0.226965 0.141865
H15   H     H_    0.254177 0.887015 0.242277 0.172552
H16   H     H_    0.289353 0.728980 0.161252 0.173845
H17   H     H_    0.717865 0.204864 0.942022 0.140320
H18   H     H_    0.751869 0.048160 0.859179 0.135701
H19   H     H_    0.626698 0.982636 0.769118 0.134417
H20   H     H_    0.465925 0.073922 0.762570 0.126179
H21   H     H_    0.430339 0.229639 0.845931 0.137186
H22   H     H_    0.647763 0.706268 0.314277 0.328882
H23   H     H_    0.416038 0.743283 0.926883 0.171315
H24   H     H_    0.352433 0.307039 0.696020 0.324489
H25   H     H_    0.880477 0.505960 0.228038 0.124435
H26   H     H_    0.792561 0.573387 0.096749 0.131492
H27   H     H_    0.755553 0.753438 0.080615 0.124441
H28   H     H_    0.807352 0.866581 0.195888 0.134838
H29   H     H_    0.894566 0.800380 0.327999 0.178609
H30   H     H_    0.155369 0.205322 0.529138 0.128294
H31   H     H_    0.246981 0.066435 0.602367 0.137033
H32   H     H_    0.257382 0.060606 0.768398 0.130346
H33   H     H_    0.173488 0.194311 0.861103 0.139026
H34   H     H_    0.579309 0.254790 0.073348 0.166027
H35   H     H_    0.080797 0.334219 0.788554 0.151297
H36   H     H_    0.118482 0.782518 0.233431 0.333733
H37   H     H_    0.889681 0.157971 0.700276 0.353562
H38   H     H_    0.764049 0.385595 0.592422 0.174491
H39   H     H_    0.237528 0.594849 0.390390 0.166386
H40   H     H_    0.692749 0.846698 0.608251 0.360764
H41   H     H_    0.296946 0.156460 0.411898 0.338499
H42   H     H_    0.556068 0.750347 0.776929 0.143021
N1    N     N_R   0.750030 0.500040 0.500070 -0.152038
N2    N     N_R   0.249970 0.499960 0.499930 -0.152358
O1    O     O_R   0.580280 0.500020 0.367860 -0.586516
O2    O     O_R   0.629424 0.871171 0.581479 -0.794979
O3    O     O_2   0.311261 0.981418 0.419587 -0.644325
O4    O     O_R   0.359686 0.132369 0.439985 -0.805485
O5    O     O_2   0.737844 0.729195 0.446199 -0.625951
O6    O     O_R   0.683554 0.641516 0.331975 -0.793730
O7    O     O_2   0.241799 0.451296 0.712316 -0.669319
O8    O     O_R   0.322166 0.323940 0.636272 -0.780049
O9    O     O_2   0.147416 0.606559 0.240321 -0.640970
O10   O     O_R   0.082848 0.757379 0.287056 -0.810836
O11   O     O_2   0.856122 0.330862 0.730280 -0.637812
O12   O     O_R   0.419720 0.499980 0.632140 -0.612335
O13   O     O_R   0.925951 0.196713 0.655439 -0.780345
O14   O     O_R   0.419730 0.500030 0.367840 -0.625746
O15   O     O_R   0.580270 0.499970 0.632160 -0.615258
O16   O     O_R   0.591830 0.359650 0.500030 -0.637377
O17   O     O_R   0.408170 0.640350 0.499970 -0.628598
O18   O     O_R   0.431280 0.359660 0.500010 -0.556937
O19   O     O_R   0.568720 0.640340 0.499990 -0.586735
O20   O     O_2   0.693262 0.016047 0.569899 -0.616123
Zn1   Zn    Zn3+2 0.607200 0.499990 0.500020 0.985992
Zn2   Zn    Zn3+2 0.392800 0.500010 0.499980 0.985779

loop_
_geom_bond_atom_site_label_1
_geom_bond_atom_site_label_2
_ccdc_geom_bond_type
C66   C68   A    
C34   C56   A    
C16   C21   S    
C23   C45   A    
C12   C29   S    
C53   H13   S    
C59   H17   S    
C41   C42   A    
C40   H2    S    
C61   H19   S    
C16   O16   A    
O18   Zn2   S    
O14   Zn2   S    
C28   C56   A    
C53   C54   A    
C37   O4    S    
C81   O11   D    
C11   C19   A    
C24   C36   S    
C80   O9    D    
C13   C18   A    
C16   O18   A    
C74   H30   S    
C38   C39   A    
C27   C29   A    
C61   C62   A    
C44   C50   A    
C71   H28   S    
C17   C20   S    
C12   O15   A    
C28   H12   S    
C34   C35   A    
C73   C74   A    
C4    C13   A    
C14   C18   A    
C15   C19   A    
C6    C65   S    
C66   C72   A    
C64   O6    S    
O12   Zn2   S    
C68   C69   A    
C23   C33   A    
C76   H32   S    
C31   C33   A    
C70   C71   A    
C42   H4    S    
C68   H25   S    
C7    C14   A    
C9    C10   A    
C54   H14   S    
C65   O8    S    
C27   C45   A    
C72   H29   S    
C59   C60   A    
C48   H8    S    
C47   H7    S    
C36   O2    S    
C49   H9    S    
O19   Zn1   S    
C69   H26   S    
C44   C46   A    
C46   H6    S    
C77   C79   A    
C2    C45   A    
C14   C66   S    
O17   Zn2   S    
C74   C75   A    
C51   C52   A    
C32   C35   A    
C76   C77   A    
C6    N2    A    
C63   H21   S    
N1    Zn1   S    
C39   C40   A    
C5    C7    A    
N2    Zn2   S    
C67   H23   S    
C6    C8    A    
C58   C59   A    
C22   C37   S    
C39   H42   S    
C5    C64   S    
C60   C61   A    
C17   O19   A    
C75   C76   A    
C62   C63   A    
C2    C78   A    
C70   H27   S    
C47   C48   A    
C64   O5    D    
H24   O8    S    
C23   C34   A    
C55   H15   S    
C2    C58   S    
C73   C79   A    
C52   H11   S    
C46   C47   A    
C24   C25   S    
C9    C11   A    
C51   C82   S    
C1    O14   A    
C75   H31   S    
C50   H10   S    
C48   C49   A    
C15   C73   S    
C8    C15   A    
C55   C57   A    
H41   O4    S    
C22   C26   S    
C22   C24   D    
C42   C43   A    
H36   O10   S    
C52   C53   A    
C33   C67   A    
C36   O20   D    
C58   C63   A    
C81   O13   S    
C21   C25   T    
C54   C55   A    
C40   C41   A    
O16   Zn1   S    
C8    C10   A    
C78   H34   S    
C1    O1    A    
C60   H18   S    
C10   C13   A    
C3    N1    A    
C56   C82   A    
C41   H3    S    
C35   C78   A    
C80   O10   S    
C31   C38   S    
C4    N2    A    
C17   O17   A    
H37   O13   S    
C27   H1    S    
C43   H5    S    
C38   C43   A    
C29   C31   A    
C77   H33   S    
C30   C32   A    
C20   C26   T    
C57   H16   S    
C79   H35   S    
C28   C30   A    
C1    C30   S    
C37   O3    D    
C4    H39   S    
C12   O12   A    
H40   O2    S    
C69   C70   A    
C3    C11   A    
C3    H38   S    
O15   Zn1   S    
C7    C9    A    
C51   C57   A    
C71   C72   A    
C32   C44   S    
C67   C82   A    
C18   C80   S    
C49   C50   A    
H22   O6    S    
C5    N1    A    
C19   C81   S    
C65   O7    D    
O1    Zn1   S    
C62   H20   S    
