data_mof_unit_35209.cif
_audit_creation_date              2012-12-10T18:33:37-0500
_audit_creation_method            fapswitch 2.2
_symmetry_space_group_name_H-M    P1
_symmetry_Int_Tables_number       1
_space_group_crystal_system       triclinic
_cell_length_a                    10.508026
_cell_length_b                    15.002618
_cell_length_c                    15.471442
_cell_angle_alpha                 82.542337
_cell_angle_beta                  89.467902
_cell_angle_gamma                 104.007563
_cell_volume                      2344.39320153

loop_
_atom_site_label
_atom_site_type_symbol
_atom_type_description
_atom_site_fract_x
_atom_site_fract_y
_atom_site_fract_z
_atom_type_partial_charge
C1    C     C_R   0.478181 0.442045 0.662152 0.860687
C2    C     C_R   0.515040 0.557840 0.337923 0.863032
C3    C     C_R   0.448181 0.473143 0.811271 -0.250497
C4    C     C_R   0.464207 0.525324 0.189635 -0.256946
C5    C     C_R   0.404997 0.446489 0.898304 0.093896
C6    C     C_R   0.437375 0.550752 0.103225 0.093145
C7    C     C_R   0.366582 0.350562 0.930148 0.151964
C8    C     C_R   0.459216 0.646388 0.071532 0.164518
C9    C     C_R   0.408873 0.513232 0.955590 0.065579
C10   C     C_R   0.399287 0.483407 0.046218 0.055518
C11   C     C_R   0.354555 0.387411 0.076517 -0.206432
C12   C     C_R   0.424471 0.608725 0.925530 -0.207846
C13   C     C_R   0.335989 0.322158 0.018794 -0.196270
C14   C     C_R   0.446599 0.674036 0.983229 -0.202926
C15   C     C_R   0.690212 0.840083 0.640999 0.287510
C16   C     C_R   0.312858 0.160799 0.357099 0.287720
C17   C     C_R   0.659026 0.751805 0.616745 -0.043532
C18   C     C_R   0.342741 0.248710 0.382198 -0.042889
C19   C     C_R   0.516749 0.794550 0.509745 -0.079694
C20   C     C_R   0.482863 0.205334 0.490407 -0.078578
C21   C     C_R   0.543751 0.885894 0.530371 -0.045156
C22   C     C_R   0.457693 0.114488 0.468638 -0.046245
C23   C     C_R   0.742402 0.500351 0.500059 0.865243
C24   C     C_R   0.257612 0.499654 0.499929 0.859918
C25   C     C_R   0.632450 0.908125 0.597785 0.069190
C26   C     C_R   0.370254 0.092620 0.400479 0.074388
C27   C     C_R   0.485684 0.954922 0.486777 0.116719
C28   C     C_R   0.516391 0.045620 0.511835 0.115980
C29   C     C_R   0.605070 0.064635 0.579029 -0.249444
C30   C     C_R   0.398252 0.936239 0.418847 -0.250638
C31   C     C_R   0.661601 0.997462 0.620757 -0.139576
C32   C     C_R   0.342194 0.003563 0.376845 -0.138336
C33   C     C_3   0.930307 0.417413 0.482006 -0.123740
C34   C     C_3   0.069767 0.582601 0.517952 -0.123421
C35   C     C_3   0.017522 0.432121 0.561128 -0.178440
C36   C     C_3   0.982553 0.567895 0.438832 -0.177477
C37   C     C_3   0.122301 0.499740 0.499911 0.017372
C38   C     C_3   0.877757 0.500275 0.500051 0.014838
C39   C     C_3   0.037790 0.485236 0.420829 -0.173436
C40   C     C_3   0.962291 0.514782 0.579129 -0.174645
C41   C     C_R   0.444957 0.407819 0.754420 -0.065442
C42   C     C_R   0.502555 0.591281 0.246137 -0.062891
C43   C     C_R   0.362372 0.284520 0.873043 -0.184400
C44   C     C_R   0.496507 0.713012 0.128375 -0.183848
C45   C     C_R   0.400503 0.313075 0.785206 -0.189535
C46   C     C_R   0.517148 0.685490 0.215684 -0.191796
H1    H     H_    0.036436 0.376873 0.610723 0.145954
H2    H     H_    0.963704 0.623167 0.389241 0.145781
H3    H     H_    0.547178 0.229140 0.540660 0.139328
H4    H     H_    0.450598 0.770264 0.460568 0.139023
H5    H     H_    0.300441 0.302325 0.349560 0.161240
H6    H     H_    0.701930 0.698368 0.649069 0.168738
H7    H     H_    0.634115 0.131218 0.601487 0.138730
H8    H     H_    0.370596 0.869995 0.395605 0.138116
H9    H     H_    0.869754 0.349861 0.467375 0.156045
H10   H     H_    0.130335 0.650147 0.532586 0.155470
H11   H     H_    0.073217 0.473098 0.356575 0.145381
H12   H     H_    0.926950 0.526945 0.643391 0.145807
H13   H     H_    0.303188 0.249160 0.044128 0.184439
H14   H     H_    0.459693 0.746693 0.958057 0.162717
H15   H     H_    0.459871 0.453818 0.213311 0.164776
H16   H     H_    0.489047 0.545268 0.787251 0.166848
H17   H     H_    0.544775 0.737571 0.258971 0.163197
H18   H     H_    0.395647 0.261381 0.741753 0.164706
H19   H     H_    0.331063 0.211015 0.896517 0.151170
H20   H     H_    0.511181 0.786223 0.105062 0.148995
H21   H     H_    0.330681 0.361142 0.144563 0.173309
H22   H     H_    0.417297 0.634474 0.857729 0.156298
H23   H     H_    0.728760 0.016685 0.671620 0.202753
H24   H     H_    0.276195 0.984672 0.325296 0.203107
N1    N     N_R   0.574200 0.731700 0.552740 -0.127021
N2    N     N_R   0.425800 0.268300 0.447260 -0.125203
O1    O     O_R   0.462600 0.383110 0.605620 -0.617232
O2    O     O_R   0.537400 0.616890 0.394380 -0.616251
O3    O     O_R   0.510210 0.531900 0.639510 -0.621480
O4    O     O_R   0.489790 0.468100 0.360490 -0.620997
O5    O     O_R   0.662240 0.425610 0.483080 -0.622344
O6    O     O_R   0.337760 0.574390 0.516920 -0.625259
O7    O     O_R   0.709860 0.574400 0.516970 -0.612638
O8    O     O_R   0.290140 0.425600 0.483030 -0.614711
Zn1   Zn    Zn3+2 0.468210 0.400660 0.477370 0.945853
Zn2   Zn    Zn3+2 0.531790 0.599340 0.522630 0.945196
Cl1   Cl    Cl    0.800714 0.861297 0.725388 -0.639263
Cl2   Cl    Cl    0.205038 0.140414 0.271133 -0.663723

loop_
_geom_bond_atom_site_label_1
_geom_bond_atom_site_label_2
_ccdc_geom_bond_type
C25   C31   A    
C38   C40   S    
C33   H9    S    
C34   C37   S    
C19   N1    A    
C35   H1    S    
C34   H10   S    
C12   H22   S    
C33   C39   S    
C29   H7    S    
C34   C40   S    
C28   C29   A    
C35   C37   S    
C15   C25   A    
C39   H11   S    
C16   Cl2   S    
C42   C46   A    
C44   H20   S    
C24   O8    A    
C44   C46   A    
C7    C43   A    
C9    C10   A    
N2    Zn1   S    
C2    O2    A    
N1    Zn2   S    
C21   C27   A    
C22   C28   A    
C27   C30   A    
C18   N2    A    
O2    Zn2   S    
C17   H6    S    
O1    Zn1   S    
C11   H21   S    
C18   H5    S    
C16   C26   A    
C37   C39   S    
C40   H12   S    
C1    O3    A    
C4    C6    A    
C5    C7    A    
C32   H24   S    
C26   C32   A    
C6    C8    A    
C4    H15   S    
C5    C9    A    
C20   H3    S    
C30   H8    S    
O6    Zn2   S    
C31   H23   S    
O5    Zn1   S    
C43   H19   S    
C24   C37   S    
C23   O5    A    
C43   C45   A    
C24   O6    A    
C20   C22   A    
C17   N1    A    
C2    O4    A    
C3    H16   S    
C1    C41   S    
C15   C17   A    
C21   C25   A    
C3    C41   A    
C8    C14   A    
C19   C21   A    
C36   C39   S    
C8    C44   A    
C12   C14   A    
O8    Zn1   S    
C3    C5    A    
O4    Zn1   S    
C6    C10   A    
O7    Zn2   S    
C15   Cl1   S    
O3    Zn2   S    
C13   H13   S    
C23   C38   S    
C14   H14   S    
C45   H18   S    
C33   C38   S    
C46   H17   S    
C1    O1    A    
C36   C38   S    
C35   C40   S    
C29   C31   A    
C30   C32   A    
C11   C13   A    
C19   H4    S    
C4    C42   A    
C2    C42   S    
C33   C35   S    
C36   H2    S    
C34   C36   S    
C9    C12   A    
C10   C11   A    
C7    C13   A    
C16   C18   A    
C22   C26   A    
C27   C28   A    
C41   C45   A    
C20   N2    A    
C23   O7    A    
