data_mof_unit_13583.cif
_audit_creation_date              2012-10-26T19:52:44-0400
_audit_creation_method            fapswitch 2.2
_symmetry_space_group_name_H-M    P1
_symmetry_Int_Tables_number       1
_space_group_crystal_system       triclinic
_cell_length_a                    15.029827
_cell_length_b                    10.836883
_cell_length_c                    9.59507
_cell_angle_alpha                 90.198866
_cell_angle_beta                  89.125295
_cell_angle_gamma                 89.676572
_cell_volume                      1562.59429589

loop_
_atom_site_label
_atom_site_type_symbol
_atom_type_description
_atom_site_fract_x
_atom_site_fract_y
_atom_site_fract_z
_atom_type_partial_charge
C1    C     C_R   0.501917 0.263013 0.499633 0.534608
C2    C     C_R   0.187617 0.384618 0.525741 -0.008282
C3    C     C_R   0.232539 0.497467 0.503081 0.013800
C4    C     C_R   0.329296 0.497646 0.500877 0.533709
C5    C     C_R   0.186313 0.609605 0.480584 -0.032132
C6    C     C_R   0.505856 0.063339 0.620328 0.033076
C7    C     C_R   0.505368 0.130530 0.497854 -0.008769
C8    C     C_R   0.507776 0.064347 0.371075 -0.189271
C9    C     C_R   0.508246 0.935109 0.371681 -0.175592
C10   C     C_R   0.505049 0.870073 0.499010 0.002025
C11   C     C_R   0.505406 0.939000 0.621384 -0.017348
C12   C     C_R   0.904398 0.607938 0.484076 0.024530
C13   C     C_3   0.506182 0.932357 0.777025 -0.251585
C14   C     C_3   0.506871 0.074813 0.775085 0.023171
C15   C     C_R   0.573420 0.463437 0.071387 0.152033
C16   C     C_R   0.501776 0.737200 0.500110 0.532608
C17   C     C_R   0.425137 0.526966 0.077787 -0.021501
C18   C     C_R   0.424077 0.526836 0.930248 0.240103
C19   C     C_R   0.573541 0.464517 0.924347 0.097606
C20   C     C_3   0.663669 0.520982 0.915814 -0.252135
C21   C     C_3   0.664315 0.519100 0.074348 0.006428
C22   C     C_R   0.670494 0.499093 0.499283 0.550658
C23   C     C_R   0.952651 0.274124 0.537377 -0.134307
C24   C     C_R   0.811565 0.605915 0.483572 -0.162755
C25   C     C_R   0.766233 0.495296 0.498614 0.005169
C26   C     C_R   0.811749 0.383192 0.516061 0.122677
C27   C     C_R   0.905224 0.383721 0.517977 0.039662
C28   C     C_R   0.952011 0.496123 0.501832 -0.008791
C29   C     C_3   0.422835 0.148171 0.979383 -0.307737
C30   C     C_3   0.319167 0.678513 0.848133 -0.302200
C31   C     C_3   0.819821 0.479358 0.132360 -0.307755
C32   C     C_3   0.745575 0.205121 0.407131 -0.314951
C33   C     C_3   0.241883 0.265964 0.547965 -0.247542
C34   C     C_R   0.044625 0.274182 0.540223 -0.152540
C35   C     C_3   0.274632 0.206832 0.410265 -0.293486
C36   C     C_3   0.199611 0.157514 0.320579 -0.445228
C37   C     C_3   0.237826 0.727317 0.444455 -0.244624
C38   C     C_3   0.230216 0.757571 0.288394 -0.287803
C39   C     C_3   0.302002 0.847487 0.240510 -0.465277
C40   C     C_3   0.883781 0.864913 0.312297 -0.323981
C41   C     C_R   0.093417 0.384229 0.524121 0.027242
C42   C     C_R   0.046197 0.496634 0.504206 0.016017
C43   C     C_R   0.092271 0.609413 0.485775 -0.005987
C44   C     C_R   0.042897 0.719692 0.472378 -0.126289
C45   C     C_R   0.950318 0.719821 0.469869 0.137444
Cu1   Cu    Cu3+1 0.500000 0.499980 0.640670 0.954627
Cu2   Cu    Cu3+1 0.500000 0.500020 0.359330 0.908366
H1    H     H_    0.773414 0.690419 0.472347 0.145172
H2    H     H_    0.918977 0.186725 0.550484 0.146060
H3    H     H_    0.075383 0.185192 0.553172 0.107996
H4    H     H_    0.074676 0.808282 0.462760 0.102209
H5    H     H_    0.508923 0.111648 0.271878 0.130770
H6    H     H_    0.367269 0.095113 0.790657 0.244130
H7    H     H_    0.361568 0.199978 0.009810 0.138753
H8    H     H_    0.481206 0.202565 0.013059 0.153261
H9    H     H_    0.422478 0.057452 0.033050 0.125346
H10   H     H_    0.289261 0.502277 0.913690 0.218846
H11   H     H_    0.319859 0.728482 0.949334 0.102463
H12   H     H_    0.510660 0.886986 0.272632 0.130108
H13   H     H_    0.251755 0.686869 0.803125 0.130844
H14   H     H_    0.366747 0.720916 0.773967 0.181320
H15   H     H_    0.725487 0.344131 0.092684 0.238075
H16   H     H_    0.862075 0.414294 0.191652 0.148953
H17   H     H_    0.821691 0.570786 0.184651 0.153251
H18   H     H_    0.847269 0.487608 0.024672 0.133719
H19   H     H_    0.709122 0.277481 0.600129 0.257821
H20   H     H_    0.717172 0.113386 0.432476 0.144460
H21   H     H_    0.807611 0.190876 0.344526 0.142491
H22   H     H_    0.696566 0.257357 0.344723 0.179989
H23   H     H_    0.444340 0.892927 0.822213 0.124031
H24   H     H_    0.162793 0.083784 0.376630 0.143026
H25   H     H_    0.153265 0.232892 0.291536 0.168729
H26   H     H_    0.228273 0.117606 0.222963 0.129263
H27   H     H_    0.313854 0.274161 0.348335 0.189819
H28   H     H_    0.319523 0.128621 0.435426 0.147027
H29   H     H_    0.300873 0.286256 0.612015 0.160126
H30   H     H_    0.207142 0.197098 0.613419 0.115908
H31   H     H_    0.306648 0.926197 0.314195 0.160688
H32   H     H_    0.367067 0.798935 0.233908 0.170398
H33   H     H_    0.286077 0.883636 0.135640 0.124408
H34   H     H_    0.568915 0.891250 0.816104 0.114830
H35   H     H_    0.236875 0.671791 0.225116 0.164416
H36   H     H_    0.164114 0.798794 0.266919 0.151500
H37   H     H_    0.214639 0.806118 0.509889 0.109730
H38   H     H_    0.309143 0.719695 0.470525 0.161605
H39   H     H_    0.933036 0.906567 0.506557 0.241990
H40   H     H_    0.946317 0.879329 0.251287 0.133621
H41   H     H_    0.843731 0.951265 0.310421 0.134884
H42   H     H_    0.844548 0.790506 0.262974 0.145544
H43   H     H_    0.568842 0.118115 0.813659 0.134835
H44   H     H_    0.364981 0.550353 0.135001 0.125136
H45   H     H_    0.713162 0.457971 0.865122 0.141705
H46   H     H_    0.662151 0.615981 0.872410 0.124671
H47   H     H_    0.665234 0.611859 0.124590 0.147194
N1    N     N_R   0.500570 0.500930 0.147930 -0.265356
N2    N     N_R   0.500570 0.500890 0.852020 -0.206986
N3    N     N_2   0.425411 0.130571 0.829961 -0.491970
N4    N     N_2   0.341014 0.549707 0.867004 -0.460392
N5    N     N_2   0.729712 0.433585 0.129317 -0.501471
N6    N     N_2   0.764100 0.270687 0.534886 -0.537109
N7    N     N_2   0.903872 0.833909 0.454948 -0.527607
O1    O     O_R   0.500000 0.319640 0.618810 -0.477100
O2    O     O_R   0.500010 0.319680 0.381230 -0.517647
O3    O     O_R   0.370250 0.499950 0.618800 -0.460686
O4    O     O_R   0.370260 0.499990 0.381220 -0.525562
O5    O     O_R   0.499990 0.680320 0.618770 -0.506716
O6    O     O_R   0.500000 0.680360 0.381190 -0.516258
O7    O     O_R   0.629740 0.500010 0.618780 -0.521666
O8    O     O_R   0.629750 0.500050 0.381200 -0.472288

loop_
_geom_bond_atom_site_label_1
_geom_bond_atom_site_label_2
_ccdc_geom_bond_type
C20   H46   S    
C35   H27   S    
C5    C37   S    
C38   H36   S    
C18   N2    A    
C41   C42   A    
C19   C20   S    
C17   H44   S    
C7    C8    A    
C13   H23   S    
C15   C19   A    
Cu1   O1    S    
C35   H28   S    
C26   C27   A    
C12   C28   A    
C40   H40   S    
C37   H38   S    
C15   N1    A    
C38   C39   S    
C21   N5    S    
C23   H2    S    
C29   H7    S    
C2    C41   A    
C13   H34   S    
C12   C24   A    
H19   N6    S    
C14   H43   S    
C16   O6    A    
C40   N7    S    
C35   C36   S    
C8    C9    A    
Cu2   O4    S    
C22   C25   S    
C30   H13   S    
C37   H37   S    
C17   N1    A    
C23   C27   A    
C40   H42   S    
C9    C10   A    
C1    O2    A    
C36   H24   S    
C16   O5    A    
C32   H21   S    
C23   C34   A    
C5    C43   A    
C13   C14   S    
C38   H35   S    
C34   C41   A    
C34   H3    S    
Cu2   O2    S    
C24   H1    S    
C39   H31   S    
C31   H16   S    
C24   C25   A    
C36   H26   S    
C6    C11   A    
C29   H8    S    
H6    N3    S    
C25   C26   A    
Cu2   O8    S    
Cu1   O3    S    
C32   N6    S    
Cu1   O7    S    
C9    H12   S    
C39   H32   S    
C43   C44   A    
C37   C38   S    
C6    C14   S    
C20   H45   S    
C33   H29   S    
C22   O8    A    
C17   C18   A    
C32   H22   S    
C45   N7    S    
C32   H20   S    
C44   H4    S    
C31   N5    S    
C42   C43   A    
C3    C4    S    
C44   C45   A    
C2    C33   S    
C14   N3    S    
C31   H18   S    
C8    H5    S    
Cu1   Cu2   S    
C1    C7    S    
C31   H17   S    
C12   C45   A    
C3    C5    A    
C6    C7    A    
C29   H9    S    
C4    O4    A    
C30   N4    S    
Cu2   O6    S    
C29   N3    S    
C39   H33   S    
C40   H41   S    
C2    C3    A    
C10   C16   S    
C11   C13   S    
C33   H30   S    
C22   O7    A    
H10   N4    S    
C30   H11   S    
C28   C42   A    
C33   C35   S    
C4    O3    A    
C10   C11   A    
Cu1   O5    S    
H15   N5    S    
C15   C21   S    
Cu1   N2    S    
C20   C21   S    
C21   H47   S    
C30   H14   S    
C27   C28   A    
Cu2   N1    S    
C18   N4    S    
H39   N7    S    
C1    O1    A    
C19   N2    A    
C36   H25   S    
C26   N6    S    
