data_mof_unit_34196.cif
_audit_creation_date              2012-12-11T15:52:39-0500
_audit_creation_method            fapswitch 2.2
_symmetry_space_group_name_H-M    P1
_symmetry_Int_Tables_number       1
_space_group_crystal_system       triclinic
_cell_length_a                    6.967469
_cell_length_b                    14.711834
_cell_length_c                    15.943688
_cell_angle_alpha                 90.044473
_cell_angle_beta                  89.420854
_cell_angle_gamma                 90.652367
_cell_volume                      1634.10596374

loop_
_atom_site_label
_atom_site_type_symbol
_atom_type_description
_atom_site_fract_x
_atom_site_fract_y
_atom_site_fract_z
_atom_type_partial_charge
O1    O     O_R   0.494400 0.415640 0.412830 -0.544126
O2    O     O_R   0.823920 0.405510 0.586560 -0.500415
O3    O     O_R   0.994250 0.584360 0.587170 -0.530812
C1    C     C_R   0.653846 0.381703 0.614115 0.800036
O4    O     O_R   0.824110 0.404610 0.413450 -0.544378
O5    O     O_R   0.994440 0.583460 0.412820 -0.545384
C2    C     C_R   0.655929 0.383312 0.383569 0.691358
O6    O     O_R   0.494210 0.416540 0.587180 -0.534817
O7    O     O_3   0.660810 0.558680 0.500000 -0.382623
V1    V     V_3+5 0.935650 0.489110 0.500000 1.481512
O8    O     O_R   0.324150 0.594490 0.413440 -0.547367
C3    C     C_R   0.156838 0.615759 0.383723 0.679645
O9    O     O_R   0.323970 0.595390 0.586550 -0.551283
C4    C     C_R   0.155328 0.613194 0.618871 0.762791
V2    V     V_3+5 0.435660 0.510890 0.500000 1.428216
O10   O     O_3   0.160630 0.441320 0.500000 -0.355689
C5    C     C_3   0.948310 0.675323 0.740494 0.010183
H1    H     H_    0.835592 0.693622 0.696174 0.125926
C6    C     C_3   0.941265 0.745730 0.814761 -0.040204
H2    H     H_    0.818508 0.790227 0.802358 0.147109
H3    H     H_    0.984452 0.881700 0.713881 0.149804
C7    C     C_3   0.167799 0.781701 0.654357 0.019775
C8    C     C_3   0.301354 0.665996 0.758805 0.079455
C9    C     C_3   0.143960 0.682350 0.690638 -0.183435
H4    H     H_    0.265514 0.600850 0.790849 0.178117
C10   C     C_3   0.125118 0.807899 0.813762 -0.178313
C11   C     C_3   0.130448 0.853846 0.723942 0.048737
C12   C     C_3   0.295793 0.740587 0.828150 0.119132
H5    H     H_    0.266341 0.704041 0.888113 0.142426
H6    H     H_    0.316932 0.790529 0.631077 0.153453
C13   C     C_R   0.971576 0.805512 0.245325 0.190668
C14   C     C_R   0.988145 0.740657 0.309248 -0.185476
H7    H     H_    0.875657 0.735961 0.356503 0.147703
C15   C     C_R   0.148845 0.683993 0.314492 -0.131050
C16   C     C_R   0.295313 0.693040 0.252432 0.223299
C17   C     C_R   0.277101 0.757062 0.187906 -0.099072
H8    H     H_    0.389878 0.761855 0.140724 0.165457
C18   C     C_R   0.116790 0.813990 0.182978 -0.141173
C19   C     C_R   0.784226 0.240902 0.684524 0.154548
C20   C     C_R   0.776665 0.175099 0.749800 0.168932
C21   C     C_R   0.625987 0.176782 0.809806 -0.092981
C22   C     C_R   0.484930 0.242451 0.803148 -0.230338
H9    H     H_    0.368925 0.244583 0.848889 0.170840
C23   C     C_R   0.493190 0.308002 0.740543 0.126280
C24   C     C_R   0.643005 0.309534 0.680294 -0.100212
C25   C     C_R   0.796475 0.304966 0.253416 0.223629
C26   C     C_R   0.779799 0.239648 0.189496 -0.107579
H10   H     H_    0.894584 0.234654 0.143388 0.162086
C27   C     C_R   0.618317 0.181898 0.183638 -0.146294
C28   C     C_R   0.470521 0.190844 0.244780 0.185390
C29   C     C_R   0.485431 0.257062 0.308023 -0.187348
H11   H     H_    0.370947 0.261958 0.354222 0.151788
C30   C     C_R   0.647237 0.314605 0.314150 -0.129390
O11   O     O_R   0.771300 0.080930 0.910090 -0.519784
O12   O     O_R   0.441270 0.092800 0.083770 -0.525889
O13   O     O_R   0.271080 0.913920 0.084380 -0.534895
C31   C     C_R   0.609358 0.113599 0.114058 0.763367
O14   O     O_R   0.441580 0.091910 0.910670 -0.558631
O15   O     O_R   0.271390 0.913020 0.910040 -0.557798
C32   C     C_R   0.611907 0.111024 0.880008 0.726792
O16   O     O_R   0.770990 0.081830 0.084440 -0.532615
O17   O     O_3   0.604750 0.938760 0.997250 -0.375693
V3    V     V_3+5 0.329850 0.008280 0.997210 1.470630
O18   O     O_R   0.941680 0.901940 0.910610 -0.535506
C33   C     C_R   0.111357 0.879028 0.882823 0.723098
O19   O     O_R   0.941370 0.902830 0.083720 -0.517826
C34   C     C_R   0.108635 0.881973 0.113724 0.779192
V4    V     V_3+5 0.829860 0.986420 0.997150 1.517574
O20   O     O_3   0.104830 0.056030 0.997180 -0.365533
N1    N     N_3   0.484249 0.784039 0.838628 -0.610831
H12   H     H_    0.495856 0.846292 0.808550 0.227242
H13   H     H_    0.510738 0.794450 0.902343 0.265413
N2    N     N_3   0.260550 0.932715 0.713448 -0.658199
H14   H     H_    0.253150 0.977411 0.764143 0.233012
H15   H     H_    0.402491 0.914512 0.701673 0.226184
I1    I     I_    0.729235 0.891863 0.253604 -0.354228
N3    N     N_3   0.461790 0.636720 0.251348 -0.643609
H16   H     H_    0.417967 0.568548 0.253604 0.229462
H17   H     H_    0.544702 0.651845 0.303886 0.247310
N4    N     N_3   0.931319 0.236506 0.620990 -0.638935
H18   H     H_    0.065436 0.240564 0.649541 0.254273
H19   H     H_    0.919650 0.174171 0.589892 0.230726
N5    N     N_3   0.918377 0.105257 0.754185 -0.669203
H20   H     H_    0.915578 0.067414 0.698718 0.233478
H21   H     H_    0.053737 0.135788 0.760166 0.237713
I2    I     I_    0.863737 0.537702 0.776613 -0.312606
I3    I     I_    0.276355 0.404060 0.749185 -0.373922
N6    N     N_3   0.964599 0.362009 0.252962 -0.650893
H22   H     H_    0.045627 0.347693 0.306021 0.248556
H23   H     H_    0.922800 0.430032 0.254447 0.229468
I4    I     I_    0.226139 0.103091 0.252554 -0.357863
I5    I     I_    0.876748 0.691265 0.940684 -0.342081
N7    N     N_3   0.045733 0.799914 0.581597 -0.641076
H24   H     H_    0.901762 0.785087 0.594569 0.219876
H25   H     H_    0.089447 0.760330 0.530536 0.223983
N8    N     N_3   0.495554 0.656184 0.724995 -0.598323
H26   H     H_    0.513817 0.589541 0.704326 0.272237
H27   H     H_    0.522893 0.700351 0.675243 0.217821

loop_
_geom_bond_atom_site_label_1
_geom_bond_atom_site_label_2
_ccdc_geom_bond_type
O19   V4    S    
N7    H24   S    
N2    H14   S    
C16   C17   A    
C1    O6    A    
C26   C27   A    
O11   C32   A    
N3    H16   S    
C10   C11   S    
N5    H20   S    
O18   V4    S    
C17   H8    S    
O5    C3    A    
O11   V4    S    
O14   C32   A    
V2    O10   S    
C27   C31   S    
C8    N8    S    
C25   C30   A    
C15   C16   A    
C21   C22   A    
C4    C9    S    
C6    C10   S    
C6    I5    S    
O8    V2    S    
C26   H10   S    
V4    O20   S    
N8    H27   S    
C8    C9    S    
N1    H12   S    
O1    V2    S    
C23   I3    S    
O7    V1    S    
C19   C24   A    
O19   C34   A    
H3    C11   S    
N7    H25   S    
O9    C4    A    
N2    H15   S    
C20   N5    S    
C22   C23   A    
C28   C29   A    
C25   N6    S    
C1    C24   S    
N3    H17   S    
C5    C9    S    
C29   H11   S    
V3    O20   S    
N4    H19   S    
C19   C20   A    
O4    C2    A    
C16   N3    S    
C5    I2    S    
O12   V3    S    
C29   C30   A    
C14   C15   A    
O2    C1    A    
O17   V3    S    
C13   C14   A    
N8    H26   S    
C5    H1    S    
O13   V3    S    
C8    C12   S    
N6    H22   S    
O3    C4    A    
C20   C21   A    
N5    H21   S    
N6    H23   S    
O6    V2    S    
C7    C11   S    
O9    V2    S    
C7    N7    S    
C7    C9    S    
C22   H9    S    
C2    C30   S    
C3    C15   S    
O2    V1    S    
C23   C24   A    
O14   V3    S    
C25   C26   A    
C12   H5    S    
C7    H6    S    
O1    C2    A    
C10   C33   S    
C10   C12   S    
C12   N1    S    
C21   C32   S    
N4    H18   S    
O5    V1    S    
O8    C3    A    
C31   O16   A    
O13   C34   A    
O15   V3    S    
C13   C18   A    
O17   V4    S    
C14   H7    S    
C6    H2    S    
O12   C31   A    
O7    V2    S    
O4    V1    S    
O3    V1    S    
V1    O10   S    
C19   N4    S    
O16   V4    S    
C13   I1    S    
O18   C33   A    
C17   C18   A    
C5    C6    S    
C8    H4    S    
C28   I4    S    
C18   C34   S    
C27   C28   A    
N1    H13   S    
C11   N2    S    
O15   C33   A    
