data_mof_unit_49905.cif
_audit_creation_date              2012-12-10T17:48:23-0500
_audit_creation_method            fapswitch 2.2
_symmetry_space_group_name_H-M    P1
_symmetry_Int_Tables_number       1
_space_group_crystal_system       triclinic
_cell_length_a                    13.882913
_cell_length_b                    14.697831
_cell_length_c                    14.683512
_cell_angle_alpha                 116.197733
_cell_angle_beta                  106.691794
_cell_angle_gamma                 72.020962
_cell_volume                      2516.78335375

loop_
_atom_site_label
_atom_site_type_symbol
_atom_type_description
_atom_site_fract_x
_atom_site_fract_y
_atom_site_fract_z
_atom_type_partial_charge
C1    C     C_R   0.517985 0.119568 0.689255 0.826662
C2    C     C_R   0.586596 0.494551 0.883703 0.092777
C3    C     C_R   0.620251 0.382680 0.114501 0.161322
C4    C     C_R   0.545801 0.601097 0.901264 0.158807
C5    C     C_R   0.313065 0.305373 0.341175 -0.039672
C6    C     C_R   0.692547 0.690408 0.651738 -0.044980
C7    C     C_R   0.348750 0.217120 0.365603 0.713984
C8    C     C_R   0.653102 0.781382 0.631946 0.712967
C9    C     C_R   0.492734 0.281983 0.482910 0.639275
C10   C     C_R   0.508959 0.716606 0.514987 0.638914
C11   C     C_R   0.462458 0.372718 0.460767 -0.213095
C12   C     C_R   0.483881 0.880210 0.310863 0.834769
C13   C     C_R   0.540713 0.624713 0.535198 -0.202110
C14   C     C_R   0.363998 0.389551 0.399561 -0.156113
C15   C     C_R   0.640752 0.606533 0.593574 -0.159375
C16   C     C_R   0.687104 0.986634 0.504060 0.807779
C17   C     C_R   0.312892 0.013378 0.495955 0.818301
C18   C     C_R   0.523862 0.449021 0.500393 0.018769
C19   C     C_R   0.479618 0.547992 0.494686 0.017856
C20   C     C_R   0.374190 0.568902 0.453903 -0.191954
C21   C     C_R   0.629728 0.427077 0.538639 -0.214843
C22   C     C_R   0.318172 0.491140 0.404338 0.612973
C23   C     C_R   0.575667 0.354004 0.930492 0.044589
C24   C     C_R   0.686919 0.503883 0.585585 0.589348
C25   C     C_1   0.207225 0.021453 0.493731 -0.112079
C26   C     C_1   0.792760 0.978623 0.506360 -0.117015
C27   C     C_2   0.012676 0.034719 0.490366 -0.150897
C28   C     C_2   0.987299 0.965490 0.509865 -0.147912
C29   C     C_1   0.881619 0.972129 0.508141 0.028425
C30   C     C_1   0.118360 0.028020 0.492020 0.033816
C31   C     C_R   0.538554 0.187267 0.799880 -0.173084
C32   C     C_R   0.486719 0.809912 0.201675 -0.174693
C33   C     C_R   0.586828 0.213113 0.980633 -0.266837
C34   C     C_R   0.545671 0.633879 0.080542 0.044722
C35   C     C_R   0.482620 0.778389 0.024186 -0.265601
C36   C     C_R   0.561671 0.148879 0.877528 0.630581
C37   C     C_R   0.467245 0.847139 0.123781 0.625804
C38   C     C_R   0.541206 0.290712 0.827877 -0.320076
C39   C     C_R   0.518276 0.703038 0.176820 -0.317818
C40   C     C_3   0.227144 0.302326 0.248585 -0.301177
C41   C     C_3   0.261107 0.218819 0.148285 -0.751373
C42   C     C_3   0.786183 0.689191 0.736975 -0.297113
C43   C     C_3   0.763025 0.769222 0.842865 -0.780924
C44   C     C_3   0.635082 0.346549 0.201496 -0.413700
C45   C     C_R   0.593412 0.316717 0.009513 0.013319
C46   C     C_3   0.531838 0.346746 0.219408 -0.801400
C47   C     C_3   0.521018 0.637524 0.812821 -0.428659
C48   C     C_3   0.407215 0.645748 0.764382 -0.783572
C49   C     C_3   0.696354 0.542488 0.236030 -0.432100
C50   C     C_3   0.808792 0.483852 0.239688 -0.782773
C51   C     C_3   0.653200 0.426337 0.801162 -0.402205
C52   C     C_3   0.750734 0.466145 0.824301 -0.784154
C53   C     C_R   0.523426 0.671188 0.000736 0.014093
C54   C     C_R   0.582511 0.457259 0.956511 -0.008886
C55   C     C_R   0.585458 0.526622 0.059802 -0.009583
C56   C     C_R   0.627498 0.485259 0.137596 0.114554
Cu1   Cu    Cu3+1 0.526370 0.916390 0.524860 1.073139
Cu2   Cu    Cu3+1 0.473630 0.083610 0.475140 1.072702
F1    F     F_    0.433396 0.949938 0.143224 -0.644417
F2    F     F_    0.558913 0.049433 0.854592 -0.645853
F3    F     F_    0.215526 0.520670 0.374269 -0.683702
F4    F     F_    0.790139 0.472381 0.609844 -0.696540
F5    F     F_    0.428555 0.727928 0.439715 -0.662346
F6    F     F_    0.574397 0.269800 0.556688 -0.688352
F7    F     F_    0.704840 0.859637 0.679286 -0.632259
F8    F     F_    0.296698 0.139101 0.318217 -0.626217
H1    H     H_    0.045671 0.903507 0.527130 0.174229
H2    H     H_    0.276374 0.139841 0.147413 0.324647
H3    H     H_    0.199258 0.223370 0.081885 0.231356
H4    H     H_    0.158608 0.287373 0.259999 0.230312
H5    H     H_    0.202770 0.375246 0.235849 0.262829
H6    H     H_    0.742396 0.849616 0.846233 0.320929
H7    H     H_    0.699221 0.754191 0.861838 0.232116
H8    H     H_    0.832249 0.763068 0.902611 0.236259
H9    H     H_    0.814470 0.614569 0.746215 0.258948
H10   H     H_    0.850369 0.705052 0.719047 0.234089
H11   H     H_    0.486537 0.427547 0.248799 0.264369
H12   H     H_    0.954304 0.096701 0.473096 0.172587
H13   H     H_    0.486061 0.300310 0.147603 0.251762
H14   H     H_    0.545542 0.313099 0.277548 0.248719
H15   H     H_    0.686573 0.268613 0.185042 0.200789
H16   H     H_    0.673386 0.396473 0.276252 0.225004
H17   H     H_    0.387625 0.568173 0.730604 0.255026
H18   H     H_    0.357924 0.700292 0.822475 0.257864
H19   H     H_    0.390843 0.674414 0.701897 0.248054
H20   H     H_    0.543124 0.712515 0.838901 0.200128
H21   H     H_    0.564846 0.584706 0.750283 0.219541
H22   H     H_    0.818752 0.406031 0.239531 0.247708
H23   H     H_    0.331692 0.646458 0.462820 0.226791
H24   H     H_    0.837477 0.474485 0.172109 0.254827
H25   H     H_    0.856533 0.528771 0.311041 0.259692
H26   H     H_    0.698123 0.619027 0.239983 0.221129
H27   H     H_    0.667813 0.557611 0.305765 0.207547
H28   H     H_    0.732735 0.545805 0.826329 0.247168
H29   H     H_    0.796732 0.466396 0.900039 0.249279
H30   H     H_    0.798156 0.414115 0.763825 0.287143
H31   H     H_    0.681350 0.346048 0.798248 0.237383
H32   H     H_    0.608680 0.420503 0.723767 0.249598
H33   H     H_    0.671547 0.349106 0.528956 0.227009
H34   H     H_    0.522731 0.673894 0.234164 0.208395
H35   H     H_    0.516266 0.321913 0.768575 0.206150
H36   H     H_    0.602193 0.179224 0.036621 0.181420
H37   H     H_    0.463936 0.811612 0.967197 0.183146
H38   H     H_    0.331698 0.231181 0.138095 0.244311
N1    N     N_R   0.433980 0.209250 0.437830 -0.278162
N2    N     N_R   0.566020 0.790750 0.562170 -0.281205
O1    O     O_R   0.534760 0.019630 0.662610 -0.485030
O2    O     O_R   0.465240 0.980370 0.337390 -0.487480
O3    O     O_R   0.490220 0.160840 0.620610 -0.563917
O4    O     O_R   0.509780 0.839160 0.379390 -0.563990
O5    O     O_R   0.663260 0.919400 0.523940 -0.540609
O6    O     O_R   0.336740 0.080600 0.476060 -0.537830
O7    O     O_R   0.618720 0.060610 0.481950 -0.533089
O8    O     O_R   0.381280 0.939390 0.518050 -0.531722

loop_
_geom_bond_atom_site_label_1
_geom_bond_atom_site_label_2
_ccdc_geom_bond_type
C43   H7    S    
C55   C56   A    
C11   C18   A    
C51   H31   S    
C43   H6    S    
C23   C45   A    
C40   H5    S    
C4    C53   A    
C35   C53   A    
C18   C21   A    
C33   C45   A    
C19   C20   A    
C27   H12   S    
C16   O7    A    
C10   F5    S    
C12   O4    A    
Cu1   Cu2   S    
C42   H9    S    
C40   H4    S    
Cu2   O6    S    
C41   H3    S    
C28   C29   S    
C35   C37   A    
C38   H35   S    
C35   H37   S    
C46   H13   S    
C21   H33   S    
C11   C14   A    
C9    N1    A    
C9    F6    S    
C1    C31   S    
C33   C36   A    
C52   H29   S    
C18   C19   A    
C32   C39   A    
C1    O3    A    
C6    C15   A    
C50   H24   S    
C47   C48   S    
Cu2   O7    S    
C7    N1    A    
C52   H28   S    
C26   C29   T    
C50   H22   S    
Cu2   O3    S    
C43   H8    S    
Cu1   N2    S    
C34   C55   A    
C12   C32   S    
C27   C30   S    
C48   H17   S    
C44   C46   S    
C17   O8    A    
C41   H2    S    
C16   C26   S    
C3    C44   S    
C13   C19   A    
C33   H36   S    
C47   H20   S    
C28   H1    S    
C44   H15   S    
C2    C54   A    
C5    C7    A    
C6    C8    A    
C3    C45   A    
C34   C39   A    
C47   H21   S    
C2    C4    A    
C3    C56   A    
Cu1   O4    S    
C32   C37   A    
C9    C11   A    
C5    C14   A    
C37   F1    S    
C1    O1    A    
C40   C41   S    
Cu1   O1    S    
C20   C22   A    
C13   C15   A    
C10   N2    A    
C42   C43   S    
C49   H26   S    
C49   C56   S    
C17   O6    A    
C23   C54   A    
C12   O2    A    
C25   C30   T    
C54   C55   A    
C15   C24   A    
C24   F4    S    
C48   H19   S    
C42   H10   S    
C36   F2    S    
C10   C13   A    
C8    N2    A    
C46   H11   S    
C31   C38   A    
Cu1   O8    S    
C23   C38   A    
C20   H23   S    
C44   H16   S    
C41   H38   S    
Cu2   N1    S    
C17   C25   S    
C14   C22   A    
C51   C52   S    
C7    F8    S    
C46   H14   S    
C39   H34   S    
Cu1   O5    S    
C51   H32   S    
C52   H30   S    
Cu2   O2    S    
C2    C51   S    
C48   H18   S    
C50   H25   S    
C8    F7    S    
C34   C53   A    
C49   C50   S    
C6    C42   S    
C21   C24   A    
C27   C28   D    
C31   C36   A    
C49   H27   S    
C5    C40   S    
C16   O5    A    
C22   F3    S    
C4    C47   S    
