data_mof_unit_25911.cif
_audit_creation_date              2012-12-11T16:36:16-0500
_audit_creation_method            fapswitch 2.2
_symmetry_space_group_name_H-M    P1
_symmetry_Int_Tables_number       1
_space_group_crystal_system       triclinic
_cell_length_a                    25.735496
_cell_length_b                    7.267109
_cell_length_c                    23.273151
_cell_angle_alpha                 90.238303
_cell_angle_beta                  104.20148
_cell_angle_gamma                 90.215234
_cell_volume                      4219.49880746

loop_
_atom_site_label
_atom_site_type_symbol
_atom_type_description
_atom_site_fract_x
_atom_site_fract_y
_atom_site_fract_z
_atom_type_partial_charge
O1    O     O_R   0.438720 0.630760 0.439780 -0.535890
O2    O     O_R   0.061280 0.869240 0.060220 -0.535678
O3    O     O_R   0.561280 0.130760 0.560220 -0.536255
O4    O     O_R   0.938720 0.369240 0.939780 -0.535303
O5    O     O_R   0.546380 0.956770 0.446270 -0.538657
O6    O     O_R   0.953620 0.543230 0.053730 -0.539469
O7    O     O_R   0.453620 0.456770 0.553730 -0.540357
O8    O     O_R   0.046380 0.043230 0.946270 -0.539719
C1    C     C_R   0.562019 0.791538 0.433699 0.692671
C2    C     C_R   0.937269 0.708062 0.065195 0.698254
C3    C     C_R   0.437707 0.291636 0.565888 0.692658
C4    C     C_R   0.062541 0.208269 0.934379 0.699664
O9    O     O_R   0.438210 0.960230 0.432810 -0.540790
O10   O     O_R   0.061790 0.539770 0.067190 -0.541950
O11   O     O_R   0.561790 0.460230 0.567190 -0.536618
O12   O     O_R   0.938210 0.039770 0.932810 -0.533918
O13   O     O_R   0.452340 0.134240 0.546660 -0.536283
O14   O     O_R   0.047660 0.365760 0.953340 -0.539504
O15   O     O_R   0.547660 0.634240 0.453340 -0.537069
O16   O     O_R   0.952340 0.865760 0.046660 -0.533916
C5    C     C_R   0.419752 0.790052 0.415403 0.681872
C6    C     C_R   0.082151 0.709226 0.081879 0.683074
C7    C     C_R   0.580225 0.291846 0.584401 0.689318
C8    C     C_R   0.918912 0.207614 0.917125 0.686713
O17   O     O_3   0.504760 0.798440 0.537370 -0.377192
O18   O     O_3   0.995240 0.701560 0.962630 -0.374979
O19   O     O_3   0.495240 0.298440 0.462630 -0.378042
O20   O     O_3   0.004760 0.201560 0.037370 -0.378350
V1    V     V_3+5 0.499120 0.071860 0.493070 1.374348
V2    V     V_3+5 0.000880 0.428140 0.006930 1.381225
V3    V     V_3+5 0.500880 0.571860 0.506930 1.378435
V4    V     V_3+5 0.999120 0.928140 0.993070 1.389110
C9    C     C_R   0.677674 0.152469 0.730174 -0.166103
C10   C     C_R   0.770857 0.223362 0.837124 -0.161241
C11   C     C_R   0.309996 0.606413 0.283982 -0.176475
C12   C     C_R   0.216473 0.879192 0.179554 -0.176399
H1    H     H_    0.679318 0.059498 0.766818 0.105705
H2    H     H_    0.732233 0.220503 0.847881 0.107584
H3    H     H_    0.299533 0.484306 0.256590 0.105703
H4    H     H_    0.245809 0.987963 0.181495 0.107888
C13   C     C_R   0.629946 0.163908 0.684899 0.146307
C14   C     C_R   0.817749 0.209128 0.883382 0.140665
C15   C     C_R   0.358568 0.613241 0.327930 0.131856
C16   C     C_R   0.171426 0.867946 0.131011 0.143522
C17   C     C_R   0.627935 0.282275 0.635836 -0.054425
C18   C     C_R   0.868514 0.216080 0.869976 -0.046759
C19   C     C_R   0.371657 0.775470 0.364041 -0.061142
C20   C     C_R   0.133062 0.723338 0.129142 -0.059690
C21   C     C_R   0.673146 0.390723 0.635298 -0.203915
C22   C     C_R   0.871055 0.237650 0.810865 -0.198854
C23   C     C_R   0.336715 0.926952 0.351455 -0.207738
C24   C     C_R   0.143509 0.590351 0.174272 -0.210434
H5    H     H_    0.672477 0.483133 0.598715 0.121738
H6    H     H_    0.909592 0.243841 0.799939 0.108343
H7    H     H_    0.345347 0.052514 0.377339 0.126445
H8    H     H_    0.115600 0.478151 0.173907 0.132158
C25   C     C_R   0.720040 0.379024 0.680975 -0.144111
C26   C     C_R   0.824170 0.251753 0.765312 -0.136492
C27   C     C_R   0.289600 0.918484 0.306229 -0.155937
C28   C     C_R   0.189488 0.601198 0.220957 -0.153889
H9    H     H_    0.753866 0.465565 0.678938 0.115078
H10   H     H_    0.827742 0.265797 0.720149 0.111493
H11   H     H_    0.263622 0.037412 0.297881 0.111544
H12   H     H_    0.196356 0.496550 0.254967 0.114011
C29   C     C_R   0.723143 0.258789 0.728874 0.064856
C30   C     C_R   0.773365 0.244840 0.777693 0.063796
C31   C     C_R   0.275440 0.757054 0.272915 0.074068
C32   C     C_R   0.225865 0.747169 0.224400 0.069078
C33   C     C_R   0.395771 0.117404 0.635908 -0.186439
C34   C     C_R   0.131705 0.379404 0.895868 -0.182095
C35   C     C_R   0.604941 0.613230 0.364952 -0.201914
C36   C     C_R   0.855693 0.585141 0.092041 -0.179084
H13   H     H_    0.420208 0.999841 0.631182 0.135846
H14   H     H_    0.126646 0.496426 0.922977 0.128630
H15   H     H_    0.581995 0.493538 0.371809 0.127404
H16   H     H_    0.853096 0.480581 0.058151 0.114700
C37   C     C_R   0.359884 0.102616 0.672613 0.163745
C38   C     C_R   0.169082 0.391894 0.860894 0.164482
C39   C     C_R   0.639660 0.598926 0.326828 0.165888
C40   C     C_R   0.816449 0.590649 0.124829 0.171480
C41   C     C_R   0.327032 0.254609 0.677996 0.052304
C42   C     C_R   0.175665 0.239978 0.825017 0.052512
C43   C     C_R   0.669634 0.755288 0.317616 0.067526
C44   C     C_R   0.819817 0.728069 0.168984 0.045035
C45   C     C_R   0.330933 0.416062 0.646461 -0.176091
C46   C     C_R   0.144692 0.080681 0.825049 -0.178531
C47   C     C_R   0.663162 0.921828 0.345710 -0.187584
C48   C     C_R   0.861537 0.858326 0.178049 -0.178802
H17   H     H_    0.305237 0.531574 0.649300 0.116575
H18   H     H_    0.149014 0.964267 0.797416 0.117786
H19   H     H_    0.686201 0.041751 0.339447 0.118579
H20   H     H_    0.864725 0.964001 0.211712 0.126725
C49   C     C_R   0.367610 0.430292 0.611187 -0.169534
C50   C     C_R   0.108327 0.069076 0.860760 -0.179875
C51   C     C_R   0.627939 0.934835 0.382785 -0.171999
C52   C     C_R   0.899347 0.854230 0.143880 -0.175028
H21   H     H_    0.369570 0.557187 0.587550 0.123505
H22   H     H_    0.085405 0.943422 0.859989 0.130253
H23   H     H_    0.624317 0.065369 0.404050 0.123380
H24   H     H_    0.930878 0.957160 0.151571 0.127065
C53   C     C_R   0.400254 0.280700 0.605241 -0.075828
C54   C     C_R   0.101214 0.218658 0.896397 -0.083858
C55   C     C_R   0.598706 0.780314 0.393269 -0.073135
C56   C     C_R   0.897240 0.715705 0.101245 -0.075438
C57   C     C_R   0.232992 0.255776 0.689954 -0.164511
C58   C     C_R   0.269818 0.236822 0.813303 -0.144914
C59   C     C_R   0.696147 0.835032 0.224094 -0.156949
C60   C     C_R   0.793923 0.652444 0.263021 -0.138652
H25   H     H_    0.218286 0.263072 0.642251 0.115063
H26   H     H_    0.284515 0.228640 0.860963 0.115313
H27   H     H_    0.658372 0.905784 0.208507 0.115503
H28   H     H_    0.831716 0.581820 0.278586 0.112946
C61   C     C_R   0.196332 0.251288 0.725529 -0.164973
C62   C     C_R   0.306470 0.240702 0.777730 -0.146418
C63   C     C_R   0.732177 0.826686 0.187784 -0.172973
C64   C     C_R   0.757542 0.658328 0.298978 -0.165497
H29   H     H_    0.153787 0.255835 0.704881 0.115242
H30   H     H_    0.348985 0.237722 0.798458 0.116926
H31   H     H_    0.721426 0.888975 0.144386 0.109395
H32   H     H_    0.767787 0.592627 0.341945 0.106486
C65   C     C_R   0.214518 0.242935 0.787439 0.074315
C66   C     C_R   0.288303 0.249421 0.715784 0.073730
C67   C     C_R   0.781410 0.736120 0.207119 0.081522
C68   C     C_R   0.708233 0.748626 0.279600 0.095494
C69   C     C_3   0.581502 0.056101 0.692408 -0.379039
C70   C     C_3   0.540098 0.183355 0.708497 -0.749022
H33   H     H_    0.558208 0.259433 0.750138 0.226589
H34   H     H_    0.524786 0.283740 0.672651 0.212576
H35   H     H_    0.505862 0.100661 0.715408 0.216435
H36   H     H_    0.563140 0.975302 0.652035 0.205567
H37   H     H_    0.593415 0.953587 0.728538 0.172797
C71   C     C_3   0.812381 0.188640 0.946402 -0.385299
C72   C     C_3   0.809287 0.986309 0.962585 -0.735422
H38   H     H_    0.846002 0.912618 0.958743 0.233382
H39   H     H_    0.805670 0.975282 0.009040 0.217708
H40   H     H_    0.773732 0.919658 0.932850 0.219863
H41   H     H_    0.846603 0.255077 0.978245 0.166676
H42   H     H_    0.775674 0.259650 0.951841 0.174351
C73   C     C_3   0.395021 0.446859 0.332239 -0.343234
C74   C     C_3   0.446416 0.492558 0.313299 -0.698969
H43   H     H_    0.436464 0.538614 0.266434 0.211361
H44   H     H_    0.469878 0.602384 0.341392 0.213349
H45   H     H_    0.471812 0.367819 0.317137 0.207606
H46   H     H_    0.403859 0.385911 0.377076 0.202947
H47   H     H_    0.374633 0.334012 0.302637 0.160547
C75   C     C_3   0.168314 0.006727 0.081515 -0.354126
C76   C     C_3   0.176023 0.914897 0.025007 -0.735847
H48   H     H_    0.142704 0.818386 0.005987 0.216635
H49   H     H_    0.177392 0.021673 0.991444 0.219913
H50   H     H_    0.214473 0.838565 0.034639 0.218457
H51   H     H_    0.130559 0.086074 0.072671 0.198518
H52   H     H_    0.200421 0.112503 0.094731 0.164799
C77   C     C_3   0.355513 0.919614 0.701885 -0.379809
C78   C     C_3   0.405072 0.881019 0.751683 -0.750333
H53   H     H_    0.441046 0.867039 0.733736 0.220311
H54   H     H_    0.411808 0.993664 0.785093 0.222018
H55   H     H_    0.399275 0.750066 0.773790 0.222998
H56   H     H_    0.319493 0.911503 0.719944 0.191347
H57   H     H_    0.351130 0.809492 0.667926 0.174664
C79   C     C_3   0.199235 0.571381 0.861374 -0.377888
C80   C     C_3   0.241647 0.597894 0.919471 -0.751805
H58   H     H_    0.222866 0.598924 0.957616 0.222776
H59   H     H_    0.271606 0.485664 0.925557 0.222707
H60   H     H_    0.262577 0.731409 0.918657 0.221649
H61   H     H_    0.218876 0.580098 0.824022 0.191474
H62   H     H_    0.170350 0.686865 0.855794 0.176414
C81   C     C_3   0.643166 0.416593 0.296343 -0.380573
C82   C     C_3   0.612262 0.420010 0.231402 -0.736627
H63   H     H_    0.569673 0.456129 0.227791 0.224659
H64   H     H_    0.630078 0.520882 0.206078 0.230416
H65   H     H_    0.613732 0.281723 0.211386 0.212834
H66   H     H_    0.685588 0.379281 0.299853 0.179749
H67   H     H_    0.625784 0.305127 0.318400 0.174845
C83   C     C_3   0.771636 0.449798 0.110775 -0.386653
C84   C     C_3   0.792158 0.258686 0.131249 -0.740498
H68   H     H_    0.824341 0.215712 0.109887 0.229929
H69   H     H_    0.807737 0.257340 0.180184 0.228014
H70   H     H_    0.758737 0.158443 0.118571 0.214053
H71   H     H_    0.738600 0.484519 0.131782 0.192093
H72   H     H_    0.754003 0.446913 0.062123 0.171253

loop_
_geom_bond_atom_site_label_1
_geom_bond_atom_site_label_2
_ccdc_geom_bond_type
C26   H10   S    
C6    C20   S    
C48   C52   A    
O1    C5    A    
C70   H33   S    
C7    C17   S    
C47   H19   S    
C34   C38   A    
O13   V1    S    
C33   C37   A    
C76   H48   S    
C10   C14   A    
C74   H45   S    
C40   C44   A    
O15   V3    S    
C10   C30   A    
C35   C39   A    
C80   H58   S    
C9    C29   A    
C84   H69   S    
C44   C67   S    
O7    C3    A    
O5    C1    A    
C22   H6    S    
C58   C62   A    
C57   C61   A    
C76   H49   S    
C74   H44   S    
C34   H14   S    
O16   V4    S    
O4    C8    A    
C51   H23   S    
C82   H64   S    
O19   V1    S    
C50   H22   S    
C71   H42   S    
O1    V3    S    
C21   C25   A    
O2    V4    S    
C14   C18   A    
C77   H56   S    
O3    V1    S    
C38   C42   A    
C83   C84   S    
C35   C55   A    
C46   C50   A    
C37   C77   S    
C45   C49   A    
C69   H36   S    
C1    O15   A    
C82   H65   S    
C3    O13   A    
C48   H20   S    
C2    O16   A    
C71   C72   S    
C51   C55   A    
C47   C51   A    
O2    C6    A    
C72   H40   S    
C16   C75   S    
C33   H13   S    
O14   V2    S    
C79   H62   S    
C43   C68   S    
C11   C15   A    
C42   C65   S    
C78   H54   S    
C1    C55   S    
C81   H67   S    
C27   C31   A    
O11   C7    A    
O12   C8    A    
C59   C68   A    
O10   V2    S    
C80   H59   S    
C26   C30   A    
C84   H70   S    
O5    V1    S    
O7    V3    S    
C31   C32   S    
O8    V4    S    
C13   C69   S    
C12   H4    S    
C76   H50   S    
C63   C67   A    
C74   H43   S    
C78   H55   S    
C46   H18   S    
C49   C53   A    
C81   C82   S    
C45   H17   S    
O18   V4    S    
C19   C23   A    
C36   C56   A    
C70   H35   S    
O3    C7    A    
C42   C46   A    
O11   V3    S    
C9    H1    S    
C62   C66   A    
C64   H32   S    
C22   C26   A    
C77   H57   S    
C11   H3    S    
C4    C54   S    
C73   H46   S    
C69   H37   S    
C84   H68   S    
C11   C31   A    
O8    C4    A    
C34   C54   A    
C17   C21   A    
O9    C5    A    
C36   H16   S    
C3    C53   S    
C79   H61   S    
C15   C73   S    
C59   C63   A    
C78   H53   S    
C62   H30   S    
C61   H29   S    
C38   C79   S    
C82   H63   S    
O6    V2    S    
C63   H31   S    
C52   C56   A    
C69   C70   S    
C75   H52   S    
C12   C16   A    
C23   C27   A    
C60   C67   A    
C49   H21   S    
C80   H60   S    
C75   C76   S    
C58   H26   S    
O9    V1    S    
C57   H25   S    
C73   H47   S    
C70   H34   S    
C64   C68   A    
C10   H2    S    
C59   H27   S    
O17   V3    S    
C44   C48   A    
C25   C29   A    
C43   C47   A    
O6    C2    A    
C73   C74   S    
C12   C32   A    
C25   H9    S    
C81   H66   S    
C33   C53   A    
O12   V4    S    
C18   C22   A    
C83   H72   S    
C27   H11   S    
C41   C66   S    
C28   H12   S    
C9    C13   A    
C79   C80   S    
C60   C64   A    
C2    C56   S    
C71   H41   S    
C40   C83   S    
C36   C40   A    
C16   C20   A    
C35   H15   S    
O10   C6    A    
C72   H38   S    
C21   H5    S    
C52   H24   S    
C58   C65   A    
O20   V2    S    
C57   C66   A    
C23   H7    S    
C37   C41   A    
O4    V2    S    
C75   H51   S    
C39   C43   A    
C60   H28   S    
C20   C24   A    
C61   C65   A    
C28   C32   A    
C24   C28   A    
C29   C30   S    
C4    O14   A    
C72   H39   S    
C13   C17   A    
C14   C71   S    
C39   C81   S    
C77   C78   S    
C15   C19   A    
C83   H71   S    
C41   C45   A    
C24   H8    S    
C50   C54   A    
C8    C18   S    
C5    C19   S    
