data_mof_unit_29785.cif
_audit_creation_date              2012-12-10T17:56:42-0500
_audit_creation_method            fapswitch 2.2
_symmetry_space_group_name_H-M    P1
_symmetry_Int_Tables_number       1
_space_group_crystal_system       triclinic
_cell_length_a                    10.753994
_cell_length_b                    9.524272
_cell_length_c                    10.839425
_cell_angle_alpha                 87.997001
_cell_angle_beta                  90.771379
_cell_angle_gamma                 90.369574
_cell_volume                      1109.41811541

loop_
_atom_site_label
_atom_site_type_symbol
_atom_type_description
_atom_site_fract_x
_atom_site_fract_y
_atom_site_fract_z
_atom_type_partial_charge
C1    C     C_R   0.262430 0.499881 0.496087 0.784386
C2    C     C_R   0.737610 0.500687 0.496886 0.816086
C3    C     C_R   0.933249 0.580089 0.394772 0.175381
C4    C     C_R   0.064615 0.576600 0.392185 0.178591
C5    C     C_R   0.419451 0.076853 0.424640 0.465289
C6    C     C_R   0.577113 0.073070 0.580141 0.499457
C7    C     C_R   0.423173 0.927474 0.422542 -0.176714
C8    C     C_R   0.575313 0.922044 0.579151 -0.161987
C9    C     C_R   0.502343 0.503498 0.261451 0.778691
C10   C     C_R   0.489836 0.498073 0.736981 0.790536
C11   C     C_R   0.455743 0.770145 0.099686 -0.241470
C12   C     C_R   0.362128 0.720849 0.865355 -0.207147
C13   C     C_R   0.401685 0.880698 0.029124 0.183351
C14   C     C_R   0.347493 0.853577 0.913634 0.222798
C15   C     C_R   0.431952 0.615707 0.929401 0.053217
C16   C     C_R   0.462648 0.632532 0.054562 0.059703
C17   C     C_R   0.502305 0.511406 0.126027 -0.093127
C18   C     C_R   0.475553 0.496012 0.870305 -0.091878
C19   C     C_R   0.531913 0.387935 0.066447 -0.199268
C20   C     C_R   0.523359 0.382424 0.939564 -0.223508
C21   C     C_R   0.064944 0.422389 0.578195 -0.255074
C22   C     C_R   0.937010 0.423114 0.578829 -0.238286
C23   C     C_R   0.871479 0.502568 0.489743 -0.062949
C24   C     C_R   0.128643 0.500182 0.487737 -0.053534
Cu1   Cu    Cu3+1 0.500000 0.640660 0.500000 0.924942
Cu2   Cu    Cu3+1 0.500000 0.359340 0.500000 1.007094
H1    H     H_    0.565863 0.296118 0.117926 0.167154
H2    H     H_    0.556086 0.290029 0.895106 0.171495
H3    H     H_    0.500071 0.798091 0.184720 0.184426
H4    H     H_    0.320379 0.700819 0.776208 0.163598
H5    H     H_    0.114752 0.362677 0.649867 0.147608
H6    H     H_    0.888691 0.363884 0.650761 0.156495
H7    H     H_    0.365030 0.871451 0.358503 0.153022
H8    H     H_    0.632229 0.858387 0.641317 0.164268
N1    N     N_R   0.500000 0.852070 0.500000 -0.190575
N2    N     N_R   0.500000 0.147940 0.500000 -0.220555
O1    O     O_R   0.319640 0.618740 0.499990 -0.583473
O2    O     O_R   0.680360 0.618740 0.500010 -0.582891
O3    O     O_R   0.319620 0.381170 0.499990 -0.561776
O4    O     O_R   0.680380 0.381170 0.500010 -0.545796
O5    O     O_R   0.500000 0.618810 0.319650 -0.605525
O6    O     O_R   0.500000 0.618810 0.680350 -0.586051
O7    O     O_R   0.499970 0.381240 0.319640 -0.535479
O8    O     O_R   0.500030 0.381240 0.680360 -0.543332
C25   C     C_3   0.404461 0.026959 0.076760 -0.840912
H9    H     H_    0.458574 0.032717 0.164193 0.241374
H10   H     H_    0.449546 0.098811 0.008256 0.226090
H11   H     H_    0.308379 0.062678 0.092328 0.247213
C26   C     C_3   0.280800 0.966551 0.838083 -0.891637
H12   H     H_    0.242920 0.926313 0.750151 0.224837
H13   H     H_    0.201979 0.007200 0.891169 0.232826
H14   H     H_    0.346022 0.054023 0.814649 0.239059
C27   C     C_3   0.857424 0.661053 0.296883 -0.866614
H15   H     H_    0.789142 0.589434 0.253368 0.215148
H16   H     H_    0.807083 0.747758 0.339792 0.246063
H17   H     H_    0.912956 0.709894 0.221599 0.235711
C28   C     C_3   0.134092 0.647477 0.285746 -0.891614
H18   H     H_    0.235396 0.628166 0.287763 0.236912
H19   H     H_    0.099945 0.605723 0.197046 0.232553
H20   H     H_    0.119673 0.762763 0.285824 0.231384
O9    O     O_3   0.341864 0.152697 0.344237 -0.582042
C29   C     C_3   0.216010 0.116390 0.365889 0.049497
H21   H     H_    0.192198 0.133281 0.464059 0.153044
H22   H     H_    0.196464 0.005298 0.343922 0.117507
C30   C     C_3   0.132363 0.208612 0.282034 -0.303375
H23   H     H_    0.154354 0.320807 0.295765 0.235055
H24   H     H_    0.150254 0.187078 0.183917 0.203318
C31   C     C_3   0.994959 0.181329 0.307887 -0.914397
H25   H     H_    0.969968 0.071037 0.287661 0.250225
H26   H     H_    0.937120 0.253014 0.248345 0.257199
H27   H     H_    0.974287 0.200495 0.405897 0.270811
O10   O     O_3   0.648549 0.150268 0.663043 -0.579558
C32   C     C_3   0.742607 0.073912 0.728301 0.007663
H28   H     H_    0.816201 0.149862 0.754591 0.156265
H29   H     H_    0.790983 0.998509 0.669447 0.128202
C33   C     C_3   0.692101 0.006041 0.848573 -0.370295
H30   H     H_    0.679327 0.088368 0.917205 0.208066
H31   H     H_    0.600027 0.956223 0.832393 0.230658
C34   C     C_3   0.780873 0.895439 0.903258 -0.890818
H32   H     H_    0.791811 0.808850 0.838279 0.255443
H33   H     H_    0.742718 0.850865 0.991038 0.260831
H34   H     H_    0.873277 0.943259 0.922591 0.251115

loop_
_geom_bond_atom_site_label_1
_geom_bond_atom_site_label_2
_ccdc_geom_bond_type
C15   C18   A    
C10   O6    A    
C11   C13   A    
C32   H28   S    
C3    C23   A    
C19   C20   A    
C33   C34   S    
Cu2   O8    S    
C27   H15   S    
C27   H17   S    
C6    O10   S    
C21   H5    S    
C22   H6    S    
C33   H31   S    
C4    C24   A    
Cu2   O3    S    
C28   H19   S    
C14   C26   S    
C15   C16   A    
C5    N2    A    
C29   H22   S    
Cu1   O1    S    
C16   C17   A    
C30   H24   S    
C4    C28   S    
C19   H1    S    
C1    O1    A    
C26   H14   S    
C25   H10   S    
C13   C14   A    
C32   H29   S    
Cu2   O7    S    
C27   H16   S    
C9    O7    A    
C7    H7    S    
C10   O8    A    
C33   H30   S    
Cu1   O5    S    
C5    C7    A    
C31   H25   S    
C28   H20   S    
C6    C8    A    
C20   H2    S    
C26   H13   S    
Cu1   Cu2   S    
C25   H9    S    
C8    N1    A    
C29   H21   S    
Cu1   O2    S    
C11   C16   A    
C2    O2    A    
C12   C15   A    
C30   C31   S    
C5    O9    S    
C8    H8    S    
Cu1   N1    S    
C9    C17   S    
C12   C14   A    
C30   H23   S    
C32   C33   S    
C3    C4    A    
C34   H33   S    
C25   H11   S    
Cu2   N2    S    
C29   C30   S    
C12   H4    S    
C7    N1    A    
O10   C32   S    
Cu1   O6    S    
C34   H34   S    
C9    O5    A    
C13   C25   S    
C3    C27   S    
Cu2   O4    S    
C28   H18   S    
C10   C18   S    
C31   H27   S    
C17   C19   A    
C6    N2    A    
C18   C20   A    
O9    C29   S    
C1    O3    A    
C34   H32   S    
C2    O4    A    
C11   H3    S    
C1    C24   S    
C31   H26   S    
C26   H12   S    
C21   C24   A    
C2    C23   S    
C22   C23   A    
C21   C22   A    
