data_mof_unit_29749.cif
_audit_creation_date              2013-03-05T15:49:32-0500
_audit_creation_method            fapswitch 2.2
_symmetry_space_group_name_H-M    P1
_symmetry_Int_Tables_number       1
_space_group_crystal_system       triclinic
_cell_length_a                    19.43802
_cell_length_b                    12.96709
_cell_length_c                    11.81253
_cell_angle_alpha                 102.189681
_cell_angle_beta                  95.204502
_cell_angle_gamma                 94.317541
_cell_volume                      2884.60342851

loop_
_atom_site_label
_atom_site_type_symbol
_atom_site_description
_atom_site_fract_x
_atom_site_fract_y
_atom_site_fract_z
_atom_type_partial_charge
O1    O     O_R   0.503640 0.354460 0.582000 -0.549693
O2    O     O_R   0.496360 0.645540 0.418000 -0.585379
O3    O     O_R   0.494980 0.341410 0.386200 -0.525553
O4    O     O_R   0.505020 0.658590 0.613800 -0.518178
C1    C     C_R   0.503357 0.298369 0.475661 0.891263
C2    C     C_R   0.496810 0.701639 0.524484 0.875560
O5    O     O_R   0.404470 0.506520 0.597930 -0.642602
O6    O     O_R   0.595530 0.493480 0.402070 -0.644535
O7    O     O_R   0.395820 0.493460 0.402130 -0.507204
O8    O     O_R   0.604180 0.506540 0.597870 -0.508023
C3    C     C_R   0.367479 0.507076 0.499448 0.841272
C4    C     C_R   0.632544 0.492970 0.500564 0.831534
Cu1   Cu    Cu3+1 0.505120 0.507730 0.615930 1.033621
Cu2   Cu    Cu3+1 0.494880 0.492270 0.384070 1.018082
C5    C     C_R   0.262800 0.559740 0.604469 -0.071628
C6    C     C_R   0.737124 0.439650 0.395545 -0.073579
C7    C     C_R   0.189853 0.558223 0.606340 0.115022
C8    C     C_R   0.810081 0.441668 0.393271 0.113639
C9    C     C_R   0.145616 0.514159 0.503072 -0.003938
C10   C     C_R   0.854428 0.486771 0.496120 -0.003981
C11   C     C_R   0.173196 0.479584 0.396947 0.131160
C12   C     C_R   0.827006 0.521983 0.602245 0.131026
C13   C     C_R   0.245421 0.494954 0.392120 0.190548
C14   C     C_R   0.754850 0.506264 0.607555 0.193810
C15   C     C_R   0.291203 0.521348 0.498032 -0.178703
C16   C     C_R   0.708870 0.478848 0.501917 -0.179110
N1    N     N_R   0.037054 0.443139 0.561257 -0.227923
N2    N     N_R   0.962965 0.557709 0.437722 -0.228045
N3    N     N_R   0.968256 0.435614 0.557918 -0.226607
N4    N     N_R   0.031767 0.565233 0.441058 -0.226507
C17   C     C_R   0.930178 0.492527 0.495891 0.415918
C18   C     C_R   0.069847 0.508336 0.503114 0.415660
C19   C     C_R   0.489451 0.817594 0.544720 -0.127923
C20   C     C_R   0.510743 0.182375 0.456243 -0.125282
C21   C     C_R   0.480355 0.001144 0.342706 0.063461
C22   C     C_R   0.518945 0.998693 0.659057 0.067975
C23   C     C_R   0.490888 0.111000 0.347292 -0.029976
C24   C     C_R   0.509801 0.888618 0.653801 -0.032072
C25   C     C_R   0.537555 0.140533 0.549864 -0.025461
C26   C     C_R   0.461617 0.859764 0.452176 -0.043283
C27   C     C_R   0.514661 0.035307 0.553480 0.029766
C28   C     C_R   0.484340 0.964986 0.448514 0.027200
N5    N     N_R   0.512830 0.519350 0.790130 -0.227957
N6    N     N_R   0.487170 0.480650 0.209870 -0.236389
C29   C     C_R   0.420452 0.418600 0.019121 0.013632
C30   C     C_R   0.579705 0.576135 0.980396 0.031071
C31   C     C_R   0.435869 0.411664 0.136801 0.199295
C32   C     C_R   0.565357 0.585229 0.863641 0.187464
C33   C     C_R   0.529941 0.544613 0.160162 0.132881
C34   C     C_R   0.467689 0.457837 0.838578 0.137840
C35   C     C_R   0.527761 0.529388 0.035327 0.016051
C36   C     C_R   0.470834 0.468539 0.963302 -0.021882
C37   C     C_2   0.309674 0.613257 0.710782 0.395413
H1    H     H_    0.354130 0.666065 0.703094 0.146230
O9    O     O_2   0.300164 0.597341 0.806617 -0.566526
C38   C     C_2   0.690064 0.384422 0.290158 0.407608
H2    H     H_    0.645483 0.332726 0.299516 0.146820
O10   O     O_2   0.699617 0.397436 0.193246 -0.561812
C39   C     C_3   0.347051 0.382433 0.961293 -0.870412
H3    H     H_    0.309390 0.384663 0.026792 0.220990
H4    H     H_    0.329293 0.437328 0.906941 0.270770
H5    H     H_    0.343821 0.300035 0.909083 0.254261
C40   C     C_3   0.654113 0.602636 0.037121 -0.822734
H6    H     H_    0.690672 0.576818 0.972126 0.218804
H7    H     H_    0.665704 0.689135 0.072427 0.251883
H8    H     H_    0.665207 0.559413 0.107155 0.269290
C41   C     C_3   0.159961 0.607568 0.717588 -0.724880
H9    H     H_    0.103692 0.616098 0.705219 0.213057
H10   H     H_    0.168215 0.558204 0.782876 0.261223
H11   H     H_    0.185498 0.688942 0.753315 0.236944
C42   C     C_3   0.839900 0.391705 0.282174 -0.724682
H12   H     H_    0.896314 0.384212 0.294257 0.212991
H13   H     H_    0.814863 0.309855 0.247676 0.237459
H14   H     H_    0.830974 0.440047 0.216048 0.261221
C43   C     C_3   0.124785 0.425382 0.288717 -0.828677
H15   H     H_    0.098896 0.485635 0.250677 0.249147
H16   H     H_    0.152159 0.376684 0.221403 0.234079
H17   H     H_    0.084788 0.369218 0.310692 0.236099
C44   C     C_3   0.875566 0.576870 0.710040 -0.829367
H18   H     H_    0.848248 0.625341 0.777594 0.234075
H19   H     H_    0.901968 0.517056 0.748066 0.249219
H20   H     H_    0.915144 0.633305 0.687461 0.236048
C45   C     C_3   0.270105 0.491712 0.273258 -0.720973
H21   H     H_    0.231271 0.521491 0.216298 0.213817
H22   H     H_    0.317019 0.545925 0.275615 0.280575
H23   H     H_    0.277052 0.409334 0.230597 0.234811
C46   C     C_3   0.730604 0.509757 0.726701 -0.732030
H24   H     H_    0.769437 0.479147 0.782890 0.213943
H25   H     H_    0.724501 0.592360 0.769812 0.232889
H26   H     H_    0.683412 0.456348 0.724998 0.280631
C47   C     C_2   0.396532 0.806019 0.380109 0.369871
H27   H     H_    0.370404 0.842033 0.315586 0.096224
O11   O     O_2   0.368002 0.724908 0.398123 -0.577208
C48   C     C_2   0.601909 0.194868 0.623848 0.372588
H28   H     H_    0.627328 0.159348 0.689432 0.094689
O12   O     O_2   0.630818 0.275897 0.606267 -0.578444
C49   C     C_2   0.515175 0.852366 0.764918 0.436698
H29   H     H_    0.559232 0.882286 0.829781 0.060750
O13   O     O_2   0.467981 0.795800 0.788617 -0.552977
C50   C     C_2   0.487911 0.146436 0.235735 0.424345
H30   H     H_    0.445588 0.114711 0.168088 0.058672
O14   O     O_2   0.535394 0.204180 0.214811 -0.557401
C51   C     C_3   0.472770 0.924598 0.224367 -0.814604
H31   H     H_    0.515403 0.944062 0.173538 0.256510
H32   H     H_    0.476603 0.841359 0.230050 0.275417
H33   H     H_    0.422217 0.930091 0.175206 0.209224
C52   C     C_3   0.525212 0.074569 0.777685 -0.827328
H34   H     H_    0.482754 0.052939 0.827779 0.250953
H35   H     H_    0.575871 0.070617 0.827388 0.210611
H36   H     H_    0.519928 0.157624 0.772438 0.278722
C53   C     C_2   0.419438 0.374447 0.760381 0.456417
H37   H     H_    0.371636 0.393472 0.718696 0.088989
O15   O     O_2   0.430853 0.281759 0.747598 -0.581116
C54   C     C_2   0.572314 0.638136 0.235250 0.409696
H38   H     H_    0.604343 0.633064 0.312630 0.114434
O16   O     O_2   0.571755 0.724643 0.210167 -0.586151
C55   C     C_2   0.605434 0.676268 0.832980 0.368394
H39   H     H_    0.626108 0.743494 0.902260 0.055586
O17   O     O_2   0.618131 0.679613 0.735146 -0.546814
C56   C     C_2   0.398482 0.319304 0.169106 0.379190
H40   H     H_    0.382775 0.248548 0.101377 0.050541
O18   O     O_2   0.381120 0.319647 0.265240 -0.548021

loop_
_geom_bond_atom_site_label_1
_geom_bond_atom_site_label_2
_geom_bond_distance
_ccdc_geom_bond_type
N6    C33   1.383589 A    
C46   H24   1.110568 S    
C40   H7    1.109113 S    
N1    N3    1.329883 A    
C20   C23   1.419498 A    
C27   C28   1.423133 A    
C53   H37   1.081432 S    
O7    Cu2   1.957299 S    
C54   H38   1.075056 S    
C25   C27   1.413602 A    
C37   H1    1.084110 S    
O5    C3    1.312607 A    
C13   C45   1.517791 S    
O1    C1    1.311199 A    
C5    C37   1.489312 S    
C9    C11   1.407385 A    
C14   C16   1.429975 A    
C12   C44   1.522160 S    
C21   C51   1.521732 S    
C55   O17   1.212305 D    
C5    C15   1.427032 A    
C3    C15   1.506958 S    
C38   H2    1.083379 S    
C29   C31   1.418295 A    
O4    Cu1   1.961825 S    
C21   C28   1.422444 A    
C50   H30   1.084217 S    
C42   H14   1.109844 S    
C53   O15   1.219084 D    
C33   C35   1.442119 A    
C34   C36   1.445571 A    
C52   H34   1.110756 S    
N5    C32   1.385948 A    
N6    C31   1.386747 A    
C14   C46   1.517113 S    
C26   C28   1.412890 A    
C33   C54   1.482776 S    
C40   H8    1.107547 S    
C39   H3    1.109897 S    
Cu1   Cu2   2.691533 S    
C22   C52   1.521605 S    
C52   H35   1.110139 S    
C22   C27   1.422960 A    
O2    C2    1.312277 A    
C24   C49   1.482514 S    
C9    C18   1.469078 S    
C49   O13   1.220610 D    
C56   O18   1.212883 D    
C49   H29   1.084605 S    
C37   O9    1.220333 D    
C6    C16   1.427008 A    
C30   C32   1.413382 A    
C39   H4    1.108083 S    
C19   C26   1.405867 A    
C7    C41   1.520974 S    
C41   H9    1.107214 S    
O4    C2    1.296836 A    
C47   H27   1.082936 S    
C42   H13   1.110390 S    
C29   C36   1.419566 A    
C30   C35   1.414489 A    
C20   C25   1.407276 A    
C4    C16   1.507562 S    
C41   H10   1.109837 S    
C43   H15   1.109967 S    
C6    C38   1.489177 S    
C25   C48   1.494634 S    
C47   O11   1.219480 D    
O7    C3    1.303837 A    
C45   H21   1.110453 S    
O5    Cu1   1.947203 S    
O6    C4    1.312802 A    
C1    C20   1.492771 S    
C50   O14   1.220280 D    
C51   H32   1.103125 S    
C48   O12   1.219568 D    
C43   H16   1.108807 S    
O3    Cu2   1.961826 S    
O8    C4    1.303958 A    
C31   C56   1.490096 S    
C45   H22   1.103247 S    
C10   C12   1.407221 A    
C11   C13   1.411067 A    
C52   H36   1.103617 S    
C12   C14   1.411015 A    
O1    Cu1   1.940207 S    
Cu1   N5    2.022172 S    
C56   H40   1.085644 S    
Cu2   N6    2.022174 S    
C8    C42   1.520994 S    
C5    C7    1.418828 A    
C29   C39   1.519656 S    
C39   H5    1.109282 S    
O6    Cu2   1.947203 S    
C21   C23   1.412648 A    
N1    C18   1.355084 A    
N2    C17   1.355101 A    
C40   H6    1.110298 S    
O3    C1    1.298568 A    
O8    Cu1   1.957302 S    
C44   H20   1.110589 S    
C54   O16   1.219760 D    
N5    C34   1.382816 A    
C32   C55   1.491620 S    
C11   C43   1.522072 S    
C44   H19   1.109935 S    
C19   C24   1.420022 A    
C2    C19   1.491717 S    
C30   C40   1.520227 S    
C41   H11   1.110398 S    
N2    N4    1.329964 A    
C35   C36   1.408942 A    
N3    C17   1.357032 A    
C55   H39   1.085096 S    
N4    C18   1.357110 A    
C22   C24   1.412510 A    
C34   C53   1.473247 S    
C7    C9    1.412558 A    
C38   O10   1.220209 D    
C51   H33   1.110132 S    
C8    C10   1.412511 A    
C13   C15   1.430256 A    
C26   C47   1.494067 S    
C48   H28   1.082562 S    
O2    Cu2   1.940205 S    
C43   H17   1.110593 S    
C44   H18   1.108658 S    
C42   H12   1.107159 S    
C45   H23   1.104537 S    
C6    C8    1.419201 A    
C46   H26   1.103009 S    
C51   H31   1.110738 S    
C46   H25   1.104740 S    
C23   C50   1.482195 S    
C10   C17   1.468981 S    
