data_mof_unit_61981.cif
_audit_creation_date              2012-12-10T18:39:49-0500
_audit_creation_method            fapswitch 2.2
_symmetry_space_group_name_H-M    P1
_symmetry_Int_Tables_number       1
_space_group_crystal_system       triclinic
_cell_length_a                    15.114647
_cell_length_b                    13.845243
_cell_length_c                    23.587869
_cell_angle_alpha                 89.999944
_cell_angle_beta                  90.253806
_cell_angle_gamma                 90.0
_cell_volume                      4936.08963411

loop_
_atom_site_label
_atom_site_type_symbol
_atom_type_description
_atom_site_fract_x
_atom_site_fract_y
_atom_site_fract_z
_atom_type_partial_charge
C1    C     C_R   0.329954 0.500003 0.499986 0.845943
C2    C     C_R   0.670046 0.500003 0.500014 0.845943
C3    C     C_R   0.528564 0.424817 0.236023 0.263166
C4    C     C_R   0.471435 0.424816 0.763977 0.263166
C5    C     C_R   0.531006 0.419657 0.295562 0.210965
C6    C     C_R   0.468994 0.419657 0.704438 0.210965
C7    C     C_R   0.504084 0.500631 0.328043 -0.248031
C8    C     C_R   0.495917 0.500631 0.671957 -0.248031
C9    C     C_R   0.479027 0.585978 0.300045 -0.224836
C10   C     C_R   0.520974 0.585978 0.699955 -0.224836
C11   C     C_R   0.479666 0.592806 0.241181 0.456651
C12   C     C_R   0.520335 0.592806 0.758818 0.456651
C13   C     C_R   0.503595 0.511137 0.208785 0.103198
C14   C     C_R   0.496405 0.511136 0.791215 0.103199
C15   C     C_R   0.095492 0.571954 0.469307 0.430342
C16   C     C_R   0.904100 0.428163 0.469273 0.424638
C17   C     C_R   0.904508 0.571954 0.530694 0.430342
C18   C     C_R   0.095900 0.428162 0.530727 0.424638
C19   C     C_R   0.187485 0.572191 0.471001 -0.162733
C20   C     C_R   0.812128 0.427904 0.470961 -0.146136
C21   C     C_R   0.812515 0.572191 0.528999 -0.162733
C22   C     C_R   0.187872 0.427904 0.529039 -0.146135
C23   C     C_R   0.233654 0.500025 0.500005 -0.215695
C24   C     C_R   0.766346 0.500025 0.499994 -0.215695
C25   C     C_R   0.048651 0.500054 0.500007 -0.188497
C26   C     C_R   0.951349 0.500054 0.499993 -0.188497
C27   C     C_R   0.502007 0.499845 0.390797 0.876064
C28   C     C_R   0.497993 0.499845 0.609203 0.876064
C29   C     C_R   0.543858 0.107961 0.542694 -0.230810
C30   C     C_R   0.430760 0.892108 0.474649 -0.239144
C31   C     C_R   0.456142 0.107961 0.457306 -0.230810
C32   C     C_R   0.569240 0.892108 0.525351 -0.239144
C33   C     C_R   0.543756 0.209465 0.541574 0.143029
C34   C     C_R   0.432457 0.790593 0.474681 0.105904
C35   C     C_R   0.456244 0.209465 0.458425 0.143029
C36   C     C_R   0.567543 0.790593 0.525319 0.105904
C37   C     C_R   0.500000 0.054726 0.500000 0.111444
C38   C     C_R   0.500000 0.945345 0.500000 0.126586
C39   C     C_R   0.577368 0.508417 0.879768 0.632587
C40   C     C_R   0.422632 0.508419 0.120232 0.632586
C41   C     C_R   0.420156 0.521654 0.880606 0.623385
C42   C     C_R   0.579844 0.521653 0.119394 0.623386
C43   C     C_R   0.418496 0.513167 0.940104 -0.140447
C44   C     C_R   0.581505 0.513165 0.059896 -0.140447
C45   C     C_R   0.499932 0.511625 0.969954 -0.088557
C46   C     C_R   0.500068 0.511625 0.030046 -0.088557
C47   C     C_R   0.581085 0.510828 0.939685 -0.155879
C48   C     C_R   0.418915 0.510831 0.060315 -0.155878
C49   C     C_R   0.337937 0.508078 0.970399 0.377116
C50   C     C_R   0.662064 0.508074 0.029601 0.377117
C51   C     C_R   0.337838 0.510250 0.029666 0.293800
C52   C     C_R   0.662163 0.510245 0.970333 0.293801
Cu1   Cu    Cu3+1 0.500000 0.596430 0.500000 0.966379
Cu2   Cu    Cu3+1 0.500000 0.403570 0.500000 1.005410
H1    H     H_    0.578492 0.248877 0.574403 0.149148
H2    H     H_    0.379111 0.751312 0.454499 0.128314
H3    H     H_    0.421508 0.248877 0.425597 0.149148
H4    H     H_    0.620889 0.751312 0.545501 0.128314
H5    H     H_    0.458798 0.648874 0.324073 0.204564
H6    H     H_    0.541203 0.648873 0.675927 0.204564
H7    H     H_    0.223149 0.627600 0.448026 0.177886
H8    H     H_    0.776153 0.372517 0.447962 0.203675
H9    H     H_    0.776850 0.627599 0.551973 0.177886
H10   H     H_    0.223847 0.372517 0.552037 0.203675
H11   H     H_    0.577306 0.072046 0.577392 0.153320
H12   H     H_    0.374645 0.928038 0.455422 0.147834
H13   H     H_    0.422694 0.072046 0.422608 0.153320
H14   H     H_    0.625355 0.928038 0.544577 0.147834
N1    N     N_R   0.498114 0.514750 0.852121 -0.465386
N2    N     N_R   0.501887 0.514751 0.147878 -0.465386
N3    N     N_R   0.500000 0.258690 0.500000 -0.186792
N4    N     N_R   0.500000 0.741310 0.500000 -0.182712
O1    O     O_R   0.371460 0.581430 0.500000 -0.592842
O2    O     O_R   0.628540 0.418570 0.500000 -0.577996
O3    O     O_R   0.628540 0.581430 0.500000 -0.592842
O4    O     O_R   0.371460 0.418570 0.500000 -0.577996
O5    O     O_R   0.499970 0.581450 0.417880 -0.590014
O6    O     O_R   0.500030 0.418550 0.582120 -0.555529
O7    O     O_R   0.500030 0.581450 0.582120 -0.590014
O8    O     O_R   0.499970 0.418550 0.417880 -0.555529
O9    O     O_2   0.651410 0.499269 0.848702 -0.446933
O10   O     O_2   0.348590 0.499273 0.151298 -0.446932
O11   O     O_2   0.345043 0.537873 0.850978 -0.462109
O12   O     O_2   0.654958 0.537870 0.149022 -0.462109
O13   O     O_3   0.257565 0.498150 0.943205 -0.602735
H15   H     H_    0.263557 0.443489 0.916323 0.373207
O14   O     O_3   0.742435 0.498143 0.056794 -0.602735
H16   H     H_    0.736442 0.443482 0.083677 0.373207
Br1   Br    Br    0.222151 0.511959 0.064613 -0.212675
Br2   Br    Br    0.777849 0.511950 0.935387 -0.212675
Br3   Br    Br    0.557906 0.313380 0.190684 -0.332974
Br4   Br    Br    0.442093 0.313380 0.809316 -0.332973
Br5   Br    Br    0.576696 0.303257 0.330226 -0.389479
Br6   Br    Br    0.423303 0.303257 0.669774 -0.389479
O15   O     O_3   0.456265 0.680325 0.217306 -0.666961
H17   H     H_    0.465952 0.678341 0.175881 0.346079
O16   O     O_3   0.543737 0.680324 0.782694 -0.666961
H18   H     H_    0.534050 0.678340 0.824118 0.346080
O17   O     O_3   0.054911 0.643042 0.437268 -0.679251
H19   H     H_    0.991030 0.629335 0.433260 0.348774
O18   O     O_3   0.944258 0.357102 0.437224 -0.671497
H20   H     H_    0.008085 0.370816 0.433234 0.347394
O19   O     O_3   0.945089 0.643042 0.562732 -0.679251
H21   H     H_    0.008970 0.629334 0.566740 0.348774
O20   O     O_3   0.055742 0.357101 0.562776 -0.671497
H22   H     H_    0.991915 0.370816 0.566765 0.347394

loop_
_geom_bond_atom_site_label_1
_geom_bond_atom_site_label_2
_ccdc_geom_bond_type
C33   H1    S    
O14   H16   S    
C34   H2    S    
O18   H20   S    
C52   Br2   S    
O15   H17   S    
O16   H18   S    
C45   C46   A    
C31   H13   S    
C40   N2    A    
C17   C26   A    
C32   C36   A    
C41   N1    A    
Cu1   O7    S    
C15   C19   A    
C36   H4    S    
O13   H15   S    
C15   C25   A    
C13   N2    S    
C44   C50   A    
C41   O11   S    
C29   C33   A    
C42   N2    A    
C7    C27   S    
C30   C38   A    
C3    Br3   S    
C28   O7    A    
Cu2   O2    S    
C48   C51   A    
Cu2   N3    S    
C20   C24   A    
C49   C51   A    
C50   C52   A    
C32   C38   A    
C28   O6    A    
C3    C13   A    
C32   H14   S    
C35   N3    A    
C20   H8    S    
C41   C43   A    
Cu1   O3    S    
C18   C25   A    
C42   C44   A    
C44   C46   A    
Cu2   O8    S    
C45   C47   A    
C16   C26   A    
C46   C48   A    
C30   C34   A    
C40   O10   S    
C42   O12   S    
C39   O9    S    
C4    C6    A    
C27   O8    A    
C5    C7    A    
C43   C49   A    
C6    C8    A    
C27   O5    A    
C25   C26   S    
Cu1   Cu2   S    
C17   C21   A    
C31   C37   A    
C9    H5    S    
C19   C23   A    
C37   C38   S    
C49   O13   S    
C43   C45   A    
O17   H19   S    
C16   C20   A    
C39   N1    A    
C9    C11   A    
C12   O16   S    
C30   H12   S    
C10   C12   A    
C50   O14   S    
C29   H11   S    
C12   C14   A    
C1    C23   S    
C2    C24   S    
Cu1   O5    S    
C8    C28   S    
C14   N1    S    
Cu2   O4    S    
C34   N4    A    
C39   C47   A    
C11   O15   S    
C40   C48   A    
C10   H6    S    
C18   C22   A    
C1    O4    A    
Cu1   O1    S    
C15   O17   S    
C3    C5    A    
C2    O2    A    
C5    Br5   S    
C47   C52   A    
O20   H22   S    
C35   H3    S    
C1    O1    A    
C17   O19   S    
C18   O20   S    
C51   Br1   S    
C11   C13   A    
C6    Br6   S    
C19   H7    S    
C31   C35   A    
C4    C14   A    
C21   H9    S    
C33   N3    A    
C22   H10   S    
C7    C9    A    
C16   O18   S    
C8    C10   A    
C21   C24   A    
C29   C37   A    
O19   H21   S    
C22   C23   A    
Cu2   O6    S    
Cu1   N4    S    
C2    O3    A    
C36   N4    A    
C4    Br4   S    
