data_mof_unit_9930.cif
_audit_creation_date              2013-03-05T15:50:11-0500
_audit_creation_method            fapswitch 2.2
_symmetry_space_group_name_H-M    P1
_symmetry_Int_Tables_number       1
_space_group_crystal_system       triclinic
_cell_length_a                    14.992408
_cell_length_b                    15.664856
_cell_length_c                    9.568121
_cell_angle_alpha                 90.215858
_cell_angle_beta                  90.373586
_cell_angle_gamma                 90.215824
_cell_volume                      2247.03078606

loop_
_atom_site_label
_atom_site_type_symbol
_atom_site_description
_atom_site_fract_x
_atom_site_fract_y
_atom_site_fract_z
_atom_type_partial_charge
O1    O     O_R   0.409820 0.909830 0.618810 -0.579134
O2    O     O_R   0.409820 0.090170 0.618810 -0.604537
O3    O     O_R   0.909820 0.409830 0.618810 -0.589325
O4    O     O_R   0.909820 0.590170 0.618810 -0.594270
O5    O     O_R   0.409840 0.909830 0.381240 -0.573562
O6    O     O_R   0.409840 0.090170 0.381240 -0.581048
O7    O     O_R   0.909840 0.409830 0.381240 -0.579986
O8    O     O_R   0.909840 0.590170 0.381240 -0.574923
C1    C     C_R   0.379235 0.883235 0.499654 0.792468
C2    C     C_R   0.386175 0.123227 0.500748 0.786078
C3    C     C_R   0.887066 0.376270 0.500093 0.804753
C4    C     C_R   0.885699 0.622963 0.501187 0.798345
Cu1   Cu    Cu3+1 0.499990 0.000000 0.640660 0.923917
Cu2   Cu    Cu3+1 0.999990 0.500000 0.640660 0.926432
Cu3   Cu    Cu3+1 0.500010 0.000000 0.359340 0.938145
Cu4   Cu    Cu3+1 0.000010 0.500000 0.359340 0.939413
O9    O     O_R   0.590170 0.090170 0.618760 -0.615559
O10   O     O_R   0.590170 0.909830 0.618760 -0.604748
O11   O     O_R   0.090170 0.590170 0.618760 -0.597906
O12   O     O_R   0.090170 0.409830 0.618760 -0.615262
O13   O     O_R   0.590190 0.090180 0.381190 -0.598445
O14   O     O_R   0.590190 0.909820 0.381190 -0.598775
O15   O     O_R   0.090190 0.590180 0.381190 -0.591963
O16   O     O_R   0.090190 0.409820 0.381190 -0.602429
C5    C     C_R   0.615935 0.121857 0.501764 0.801403
C6    C     C_R   0.614580 0.877279 0.500946 0.808619
C7    C     C_R   0.117243 0.620126 0.500351 0.786311
C8    C     C_R   0.115104 0.377568 0.501209 0.790400
H1    H     H_    0.304871 0.194369 0.279166 0.160688
H2    H     H_    0.382630 0.735752 0.364620 0.155893
H3    H     H_    0.811364 0.700503 0.280336 0.160868
H4    H     H_    0.799048 0.310360 0.279302 0.162756
C9    C     C_R   0.346271 0.226172 0.758686 -0.120940
C10   C     C_R   0.209509 0.911391 0.642334 -0.201439
C11   C     C_R   0.834711 0.717326 0.765894 -0.146756
C12   C     C_R   0.859597 0.265467 0.749716 -0.128486
H5    H     H_    0.415619 0.207701 0.760306 0.155693
H6    H     H_    0.255970 0.964325 0.641348 0.144647
H7    H     H_    0.903514 0.698361 0.774401 0.155792
H8    H     H_    0.928527 0.285681 0.745147 0.143704
C13   C     C_R   0.307811 0.246681 0.886557 -0.116027
C14   C     C_R   0.128924 0.923402 0.711589 -0.110306
C15   C     C_R   0.791617 0.735172 0.891133 -0.128609
C16   C     C_R   0.826827 0.241122 0.879473 -0.104191
H9    H     H_    0.345689 0.239721 0.982544 0.134621
H10   H     H_    0.115686 0.983402 0.763894 0.162855
H11   H     H_    0.825757 0.725576 0.989870 0.133821
H12   H     H_    0.868690 0.246073 0.971795 0.135765
C17   C     C_R   0.703753 0.762451 0.889136 -0.132725
C18   C     C_R   0.738977 0.213968 0.890804 -0.138763
C19   C     C_R   0.219645 0.273136 0.890867 -0.145780
C20   C     C_R   0.064778 0.859015 0.711386 -0.088309
H13   H     H_    0.668334 0.771832 0.986222 0.137363
H14   H     H_    0.711405 0.200021 0.992557 0.133963
H15   H     H_    0.187798 0.284466 0.990440 0.133028
H16   H     H_    0.001719 0.868976 0.763368 0.196145
C21   C     C_R   0.662142 0.780012 0.761996 -0.140081
C22   C     C_R   0.687041 0.202673 0.770675 -0.156592
C23   C     C_R   0.173134 0.287595 0.766657 -0.158158
C24   C     C_R   0.080951 0.782185 0.642284 -0.194943
H17   H     H_    0.592694 0.797670 0.766205 0.170071
H18   H     H_    0.618216 0.185666 0.787273 0.162396
H19   H     H_    0.103848 0.304702 0.776583 0.155472
H20   H     H_    0.028162 0.735270 0.640664 0.136100
C25   C     C_R   0.708847 0.771805 0.634048 0.115394
C26   C     C_R   0.722957 0.217656 0.635862 0.119178
C27   C     C_R   0.214911 0.276410 0.635104 0.120278
C28   C     C_R   0.162736 0.767781 0.573646 0.101261
C29   C     C_R   0.296529 0.232278 0.632482 0.100099
C30   C     C_R   0.227896 0.833448 0.573193 0.102878
C31   C     C_R   0.790327 0.727346 0.635322 0.108969
C32   C     C_R   0.804482 0.262107 0.628821 0.101026
C33   C     C_R   0.324308 0.195306 0.504148 -0.119310
C34   C     C_R   0.308155 0.820245 0.499088 -0.102083
C35   C     C_R   0.822969 0.694453 0.506245 -0.124642
C36   C     C_R   0.826796 0.303018 0.501826 -0.122501
C37   C     C_R   0.283468 0.219964 0.378765 -0.195521
C38   C     C_R   0.321600 0.745340 0.422690 -0.181476
C39   C     C_R   0.786351 0.722864 0.379894 -0.191318
C40   C     C_R   0.781523 0.281639 0.378293 -0.196286
H21   H     H_    0.694331 0.805495 0.279957 0.165420
H22   H     H_    0.681562 0.205174 0.282081 0.164306
H23   H     H_    0.187940 0.299594 0.280185 0.163505
H24   H     H_    0.270761 0.622737 0.366050 0.148144
C41   C     C_R   0.717401 0.781057 0.379574 -0.202107
C42   C     C_R   0.712372 0.223394 0.380571 -0.203068
C43   C     C_R   0.214563 0.278253 0.379581 -0.205665
C44   C     C_R   0.258112 0.681130 0.423637 -0.160836
C45   C     C_R   0.678138 0.806571 0.505254 -0.105426
C46   C     C_R   0.681815 0.190922 0.507788 -0.104717
C47   C     C_R   0.179441 0.307370 0.506267 -0.101179
C48   C     C_R   0.180030 0.690830 0.500750 -0.086430
H25   H     H_    0.360376 0.002859 0.128024 0.139620
H26   H     H_    0.860339 0.501227 0.128011 0.141007
C49   C     C_R   0.664109 0.997893 0.145657 -0.243136
C50   C     C_R   0.164082 0.498248 0.145653 -0.230479
H27   H     H_    0.672055 0.999621 0.255783 0.231133
H28   H     H_    0.171986 0.499398 0.255771 0.221784
C51   C     C_R   0.744351 0.995132 0.074475 -0.306975
C52   C     C_R   0.244330 0.495716 0.074479 -0.301529
H29   H     H_    0.806084 0.993972 0.133844 0.203717
H30   H     H_    0.306041 0.494057 0.133881 0.196928
C53   C     C_R   0.745422 0.994548 0.929586 0.359049
C54   C     C_R   0.245408 0.495637 0.929567 0.348441
C55   C     C_R   0.664161 0.997271 0.857322 -0.242882
C56   C     C_R   0.164157 0.498787 0.857308 -0.230619
H31   H     H_    0.669941 0.999756 0.747493 0.243342
H32   H     H_    0.169887 0.500342 0.747439 0.240130
C57   C     C_R   0.580768 0.998549 0.926031 0.128351
C58   C     C_R   0.080765 0.499367 0.926029 0.138359
C59   C     C_R   0.580717 0.998705 0.075578 0.217198
C60   C     C_R   0.080709 0.499188 0.075574 0.224716
N1    N     N_R   0.501200 0.000000 0.147910 -0.191655
N2    N     N_R   0.001200 0.500000 0.147910 -0.191138
C61   C     C_R   0.423231 0.001579 0.073195 -0.059914
C62   C     C_R   0.923209 0.500671 0.073190 -0.073294
H33   H     H_    0.360435 0.003059 0.868918 0.138140
H34   H     H_    0.860404 0.501168 0.868887 0.153329
C63   C     C_R   0.423266 0.001656 0.925078 -0.053262
C64   C     C_R   0.923246 0.500628 0.925072 -0.066445
N3    N     N_R   0.501270 0.000000 0.852040 -0.195113
N4    N     N_R   0.001270 0.500000 0.852040 -0.196880
N5    N     N_R   0.828871 0.992435 0.855545 0.128519
O17   O     O_R   0.904351 0.995060 0.923445 -0.395817
O18   O     O_R   0.830329 0.987520 0.719728 -0.391719
N6    N     N_R   0.328789 0.492016 0.855481 0.136797
O19   O     O_R   0.404203 0.489647 0.923508 -0.362288
O20   O     O_R   0.330178 0.489326 0.719504 -0.379259

loop_
_geom_bond_atom_site_label_1
_geom_bond_atom_site_label_2
_geom_bond_distance
_ccdc_geom_bond_type
C22   H18   1.077637 S    
H23   C43   1.083510 S    
N6    O19   1.301641 A    
Cu2   N4    2.022476 S    
C43   C47   1.400204 A    
C51   C53   1.386517 A    
O10   C6    1.291160 A    
C32   C36   1.417272 A    
C53   N5    1.442189 S    
C54   C56   1.397878 A    
N5    O17   1.301621 A    
C26   C46   1.428934 A    
C6    C45   1.464356 S    
C25   C45   1.423629 A    
C55   H31   1.055840 S    
C5    C46   1.462899 S    
C18   H14   1.082881 S    
C35   C39   1.399370 A    
O13   C5    1.309433 A    
Cu1   O10   1.970498 S    
C41   C45   1.399889 A    
C3    C36   1.458084 S    
C57   C59   1.430881 A    
C14   H10   1.082758 S    
C11   H7    1.077178 S    
C2    C33   1.464330 S    
C49   C51   1.387023 A    
N5    O18   1.301830 A    
C38   C44   1.382314 A    
C52   C54   1.386735 A    
C17   C21   1.392359 A    
H25   C61   1.081733 S    
O2    Cu1   1.969602 S    
C40   C42   1.378807 A    
C20   C24   1.393827 A    
C23   C27   1.420145 A    
O6    Cu3   1.970393 S    
C22   C26   1.421022 A    
Cu3   O14   1.969819 S    
C26   C32   1.406516 A    
C12   C32   1.417870 A    
C44   C48   1.396287 A    
C10   C14   1.394769 A    
C50   H28   1.059575 S    
C30   C34   1.416075 A    
Cu3   N1    2.023184 S    
C29   C33   1.421184 A    
O15   C7    1.293446 A    
O4    C4    1.289074 A    
O11   C7    1.295019 A    
C10   C30   1.415363 A    
C9    C29   1.418839 A    
C11   C31   1.421154 A    
O8    Cu4   1.970393 S    
C60   N2    1.382370 A    
C64   N4    1.366541 A    
H34   C64   1.081757 S    
C63   N3    1.366542 A    
C18   C22   1.394454 A    
Cu2   O12   1.970498 S    
C12   H8    1.080910 S    
O1    C1    1.292984 A    
C53   C55   1.397786 A    
C42   C46   1.400159 A    
H26   C62   1.081730 S    
C15   C17   1.386435 A    
C28   C48   1.416027 A    
O12   C8    1.289502 A    
C25   C31   1.408446 A    
C9    H5    1.080271 S    
C62   C64   1.417212 A    
C27   C29   1.408031 A    
H24   C44   1.084047 S    
O1    Cu1   1.961152 S    
O7    C3    1.301692 A    
O5    C1    1.294863 A    
H4    C40   1.083564 S    
Cu1   N3    2.022476 S    
O8    C4    1.309350 A    
C27   C47   1.426707 A    
C54   N6    1.442291 S    
C7    C48   1.450833 S    
C59   N1    1.382557 A    
C13   H9    1.082711 S    
H3    C39   1.083453 S    
C37   C43   1.381356 A    
O3    Cu2   1.961152 S    
C28   C30   1.415990 A    
O7    Cu4   1.964216 S    
C51   H29   1.083036 S    
Cu4   O15   1.961366 S    
C61   C63   1.417204 A    
Cu1   Cu3   2.691705 S    
C34   C38   1.396068 A    
Cu2   Cu4   2.691705 S    
C12   C16   1.392239 A    
C19   C23   1.393696 A    
C1    C34   1.449578 S    
O2    C2    1.292462 A    
C39   C41   1.380831 A    
C11   C15   1.392991 A    
O16   C8    1.309075 A    
C52   H30   1.083104 S    
C56   C58   1.416434 A    
C16   C18   1.387579 A    
C55   C57   1.416532 A    
N6    O20   1.301872 A    
C10   H6    1.081043 S    
Cu2   O11   1.964317 S    
C36   C40   1.398126 A    
C21   C25   1.419937 A    
Cu4   N2    2.023184 S    
O6    C2    1.305280 A    
N2    C62   1.366632 A    
C49   H27   1.059865 S    
C21   H17   1.079280 S    
C23   H19   1.078445 S    
Cu1   O9    1.964317 S    
C24   H20   1.078000 S    
C9    C13   1.392925 A    
H33   C63   1.081776 S    
O9    C5    1.287289 A    
H22   C42   1.083597 S    
C58   N4    1.382340 A    
C31   C35   1.426626 A    
C57   N3    1.382596 A    
C56   H32   1.055668 S    
C17   H13   1.082814 S    
C50   C52   1.386956 A    
C50   C60   1.414754 A    
C8    C47   1.466205 S    
C19   H15   1.082798 S    
O4    Cu2   1.969602 S    
C58   C60   1.430879 A    
O5    Cu3   1.964216 S    
O3    C3    1.293098 A    
H2    C38   1.084204 S    
C20   H16   1.082671 S    
Cu3   O13   1.961366 S    
H1    C37   1.083491 S    
C24   C28   1.413193 A    
Cu4   O16   1.969819 S    
O14   C6    1.306456 A    
C4    C35   1.465969 S    
C33   C37   1.399654 A    
C49   C59   1.414969 A    
C15   H11   1.082786 S    
C13   C19   1.387581 A    
H21   C41   1.083567 S    
C16   H12   1.082648 S    
C14   C20   1.390987 A    
N1    C61   1.366584 A    
