data_mof_unit_45890.cif
_audit_creation_date              2013-03-05T16:05:09-0500
_audit_creation_method            fapswitch 2.2
_symmetry_space_group_name_H-M    P1
_symmetry_Int_Tables_number       1
_space_group_crystal_system       triclinic
_cell_length_a                    10.941493
_cell_length_b                    9.689113
_cell_length_c                    11.055937
_cell_angle_alpha                 90.486554
_cell_angle_beta                  95.347124
_cell_angle_gamma                 90.578451
_cell_volume                      1166.864782

loop_
_atom_site_label
_atom_site_type_symbol
_atom_site_description
_atom_site_fract_x
_atom_site_fract_y
_atom_site_fract_z
_atom_type_partial_charge
O1    O     O_R   0.319660 0.618740 0.499990 -0.632331
O2    O     O_R   0.319660 0.381260 0.499990 -0.631039
C1    C     C_R   0.263300 0.499628 0.500708 0.818994
O3    O     O_R   0.499990 0.618790 0.317690 -0.537071
O4    O     O_R   0.499990 0.381210 0.317690 -0.527371
C2    C     C_R   0.491616 0.500958 0.258016 0.925805
Cu1   Cu    Cu3+1 0.500020 0.640660 0.500000 1.076546
Cu2   Cu    Cu3+1 0.500020 0.359340 0.500000 1.073190
O5    O     O_R   0.680370 0.618830 0.500010 -0.504021
O6    O     O_R   0.680370 0.381170 0.500010 -0.527146
O7    O     O_R   0.500030 0.618780 0.682310 -0.571564
O8    O     O_R   0.500030 0.381220 0.682310 -0.570005
C3    C     C_R   0.737884 0.500122 0.497742 0.907349
C4    C     C_R   0.490900 0.500443 0.736840 0.845254
C5    C     C_3   0.389867 0.624581 0.053740 0.440439
C6    C     C_3   0.439857 0.353353 0.058319 0.438259
C7    C     C_3   0.406228 0.627585 0.912315 -0.113955
C8    C     C_3   0.426574 0.362424 0.913874 -0.138750
H1    H     H_    0.468534 0.716671 0.899936 0.254157
H2    H     H_    0.485078 0.282021 0.880365 0.260414
H3    H     H_    0.664775 0.596083 0.884647 0.253290
H4    H     H_    0.662170 0.419719 0.905980 0.255583
C9    C     C_3   0.621308 0.537267 0.071327 0.425907
C10   C     C_3   0.485128 0.505378 0.115630 -0.425033
C11   C     C_3   0.480411 0.501537 0.871032 -0.142757
C12   C     C_3   0.613714 0.514864 0.930010 -0.511173
C13   C     C_R   0.064961 0.377059 0.480818 -0.173113
C14   C     C_R   0.069327 0.621797 0.515926 -0.203003
H5    H     H_    0.113545 0.282661 0.468626 0.190679
H6    H     H_    0.120391 0.717223 0.532976 0.184945
C15   C     C_R   0.937506 0.373107 0.474305 0.340519
C16   C     C_R   0.942226 0.625103 0.508536 0.324048
C17   C     C_R   0.872666 0.499473 0.490916 -0.236915
C18   C     C_R   0.130557 0.499312 0.500407 -0.120745
C19   C     C_R   0.414106 0.071293 0.428412 0.178238
C20   C     C_R   0.414655 0.924138 0.427209 0.203393
N1    N     N_R   0.500030 0.852070 0.500030 -0.253722
N2    N     N_R   0.500030 0.147930 0.500030 -0.252922
C21   C     C_R   0.574432 0.927716 0.583811 0.354200
C22   C     C_R   0.579899 0.075148 0.578680 0.356413
N3    N     N_R   0.411260 0.771142 0.094362 0.119262
O9    O     O_R   0.491767 0.812246 0.180771 -0.250932
O10   O     O_R   0.340330 0.865602 0.043612 -0.293481
N4    N     N_R   0.531986 0.245172 0.096834 0.157211
O11   O     O_R   0.512512 0.161487 0.184506 -0.231512
O12   O     O_R   0.621633 0.213734 0.032337 -0.239440
N5    N     N_R   0.626933 0.863546 0.692536 0.160188
O13   O     O_R   0.714584 0.774794 0.690620 -0.274142
O14   O     O_R   0.591961 0.902097 0.796712 -0.279279
N6    N     N_R   0.667600 0.145814 0.661878 0.159080
O15   O     O_R   0.634860 0.182672 0.766940 -0.308026
O16   O     O_R   0.783100 0.121089 0.655386 -0.228344
N7    N     N_R   0.261154 0.593947 0.077965 0.179621
O17   O     O_R   0.179161 0.542341 0.997263 -0.301767
O18   O     O_R   0.223099 0.630400 0.181259 -0.324402
N8    N     N_R   0.320536 0.303967 0.096599 0.134961
O19   O     O_R   0.264445 0.365563 0.179703 -0.344230
O20   O     O_R   0.277893 0.183658 0.058492 -0.289329
C23   C     C_3   0.291938 0.668053 0.825359 -0.639039
H7    H     H_    0.319163 0.725694 0.745716 0.222532
H8    H     H_    0.237427 0.577443 0.789873 0.225013
H9    H     H_    0.231060 0.739202 0.870023 0.297492
C24   C     C_3   0.301742 0.317678 0.843686 -0.632388
H10   H     H_    0.292361 0.352587 0.748327 0.193171
H11   H     H_    0.295049 0.203182 0.838156 0.265022
H12   H     H_    0.220372 0.353405 0.885073 0.302246
N9    N     N_R   0.665148 0.679060 0.103194 0.176061
O21   O     O_R   0.670528 0.775136 0.022143 -0.225121
O22   O     O_R   0.715804 0.705436 0.212221 -0.200748
N10   N     N_R   0.717537 0.445591 0.126838 0.178968
O23   O     O_R   0.815532 0.423392 0.071220 -0.222574
O24   O     O_R   0.728537 0.430874 0.243434 -0.316856
N11   N     N_R   0.880626 0.238752 0.451421 0.172860
O25   O     O_R   0.940198 0.129470 0.489894 -0.269461
O26   O     O_R   0.792163 0.220651 0.365856 -0.189882
N12   N     N_R   0.888206 0.758503 0.519092 0.166565
O27   O     O_R   0.932873 0.841980 0.605381 -0.254807
O28   O     O_R   0.826019 0.811082 0.424951 -0.209800
C25   C     C_3   0.312619 0.139628 0.353544 -0.574647
H13   H     H_    0.224046 0.120385 0.391592 0.195692
H14   H     H_    0.331475 0.246907 0.345433 0.294816
H15   H     H_    0.306607 0.101843 0.259544 0.279153
C26   C     C_3   0.308657 0.849602 0.357855 -0.560015
H16   H     H_    0.332820 0.745430 0.338048 0.290909
H17   H     H_    0.226839 0.853052 0.409616 0.195679
H18   H     H_    0.283408 0.890289 0.266392 0.258734

loop_
_geom_bond_atom_site_label_1
_geom_bond_atom_site_label_2
_geom_bond_distance
_ccdc_geom_bond_type
H3    C12   1.110391 S    
C24   H11   1.111834 S    
C13   H5    1.076280 S    
N11   O26   1.298322 A    
N3    O9    1.294924 A    
C19   C20   1.425826 A    
Cu1   Cu2   2.725741 S    
N5    O14   1.300082 A    
N7    O17   1.298120 A    
Cu1   O7    2.028504 S    
C5    N7    1.485387 S    
C20   N1    1.375111 A    
N12   O28   1.299923 A    
O4    C2    1.339302 A    
O7    C4    1.307188 A    
C8    C24   1.562199 S    
C15   N11   1.447303 S    
C20   C26   1.504174 S    
N8    O19   1.296225 A    
C5    C7    1.590768 S    
N11   O25   1.302627 A    
C9    C12   1.569958 S    
C9    N9    1.479415 S    
O5    C3    1.317799 A    
C26   H16   1.071924 S    
N6    O16   1.297046 A    
C9    C10   1.638538 S    
C15   C17   1.440187 A    
N10   O23   1.303574 A    
C6    N4    1.498349 S    
C24   H12   1.096041 S    
C14   C18   1.385896 A    
C23   H7    1.108993 S    
C6    C10   1.651492 S    
N3    O10   1.302561 A    
C9    N10   1.477148 S    
C8    C11   1.560427 S    
Cu2   N2    2.048380 S    
O3    Cu1   2.024896 S    
N4    O12   1.302328 A    
N7    O18   1.298871 A    
C13   C18   1.383700 A    
C23   H8    1.104713 S    
C13   C15   1.389811 A    
N9    O21   1.302272 A    
C14   C16   1.386164 A    
C19   N2    1.378173 A    
N12   O27   1.301999 A    
C5    N3    1.495290 S    
O3    C2    1.311852 A    
C21   C22   1.430957 A    
C25   H14   1.063832 S    
C1    C18   1.452074 S    
C11   C12   1.544883 S    
C25   H13   1.106608 S    
O1    C1    1.303437 A    
C6    N8    1.485383 S    
C3    C17   1.483724 S    
C25   H15   1.094864 S    
N5    O13   1.296071 A    
Cu2   O8    2.024923 S    
C2    C10   1.570157 S    
N6    O15   1.295441 A    
Cu1   N1    2.048371 S    
C7    C23   1.560126 S    
C6    C8    1.593284 S    
C5    C10   1.671336 S    
C26   H17   1.107151 S    
O8    C4    1.307509 A    
N4    O11   1.300290 A    
C21   N5    1.432729 S    
Cu1   O5    1.986714 S    
C23   H9    1.107946 S    
O1    Cu1   1.982660 S    
O2    Cu2   1.986924 S    
O6    C3    1.309115 A    
C16   N12   1.435038 S    
O4    Cu2   2.028476 S    
C7    C11   1.561499 S    
C16   C17   1.431262 A    
C14   H6    1.081455 S    
O2    C1    1.307940 A    
N1    C21   1.376150 A    
N2    C22   1.377795 A    
C22   N6    1.430810 S    
C19   C25   1.486405 S    
C7    H1    1.111774 S    
N8    O20   1.303098 A    
C8    H2    1.096935 S    
C4    C11   1.498636 S    
C24   H10   1.105912 S    
C26   H18   1.100525 S    
Cu2   O6    1.982467 S    
H4    C12   1.110621 S    
N10   O24   1.292699 A    
N9    O22   1.301097 A    
