data_mof_unit_64096.cif
_audit_creation_date              2012-12-10T17:19:41-0500
_audit_creation_method            fapswitch 2.2
_symmetry_space_group_name_H-M    P1
_symmetry_Int_Tables_number       1
_space_group_crystal_system       triclinic
_cell_length_a                    10.1875
_cell_length_b                    10.847991
_cell_length_c                    11.553335
_cell_angle_alpha                 89.80445
_cell_angle_beta                  81.185178
_cell_angle_gamma                 94.925138
_cell_volume                      1256.88691357

loop_
_atom_site_label
_atom_site_type_symbol
_atom_type_description
_atom_site_fract_x
_atom_site_fract_y
_atom_site_fract_z
_atom_type_partial_charge
C1    C     C_R   0.555729 0.732282 0.495152 0.924221
C2    C     C_2   0.412844 0.136097 0.524725 -0.341611
C3    C     C_2   0.487363 0.934080 0.533027 -0.131986
C4    C     C_2   0.512691 0.065686 0.529431 -0.133034
C5    C     C_2   0.927507 0.510132 0.508432 0.037602
C6    C     C_2   0.072544 0.490080 0.491365 0.040079
C7    C     C_R   0.444272 0.267692 0.510189 0.924925
C8    C     C_R   0.500043 0.499988 0.717981 0.883648
C9    C     C_R   0.499956 0.500010 0.282023 0.891631
C10   C     C_1   0.500122 0.499992 0.838469 -0.137631
C11   C     C_1   0.499877 0.500007 0.161531 -0.139237
C12   C     C_1   0.500064 0.499997 0.940647 0.034625
C13   C     C_1   0.499935 0.500002 0.059352 0.035056
C14   C     C_2   0.587171 0.863794 0.501168 -0.343148
Cl1   Cl    Cl    0.107839 0.664025 0.645761 -0.528097
Cl2   Cl    Cl    0.892040 0.335454 0.354781 -0.521320
H1    H     H_    0.615656 0.104530 0.523648 0.213497
H2    H     H_    0.384432 0.895173 0.555417 0.220553
H3    H     H_    0.310179 0.096746 0.530271 0.173767
H4    H     H_    0.689810 0.903206 0.478691 0.174947
H5    H     H_    0.110750 0.421498 0.430242 0.166786
H6    H     H_    0.889359 0.578933 0.569334 0.167463
N1    N     N_2   0.842700 0.448890 0.453570 0.039933
N2    N     N_2   0.157300 0.551110 0.546430 0.040825
O1    O     O_R   0.431060 0.692470 0.509350 -0.580328
O2    O     O_R   0.568940 0.307530 0.490650 -0.579194
O3    O     O_R   0.651120 0.659650 0.479540 -0.623537
O4    O     O_R   0.348880 0.340350 0.520460 -0.624015
O5    O     O_R   0.389960 0.516400 0.680450 -0.566968
O6    O     O_R   0.610040 0.483600 0.319550 -0.564251
O7    O     O_R   0.610030 0.483580 0.650650 -0.625480
O8    O     O_R   0.389970 0.516420 0.349350 -0.622458
Zn1   Zn    Zn3+2 0.353060 0.521910 0.519900 1.046222
Zn2   Zn    Zn3+2 0.646940 0.478090 0.480100 1.046514

loop_
_geom_bond_atom_site_label_1
_geom_bond_atom_site_label_2
_ccdc_geom_bond_type
C2    C4    D    
C5    H6    S    
O5    Zn1   S    
C11   C13   T    
C2    C7    S    
C5    N1    D    
N1    Zn2   S    
C6    N2    D    
O8    Zn1   S    
C7    O2    A    
O7    Zn2   S    
C6    H5    S    
C1    O1    A    
C9    C11   S    
C3    C14   D    
C10   C12   T    
C9    O6    A    
C8    O5    A    
Cl1   N2    S    
O4    Zn1   S    
Cl2   N1    S    
O3    Zn2   S    
C5    C6    S    
O6    Zn2   S    
C3    C4    S    
C14   H4    S    
C12   C13   S    
C3    H2    S    
C8    C10   S    
C1    O3    A    
C1    C14   S    
C9    O8    A    
C2    H3    S    
C8    O7    A    
O2    Zn2   S    
C7    O4    A    
N2    Zn1   S    
O1    Zn1   S    
C4    H1    S    
