data_mof_unit_35097.cif
_audit_creation_date              2012-12-10T16:59:56-0500
_audit_creation_method            fapswitch 2.2
_symmetry_space_group_name_H-M    P1
_symmetry_Int_Tables_number       1
_space_group_crystal_system       triclinic
_cell_length_a                    23.54155
_cell_length_b                    10.973799
_cell_length_c                    9.68668
_cell_angle_alpha                 90.555575
_cell_angle_beta                  89.758441
_cell_angle_gamma                 89.575538
_cell_volume                      2502.24989708

loop_
_atom_site_label
_atom_site_type_symbol
_atom_type_description
_atom_site_fract_x
_atom_site_fract_y
_atom_site_fract_z
_atom_type_partial_charge
C1    C     C_R   0.499958 0.265353 0.499205 0.765789
C2    C     C_R   0.974528 0.255687 0.501862 0.198731
C3    C     C_R   0.034375 0.260867 0.488846 0.191182
C4    C     C_R   0.062560 0.374493 0.494298 -0.087373
C5    C     C_R   0.030255 0.483329 0.503700 -0.110092
C6    C     C_R   0.057937 0.597663 0.510431 -0.044662
C7    C     C_R   0.024956 0.705621 0.523913 0.253961
C8    C     C_R   0.965834 0.699501 0.520941 -0.228700
C9    C     C_R   0.122516 0.382939 0.494910 0.604889
C10   C     C_R   0.117762 0.599981 0.502819 0.620837
C11   C     C_R   0.237931 0.525711 0.620586 0.592205
C12   C     C_R   0.390921 0.500428 0.500364 0.849850
C13   C     C_R   0.297191 0.526645 0.622402 0.543002
C14   C     C_R   0.328286 0.500672 0.500730 -0.260199
C15   C     C_R   0.298853 0.474451 0.378078 -0.280610
C16   C     C_R   0.239668 0.473214 0.376975 -0.177726
C17   C     C_R   0.209078 0.498747 0.498056 0.142651
C18   C     C_R   0.762078 0.455807 0.380833 0.130457
C19   C     C_R   0.702695 0.467309 0.377425 0.539319
C20   C     C_R   0.671817 0.491211 0.499750 -0.215595
C21   C     C_R   0.701221 0.506136 0.624498 -0.348900
C22   C     C_R   0.760448 0.497013 0.628699 0.262242
C23   C     C_R   0.498094 0.734539 0.500831 0.819227
C24   C     C_R   0.791008 0.471612 0.506478 0.231776
C25   C     C_2   0.490687 0.932194 0.390106 -0.162168
C26   C     C_2   0.490840 0.865738 0.505069 -0.242006
C27   C     C_2   0.481451 0.064886 0.394800 0.121465
C28   C     C_2   0.504001 0.133359 0.497667 0.450033
C29   C     C_2   0.466074 0.433126 0.922002 0.739979
C30   C     C_2   0.472939 0.420811 0.075796 -0.003204
C31   C     C_R   0.609126 0.498311 0.499640 0.866486
C32   C     C_R   0.878880 0.582588 0.511491 0.599673
C33   C     C_R   0.881738 0.365408 0.505304 0.590671
C34   C     C_R   0.941976 0.364972 0.505185 -0.090860
C35   C     C_R   0.970181 0.478317 0.506671 -0.065906
C36   C     C_R   0.938223 0.587453 0.512333 -0.034141
Cu1   Cu    Cu3+1 0.500010 0.500020 0.638630 1.079607
Cu2   Cu    Cu3+1 0.499990 0.499980 0.361370 1.095358
H1    H     H_    0.678287 0.525893 0.719403 0.205870
H2    H     H_    0.494300 0.888192 0.289453 0.198254
H3    H     H_    0.482515 0.907192 0.605344 0.218343
H4    H     H_    0.535150 0.533570 0.892516 0.224180
H5    H     H_    0.453549 0.342772 0.124361 0.123216
H6    H     H_    0.941552 0.783572 0.529610 0.181454
H7    H     H_    0.321549 0.453583 0.283170 0.215956
H8    H     H_    0.217479 0.451841 0.282192 0.194176
N1    N     N_R   0.852029 0.472945 0.507720 -0.428306
N2    N     N_R   0.148222 0.493910 0.497553 -0.445659
N3    N     N_2   0.499380 0.498660 0.846910 -0.299877
N4    N     N_2   0.499370 0.498630 0.153040 0.078030
O1    O     O_R   0.500010 0.321960 0.617040 -0.525805
O2    O     O_2   0.852724 0.260008 0.502846 -0.520713
O3    O     O_2   0.155378 0.281700 0.495513 -0.485631
O4    O     O_2   0.145687 0.706815 0.498949 -0.479652
O5    O     O_R   0.499990 0.321920 0.382900 -0.605144
O6    O     O_R   0.417890 0.499980 0.617100 -0.473677
O7    O     O_R   0.417870 0.499940 0.382950 -0.600487
O8    O     O_R   0.500010 0.678080 0.617100 -0.570766
O9    O     O_R   0.499990 0.678040 0.382960 -0.520771
O10   O     O_R   0.582130 0.500060 0.617050 -0.605953
O11   O     O_R   0.582110 0.500020 0.382900 -0.493115
O12   O     O_2   0.848004 0.686788 0.513990 -0.534542
N5    N     N_2   0.947266 0.140402 0.512032 -0.376462
H9    H     H_    0.962824 0.073061 0.447158 0.243875
C37   C     C_3   0.938803 0.099170 0.652100 -0.610441
H10   H     H_    0.980261 0.083019 0.703260 0.190011
H11   H     H_    0.914659 0.012631 0.650683 0.237116
H12   H     H_    0.914181 0.167878 0.712989 0.243725
F1    F     F_    0.675593 0.454792 0.254637 -0.645158
N6    N     N_2   0.789548 0.519972 0.754614 -0.400602
H13   H     H_    0.769663 0.583986 0.817204 0.270628
C38   C     C_3   0.805023 0.411764 0.830003 -0.661569
H14   H     H_    0.830672 0.438149 0.921241 0.224962
H15   H     H_    0.831006 0.348979 0.764859 0.248313
H16   H     H_    0.766260 0.363960 0.865720 0.237428
N7    N     N_2   0.449974 0.119295 0.285478 -0.450935
H17   H     H_    0.452885 0.072040 0.193108 0.276991
C39   C     C_3   0.391695 0.149482 0.320718 -0.628154
H18   H     H_    0.371328 0.196541 0.232630 0.238916
H19   H     H_    0.389755 0.211581 0.411867 0.214096
H20   H     H_    0.367596 0.065203 0.343298 0.243332
F2    F     F_    0.536150 0.082692 0.598849 -0.665363
F3    F     F_    0.424997 0.366443 0.859561 -0.617470
N8    N     N_2   0.066427 0.151166 0.473226 -0.378751
H21   H     H_    0.054682 0.082399 0.538103 0.250996
C40   C     C_3   0.075876 0.112304 0.331729 -0.581107
H22   H     H_    0.035075 0.088687 0.281402 0.185260
H23   H     H_    0.104042 0.030696 0.329863 0.253185
H24   H     H_    0.096826 0.185632 0.272303 0.244832
F4    F     F_    0.509208 0.608239 0.099075 -0.563998
N9    N     N_2   0.050470 0.821077 0.545312 -0.386001
H25   H     H_    0.028980 0.890578 0.496939 0.231176
C41   C     C_3   0.061734 0.848657 0.689035 -0.576504
H26   H     H_    0.021160 0.859957 0.747029 0.191277
H27   H     H_    0.086248 0.934344 0.697239 0.233277
H28   H     H_    0.087337 0.774717 0.736492 0.266413
F5    F     F_    0.208376 0.549705 0.738466 -0.611641
F6    F     F_    0.323796 0.553905 0.742765 -0.576896
N10   N     N_2   0.793445 0.435305 0.256868 -0.414710
H29   H     H_    0.785796 0.500671 0.183305 0.278414
C42   C     C_3   0.789397 0.313074 0.200433 -0.577018
H30   H     H_    0.822705 0.299236 0.120342 0.205783
H31   H     H_    0.747166 0.298955 0.152402 0.255847
H32   H     H_    0.795950 0.243974 0.281763 0.270298

loop_
_geom_bond_atom_site_label_1
_geom_bond_atom_site_label_2
_ccdc_geom_bond_type
C23   O8    A    
N5    C37   S    
C41   H26   S    
C31   O11   A    
C19   C20   A    
C17   N2    S    
C7    C8    A    
C29   N3    D    
C33   O2    S    
C23   O9    A    
Cu1   Cu2   S    
C18   C24   A    
C32   C36   A    
N8    C40   S    
C29   F3    S    
C25   H2    S    
C5    C6    A    
Cu1   O1    S    
C40   H23   S    
C15   C16   A    
C34   C35   A    
C8    C36   A    
C23   C26   S    
C13   F6    S    
Cu1   O6    S    
N4    F4    S    
Cu2   O5    S    
C35   C36   A    
C16   C17   A    
C37   H11   S    
C1    C28   S    
N6    H13   S    
Cu1   O8    S    
Cu2   O11   S    
C2    C34   A    
C30   N4    D    
C42   H31   S    
C21   C22   A    
C38   H16   S    
C28   F2    S    
C42   H30   S    
N8    H21   S    
C38   H15   S    
C16   H8    S    
N9    H25   S    
C39   H18   S    
C18   C19   A    
C25   C26   D    
Cu2   O9    S    
C31   O10   A    
C29   C30   S    
N9    C41   S    
Cu2   O7    S    
Cu1   N3    S    
N10   H29   S    
C21   H1    S    
C37   H12   S    
C7    N9    S    
C33   C34   A    
N7    H17   S    
C1    O1    A    
C12   O6    A    
C12   O7    A    
N10   C42   S    
C12   C14   S    
C41   H28   S    
C10   N2    A    
C33   N1    A    
C32   N1    A    
C22   C24   A    
C30   H5    S    
C19   F1    S    
C9    O3    S    
C18   N10   S    
C15   H7    S    
C3    C4    A    
C3    N8    S    
C2    N5    S    
C11   C17   A    
C40   H22   S    
C24   N1    S    
C8    H6    S    
N7    C39   S    
C38   H14   S    
C40   H24   S    
C6    C10   A    
C6    C7    A    
Cu2   N4    S    
C25   C27   S    
C11   F5    S    
C2    C3    A    
C1    O5    A    
C32   O12   S    
C11   C13   A    
C39   H20   S    
C5    C35   A    
C39   H19   S    
C10   O4    S    
Cu1   O10   S    
H4    N3    S    
N5    H9    S    
C4    C5    A    
C20   C21   A    
C9    N2    A    
C41   H27   S    
C37   H10   S    
C27   C28   D    
C14   C15   A    
N6    C38   S    
C42   H32   S    
C4    C9    A    
C13   C14   A    
C22   N6    S    
C27   N7    S    
C26   H3    S    
C20   C31   S    
