data_mof_unit_62275.cif
_audit_creation_date              2012-12-10T18:47:03-0500
_audit_creation_method            fapswitch 2.2
_symmetry_space_group_name_H-M    P1
_symmetry_Int_Tables_number       1
_space_group_crystal_system       triclinic
_cell_length_a                    15.826179
_cell_length_b                    18.206864
_cell_length_c                    19.4495
_cell_angle_alpha                 90.683412
_cell_angle_beta                  91.553619
_cell_angle_gamma                 69.583421
_cell_volume                      5250.27425248

loop_
_atom_site_label
_atom_site_type_symbol
_atom_type_description
_atom_site_fract_x
_atom_site_fract_y
_atom_site_fract_z
_atom_type_partial_charge
C1    C     C_R   0.498870 0.500779 0.632289 0.892239
C2    C     C_R   0.500913 0.499289 0.367687 0.890283
C3    C     C_R   0.093941 0.410994 0.462580 -0.198176
C4    C     C_R   0.900345 0.595172 0.487505 -0.192853
C5    C     C_R   0.051546 0.356213 0.456819 -0.124176
C6    C     C_R   0.942522 0.650121 0.492665 -0.121604
C7    C     C_R   0.449513 0.566079 0.255855 0.613781
C8    C     C_R   0.549109 0.434514 0.744446 0.614087
C9    C     C_R   0.448443 0.566468 0.184290 -0.226248
C10   C     C_R   0.549216 0.434422 0.815992 -0.225646
C11   C     C_R   0.498753 0.499382 0.147769 -0.047741
C12   C     C_R   0.498178 0.501585 0.852102 -0.047671
C13   C     C_R   0.550265 0.431667 0.183808 -0.170282
C14   C     C_R   0.446865 0.569069 0.815677 -0.169796
C15   C     C_R   0.551907 0.430560 0.255519 0.220262
C16   C     C_R   0.446143 0.569863 0.743967 0.219507
C17   C     C_R   0.501062 0.498259 0.292235 -0.240132
C18   C     C_R   0.497824 0.502109 0.707693 -0.240065
C19   C     C_R   0.491306 0.436081 0.034457 -0.146862
C20   C     C_R   0.504650 0.565265 0.965380 -0.146614
C21   C     C_R   0.491299 0.436572 0.962872 -0.154574
C22   C     C_R   0.504683 0.564766 0.036971 -0.154624
C23   C     C_R   0.672976 0.451798 0.498053 0.865244
C24   C     C_R   0.326909 0.548225 0.501211 0.863765
C25   C     C_R   0.498052 0.501137 0.927794 0.140330
C26   C     C_R   0.498085 0.500141 0.072056 0.140494
C27   C     C_R   0.556896 0.262590 0.544157 0.819344
C28   C     C_R   0.443354 0.737335 0.455657 0.819033
C29   C     C_R   0.558495 0.184725 0.545670 -0.402328
C30   C     C_R   0.441805 0.815180 0.454090 -0.402515
C31   C     C_R   0.500896 0.160747 0.501782 -0.157112
C32   C     C_R   0.499269 0.839207 0.498066 -0.159775
C33   C     C_R   0.444171 0.216328 0.456085 0.520959
C34   C     C_R   0.555845 0.783687 0.543873 0.520500
C35   C     C_R   0.444409 0.293418 0.455623 0.281349
C36   C     C_R   0.555551 0.706613 0.544393 0.279708
C37   C     C_R   0.418923 0.063277 0.499503 -0.069618
C38   C     C_R   0.581272 0.936654 0.500300 -0.069747
C39   C     C_R   0.418410 0.986234 0.496873 -0.162699
C40   C     C_R   0.581785 0.013701 0.502922 -0.162160
C41   C     C_R   0.499569 0.921694 0.497581 0.187471
C42   C     C_R   0.500622 0.078245 0.502225 0.187116
C43   C     C_R   0.772416 0.421592 0.490405 -0.170920
C44   C     C_R   0.226673 0.578842 0.501074 -0.169522
C45   C     C_R   0.916814 0.320338 0.464128 0.220692
C46   C     C_R   0.079153 0.683350 0.504644 0.220898
C47   C     C_R   0.823403 0.342445 0.474500 0.270094
C48   C     C_R   0.173985 0.659409 0.508116 0.273173
C49   C     C_R   0.816179 0.476144 0.495867 -0.268243
C50   C     C_R   0.183187 0.524252 0.493164 -0.261783
C51   C     C_R   0.907926 0.456646 0.481892 0.052170
C52   C     C_R   0.088951 0.546582 0.488152 0.054873
C53   C     C_R   0.959047 0.377209 0.467617 0.021426
C54   C     C_R   0.036624 0.627203 0.495011 0.023164
C55   C     C_R   0.950337 0.514195 0.483335 0.100581
C56   C     C_R   0.045539 0.490227 0.478462 0.095582
Cu1   Cu    Cu3+1 0.500030 0.426630 0.500000 1.104197
Cu2   Cu    Cu3+1 0.499970 0.573370 0.500000 1.103152
H1    H     H_    0.093204 0.296868 0.444220 0.207000
H2    H     H_    0.899539 0.710939 0.495683 0.199210
H3    H     H_    0.484851 0.386086 0.060435 0.157043
H4    H     H_    0.511165 0.615232 0.939393 0.157062
H5    H     H_    0.484789 0.386963 0.934883 0.152616
H6    H     H_    0.511300 0.614338 0.064952 0.152392
H7    H     H_    0.603901 0.143675 0.581546 0.219950
H8    H     H_    0.396568 0.856172 0.418085 0.220564
H9    H     H_    0.355020 0.111372 0.500087 0.184487
H10   H     H_    0.645172 0.888551 0.499729 0.183717
H11   H     H_    0.354346 0.977087 0.495694 0.176082
H12   H     H_    0.645850 0.022844 0.504101 0.176355
H13   H     H_    0.224861 0.463411 0.493040 0.192358
H14   H     H_    0.776985 0.534214 0.512629 0.200642
H15   H     H_    0.164809 0.389310 0.451777 0.181082
H16   H     H_    0.827733 0.618768 0.484633 0.157101
H17   H     H_    0.407167 0.618982 0.157343 0.181543
H18   H     H_    0.590322 0.382089 0.843261 0.181503
H19   H     H_    0.590872 0.379933 0.156176 0.183749
H20   H     H_    0.405713 0.620839 0.842993 0.183653
N1    N     N_R   0.500010 0.316380 0.499980 -0.295866
N2    N     N_R   0.499990 0.683620 0.500020 -0.297267
O1    O     O_R   0.500040 0.438010 0.599820 -0.519759
O2    O     O_R   0.499960 0.561990 0.400180 -0.520267
O3    O     O_R   0.500000 0.561930 0.599810 -0.531572
O4    O     O_R   0.500000 0.438070 0.400190 -0.530637
O5    O     O_R   0.629870 0.403290 0.500000 -0.501022
O6    O     O_R   0.370130 0.596710 0.500000 -0.501601
O7    O     O_R   0.629830 0.527210 0.500000 -0.593374
O8    O     O_R   0.370170 0.472790 0.500000 -0.592614
F1    F     F_    0.613232 0.283816 0.587071 -0.554249
F2    F     F_    0.387301 0.716032 0.412533 -0.553520
F3    F     F_    0.390650 0.195242 0.409982 -0.617258
F4    F     F_    0.609308 0.804815 0.589998 -0.613678
Br1   Br    Br    0.364924 0.362557 0.389102 -0.381651
Br2   Br    Br    0.635082 0.637489 0.610886 -0.365499
Br3   Br    Br    0.227487 0.738580 0.526510 -0.280194
Br4   Br    Br    0.769326 0.262357 0.465616 -0.280563
Br5   Br    Br    0.986002 0.211575 0.444576 -0.359649
Br6   Br    Br    0.008276 0.793671 0.514147 -0.361704
F5    F     F_    0.398115 0.631512 0.289427 -0.583149
F6    F     F_    0.601107 0.369013 0.711259 -0.583468
Br7   Br    Br    0.629258 0.336411 0.299730 -0.389767
Br8   Br    Br    0.368765 0.663560 0.699041 -0.391769

loop_
_geom_bond_atom_site_label_1
_geom_bond_atom_site_label_2
_ccdc_geom_bond_type
C38   C40   A    
C55   C56   A    
C48   Br3   S    
C27   C29   A    
Cu1   N1    S    
C2    O4    A    
Cu2   O7    S    
C39   C41   A    
C51   C55   A    
C1    C18   S    
C7    F5    S    
C5    C53   A    
C19   C21   A    
C27   N1    A    
C33   F3    S    
C10   C12   A    
C20   C25   A    
C1    O1    A    
C23   C43   S    
C7    C9    A    
C45   C47   A    
C35   N1    A    
C37   C42   A    
C19   C26   A    
C10   H18   S    
C7    C17   A    
C49   H14   S    
C50   C52   A    
C32   C41   S    
C31   C33   A    
C14   C16   A    
C4    H16   S    
Cu2   N2    S    
C40   C42   A    
C46   Br6   S    
C45   C53   A    
C23   O7    A    
C2    C17   S    
C29   C31   A    
C6    C54   A    
C28   N2    A    
Cu2   O6    S    
C52   C54   A    
C46   C48   A    
C35   Br1   S    
C13   H19   S    
C5    H1    S    
C6    H2    S    
C38   C41   A    
C4    C6    A    
C36   N2    A    
C43   C49   A    
C11   C26   S    
C49   C51   A    
C8    C18   A    
C51   C53   A    
C32   C34   A    
C50   H13   S    
C20   H4    S    
C24   O8    A    
C3    C56   A    
C47   Br4   S    
C46   C54   A    
C39   H11   S    
Cu1   O4    S    
C16   C18   A    
C15   Br7   S    
C9    C11   A    
C30   H8    S    
C40   H12   S    
C29   H7    S    
C16   Br8   S    
C20   C22   A    
C13   C15   A    
C4    C55   A    
C23   O5    A    
C24   C44   S    
Cu1   O1    S    
C2    O2    A    
C44   C50   A    
C15   C17   A    
C21   C25   A    
C38   H10   S    
C3    C5    A    
C1    O3    A    
Cu1   O8    S    
C12   C25   S    
Cu2   O2    S    
C12   C14   A    
C37   C39   A    
C44   C48   A    
C45   Br5   S    
Cu2   O3    S    
C30   C32   A    
C11   C13   A    
Cu1   Cu2   S    
C31   C42   S    
C24   O6    A    
C19   H3    S    
C37   H9    S    
C28   C30   A    
C33   C35   A    
Cu1   O5    S    
C27   F1    S    
C34   C36   A    
C14   H20   S    
C8    F6    S    
C3    H15   S    
C34   F4    S    
C21   H5    S    
C22   H6    S    
C36   Br2   S    
C8    C10   A    
C22   C26   A    
C28   F2    S    
C9    H17   S    
C43   C47   A    
C52   C56   A    
