data_mof_unit_39282.cif
_audit_creation_date              2012-12-10T20:36:39-0500
_audit_creation_method            fapswitch 2.2
_symmetry_space_group_name_H-M    P1
_symmetry_Int_Tables_number       1
_space_group_crystal_system       triclinic
_cell_length_a                    10.499619
_cell_length_b                    10.682854
_cell_length_c                    9.945962
_cell_angle_alpha                 91.052791
_cell_angle_beta                  90.310452
_cell_angle_gamma                 90.865349
_cell_volume                      1115.26410864

loop_
_atom_site_label
_atom_site_type_symbol
_atom_type_description
_atom_site_fract_x
_atom_site_fract_y
_atom_site_fract_z
_atom_type_partial_charge
C1    C     C_R   0.498258 0.260541 0.498883 0.959589
C2    C     C_3   0.959286 0.610383 0.555026 -0.156461
C3    C     C_3   0.042638 0.599708 0.427500 -0.228703
C4    C     C_3   0.122903 0.503148 0.500096 -0.019677
C5    C     C_R   0.537492 0.066090 0.607143 0.014087
C6    C     C_R   0.488297 0.128649 0.498411 -0.155285
C7    C     C_R   0.415709 0.063872 0.400513 -0.163851
C8    C     C_R   0.405985 0.933889 0.404354 0.438901
C9    C     C_R   0.473954 0.871107 0.506212 -0.219348
C10   C     C_R   0.526103 0.939436 0.614231 0.072960
C11   C     C_3   0.651139 0.929045 0.685998 -0.428959
C12   C     C_R   0.257737 0.501121 0.499850 0.893105
C13   C     C_3   0.666653 0.070727 0.673438 -0.141597
C14   C     C_R   0.394372 0.462550 0.069319 0.143061
C15   C     C_R   0.599408 0.549968 0.073963 0.414931
C16   C     C_R   0.601604 0.545851 0.931155 -0.051840
C17   C     C_R   0.393787 0.463821 0.927634 0.162210
C18   C     C_3   0.327165 0.339710 0.918622 -0.449712
C19   C     C_3   0.328977 0.337909 0.071584 -0.433146
C20   C     C_R   0.493395 0.739473 0.501207 0.865660
C21   C     C_R   0.742435 0.500334 0.500119 0.939102
C22   C     C_3   0.039479 0.396822 0.446167 0.446546
C23   C     C_3   0.957919 0.490784 0.371388 -0.168460
C24   C     C_3   0.877551 0.501164 0.499696 -0.054962
C25   C     C_3   0.957585 0.404518 0.572769 -0.182057
C26   C     C_3   0.042223 0.513788 0.627601 -0.202059
H1    H     H_    0.920639 0.479321 0.267130 0.211821
H2    H     H_    0.720488 0.872745 0.627085 0.211410
H3    H     H_    0.229646 0.347135 0.875696 0.212640
H4    H     H_    0.386347 0.266208 0.870811 0.245252
H5    H     H_    0.232472 0.343425 0.116533 0.235551
H6    H     H_    0.390422 0.263925 0.113093 0.215618
H7    H     H_    0.919644 0.326220 0.632817 0.207656
H8    H     H_    0.082005 0.523145 0.730983 0.172228
H9    H     H_    0.921316 0.698072 0.599798 0.180012
H10   H     H_    0.081692 0.679047 0.369266 0.173831
H11   H     H_    0.367715 0.113573 0.321354 0.189026
H12   H     H_    0.637427 0.898351 0.791093 0.263435
N1    N     N_R   0.499140 0.499140 0.142800 -0.165744
N2    N     N_R   0.499140 0.499180 0.857150 -0.172012
O1    O     O_R   0.500020 0.316790 0.614690 -0.629704
O2    O     O_R   0.500000 0.316760 0.385350 -0.607453
O3    O     O_R   0.313960 0.499990 0.614650 -0.634348
O4    O     O_R   0.313940 0.499950 0.385310 -0.614377
O5    O     O_R   0.500000 0.683240 0.614650 -0.573426
O6    O     O_R   0.499980 0.683210 0.385310 -0.640306
O7    O     O_R   0.686060 0.500050 0.614690 -0.598207
O8    O     O_R   0.686040 0.500010 0.385350 -0.608156
Zn1   Zn    Zn3+2 0.500010 0.500020 0.653130 0.996571
Zn2   Zn    Zn3+2 0.499990 0.499980 0.346870 0.985323
C27   C     C_2   0.666134 0.142133 0.806575 0.943444
O9    O     O_2   0.740942 0.229432 0.827022 -0.607212
O10   O     O_R   0.578677 0.109253 0.905986 -0.804990
H13   H     H_    0.587568 0.163880 0.990064 0.345317
C28   C     C_2   0.778633 0.103394 0.583855 0.886907
O11   O     O_2   0.763209 0.157752 0.478016 -0.659568
O12   O     O_R   0.901083 0.069720 0.623996 -0.782471
H14   H     H_    0.968666 0.094328 0.556652 0.353604
O13   O     O_3   0.698866 0.608966 0.141059 -0.739525
H15   H     H_    0.662342 0.653339 0.219259 0.375858
C29   C     C_2   0.716766 0.595888 0.867138 1.061904
O14   O     O_2   0.709041 0.681082 0.788104 -0.668011
O15   O     O_R   0.835993 0.551539 0.905008 -0.753232
H16   H     H_    0.908449 0.600124 0.862645 0.327944
O16   O     O_3   0.087878 0.286595 0.389943 -0.781265
H17   H     H_    0.012619 0.239217 0.354665 0.355306
O17   O     O_3   0.332837 0.873096 0.306976 -0.735766
H18   H     H_    0.304012 0.791386 0.342121 0.331080

loop_
_geom_bond_atom_site_label_1
_geom_bond_atom_site_label_2
_ccdc_geom_bond_type
C2    H9    S    
C11   H12   S    
C4    C26   S    
C23   C24   S    
C22   O16   S    
C6    C7    A    
C18   H4    S    
C23   H1    S    
C4    C12   S    
C4    C22   S    
C9    C10   A    
O6    Zn2   S    
C9    C20   S    
C5    C13   S    
C20   O5    A    
O5    Zn1   S    
C28   O11   D    
C21   O8    A    
C19   H5    S    
O8    Zn2   S    
C17   C18   S    
C7    H11   S    
C7    C8    A    
C2    C26   S    
C18   H3    S    
O7    Zn1   S    
O10   H13   S    
C11   C13   S    
C14   C17   A    
C15   N1    A    
O12   H14   S    
C29   O14   D    
O13   H15   S    
C15   O13   S    
C11   H2    S    
O2    Zn2   S    
O17   H18   S    
C19   H6    S    
C3    H10   S    
C27   O10   S    
C1    O1    A    
C16   N2    A    
C2    C3    S    
C12   O3    A    
C28   O12   S    
C2    C24   S    
C5    C6    A    
C14   N1    A    
C20   O6    A    
C10   C11   S    
O15   H16   S    
O4    Zn2   S    
N2    Zn1   S    
C1    O2    A    
C5    C10   A    
N1    Zn2   S    
C24   C25   S    
C22   C25   S    
C8    O17   S    
C12   O4    A    
O16   H17   S    
C16   C29   S    
C21   C24   S    
O1    Zn1   S    
C1    C6    S    
C29   O15   S    
C22   C23   S    
C18   C19   S    
C21   O7    A    
C25   C26   S    
C13   C27   S    
C3    C23   S    
C14   C19   S    
C26   H8    S    
C15   C16   A    
O3    Zn1   S    
C3    C4    S    
C27   O9    D    
C25   H7    S    
C8    C9    A    
C13   C28   S    
C17   N2    A    
