data_mof_unit_47490.cif
_audit_creation_date              2012-12-10T17:47:16-0500
_audit_creation_method            fapswitch 2.2
_symmetry_space_group_name_H-M    P1
_symmetry_Int_Tables_number       1
_space_group_crystal_system       triclinic
_cell_length_a                    11.692994
_cell_length_b                    14.85015
_cell_length_c                    14.735153
_cell_angle_alpha                 64.565407
_cell_angle_beta                  104.938599
_cell_angle_gamma                 102.666362
_cell_volume                      2215.21655341

loop_
_atom_site_label
_atom_site_type_symbol
_atom_type_description
_atom_site_fract_x
_atom_site_fract_y
_atom_site_fract_z
_atom_type_partial_charge
C1    C     C_R   0.488579 0.119474 0.311868 0.819310
C2    C     C_R   0.511421 0.880526 0.688132 0.819311
C3    C     C_R   0.477796 0.326072 0.996215 0.102925
C4    C     C_R   0.522207 0.673929 0.003786 0.102927
C5    C     C_R   0.505388 0.465033 0.051566 0.087091
C6    C     C_R   0.494620 0.534968 0.948435 0.087091
C7    C     C_R   0.490013 0.499418 0.873223 -0.218987
C8    C     C_R   0.509996 0.500583 0.126778 -0.218987
C9    C     C_R   0.475635 0.397462 0.895286 -0.208512
C10   C     C_R   0.524372 0.602540 0.104715 -0.208511
C11   C     C_R   0.689226 0.276965 0.679536 -0.148506
C12   C     C_R   0.310774 0.723036 0.320464 -0.148506
C13   C     C_R   0.668208 0.202723 0.640261 0.108104
C14   C     C_R   0.331792 0.797276 0.359739 0.108104
C15   C     C_R   0.512200 0.284995 0.509260 0.063012
C16   C     C_R   0.487801 0.715006 0.490740 0.063013
C17   C     C_R   0.542307 0.370381 0.536034 -0.069166
C18   C     C_R   0.457694 0.629620 0.463965 -0.069166
C19   C     C_R   0.622365 0.358910 0.629580 0.095115
C20   C     C_R   0.377636 0.641090 0.370419 0.095114
C21   C     C_R   0.492385 0.464049 0.477990 0.093997
C22   C     C_R   0.507617 0.535952 0.522009 0.093997
C23   C     C_R   0.284274 0.000030 0.499823 0.828169
C24   C     C_R   0.715726 0.999970 0.500177 0.828169
C25   C     C_R   0.567294 0.509426 0.624036 -0.228927
C26   C     C_R   0.432708 0.490575 0.375962 -0.228927
C27   C     C_R   0.629792 0.427081 0.673945 -0.181663
C28   C     C_R   0.370210 0.572920 0.326054 -0.181663
C29   C     C_1   0.162451 0.999911 0.499845 -0.143824
C30   C     C_1   0.837549 0.000089 0.500155 -0.143825
C31   C     C_1   0.059917 0.999950 0.499931 0.021126
C32   C     C_1   0.940083 0.000050 0.500069 0.021126
C33   C     C_R   0.493319 0.187441 0.202267 -0.159533
C34   C     C_R   0.506681 0.812559 0.797733 -0.159535
C35   C     C_R   0.459539 0.221474 0.019022 0.122867
C36   C     C_R   0.540456 0.778527 0.980978 0.122869
C37   C     C_R   0.462676 0.152254 0.122167 -0.060954
C38   C     C_R   0.537320 0.847746 0.877833 -0.060953
C39   C     C_R   0.535286 0.290456 0.177736 0.094101
C40   C     C_R   0.464717 0.709543 0.822264 0.094101
C41   C     C_R   0.505073 0.360729 0.076154 0.040717
C42   C     C_R   0.494932 0.639272 0.923847 0.040716
Cu1   Cu    Cu3+1 0.469550 0.918260 0.475690 0.969172
Cu2   Cu    Cu3+1 0.530450 0.081740 0.524310 0.969172
H1    H     H_    0.465256 0.376036 0.831893 0.165348
H2    H     H_    0.534752 0.623966 0.168107 0.165348
H3    H     H_    0.566058 0.550537 0.668208 0.138630
H4    H     H_    0.433944 0.449464 0.331790 0.138631
H5    H     H_    0.497123 0.550126 0.796120 0.158427
H6    H     H_    0.502889 0.449875 0.203882 0.158426
H7    H     H_    0.680287 0.415065 0.750122 0.161514
H8    H     H_    0.319714 0.584936 0.249877 0.161514
N1    N     N_R   0.576230 0.204580 0.560790 -0.225871
N2    N     N_R   0.423770 0.795420 0.439210 -0.225871
O1    O     O_R   0.459870 0.022090 0.338120 -0.577782
O2    O     O_R   0.540130 0.977910 0.661880 -0.577782
O3    O     O_R   0.511290 0.160150 0.379180 -0.573771
O4    O     O_R   0.488710 0.839850 0.620820 -0.573770
O5    O     O_R   0.311490 0.930960 0.479480 -0.582749
O6    O     O_R   0.688510 0.069040 0.520520 -0.582749
O7    O     O_R   0.362910 0.069020 0.520540 -0.566327
O8    O     O_R   0.637090 0.930980 0.479460 -0.566327
C43   C     C_3   0.358896 0.680741 0.750330 -0.797844
H9    H     H_    0.387524 0.670443 0.689650 0.235046
H10   H     H_    0.304296 0.610663 0.792409 0.232606
H11   H     H_    0.298408 0.740049 0.713286 0.229505
C44   C     C_3   0.641108 0.319256 0.249672 -0.797848
H12   H     H_    0.695709 0.389334 0.207594 0.232606
H13   H     H_    0.612480 0.329553 0.310352 0.235047
H14   H     H_    0.701593 0.259947 0.286715 0.229505
C45   C     C_1   0.552319 0.954283 0.854849 0.308459
N3    N     N_1   0.562976 0.039050 0.837848 -0.301198
C46   C     C_1   0.447675 0.045718 0.145150 0.308460
N4    N     N_1   0.437017 0.960952 0.162150 -0.301199
C47   C     C_3   0.434326 0.185229 0.932673 -0.818016
H15   H     H_    0.418120 0.102539 0.957632 0.247495
H16   H     H_    0.353375 0.215062 0.877312 0.233445
H17   H     H_    0.511659 0.211871 0.892946 0.237778
C48   C     C_3   0.565657 0.814771 0.067326 -0.818027
H18   H     H_    0.581846 0.897460 0.042365 0.247499
H19   H     H_    0.488326 0.788119 0.107054 0.237776
H20   H     H_    0.646612 0.784949 0.122685 0.233447
C49   C     C_1   0.596082 0.725723 0.561139 0.315892
N5    N     N_1   0.683225 0.733640 0.617784 -0.290748
C50   C     C_1   0.403919 0.274277 0.438860 0.315893
N6    N     N_1   0.316775 0.266360 0.382216 -0.290748
C51   C     C_1   0.259298 0.878734 0.311982 0.353572
N7    N     N_1   0.200484 0.943532 0.272917 -0.281577
C52   C     C_1   0.740701 0.121265 0.688019 0.353571
N8    N     N_1   0.799514 0.056467 0.727085 -0.281577
C53   C     C_1   0.779328 0.268484 0.770653 0.228202
N9    N     N_1   0.851036 0.261635 0.843261 -0.255663
C54   C     C_1   0.220672 0.731516 0.229346 0.228202
N10   N     N_1   0.148965 0.738366 0.156739 -0.255663

loop_
_geom_bond_atom_site_label_1
_geom_bond_atom_site_label_2
_ccdc_geom_bond_type
C21   C26   A    
C43   H10   S    
C9    H1    S    
C54   N10   T    
C8    H6    S    
C11   C13   A    
C46   N4    T    
Cu1   Cu2   S    
C4    C36   A    
C1    C33   S    
C39   C41   A    
C50   N6    T    
C23   O5    A    
C35   C47   S    
C33   C39   A    
C40   C43   S    
C34   C40   A    
C23   C29   S    
C35   C37   A    
C14   C51   S    
C5    C6    A    
C7    C9    A    
C37   C46   S    
Cu1   O4    S    
Cu2   N1    S    
C49   N5    T    
C22   C25   A    
C10   H2    S    
C19   C27   A    
C25   H3    S    
Cu1   O5    S    
C15   C50   S    
C2    C34   S    
C40   C42   A    
C43   H11   S    
C34   C38   A    
C21   C22   A    
C27   H7    S    
C13   N1    A    
C44   H12   S    
C7    H5    S    
C53   N9    T    
C48   H19   S    
C20   C28   A    
C16   C49   S    
C33   C37   A    
C43   H9    S    
C44   H13   S    
C47   H15   S    
C3    C9    A    
C1    O3    A    
C5    C8    A    
Cu2   O2    S    
Cu1   N2    S    
C31   C32   S    
C3    C35   A    
Cu2   O3    S    
C24   O6    A    
C11   C19   A    
C12   C20   A    
C16   C18   A    
C47   H16   S    
Cu1   O1    S    
C14   N2    A    
C12   C14   A    
C12   C54   S    
C4    C10   A    
C15   N1    A    
C15   C17   A    
C5    C41   A    
C38   C45   S    
C3    C41   A    
C24   O8    A    
C13   C52   S    
C18   C22   A    
C39   C44   S    
C36   C48   S    
C48   H20   S    
C2    O4    A    
C6    C7    A    
C26   H4    S    
Cu2   O7    S    
C25   C27   A    
C26   C28   A    
C44   H14   S    
C16   N2    A    
C36   C38   A    
C1    O1    A    
C45   N3    T    
C29   C31   T    
C2    O2    A    
C30   C32   T    
C28   H8    S    
C4    C42   A    
Cu2   O6    S    
C17   C19   A    
C18   C20   A    
C47   H17   S    
C24   C30   S    
C48   H18   S    
C11   C53   S    
C23   O7    A    
C51   N7    T    
C8    C10   A    
C6    C42   A    
C52   N8    T    
Cu1   O8    S    
C17   C21   A    
