data_mof_unit_33764.cif
_audit_creation_date              2012-12-11T18:13:32-0500
_audit_creation_method            fapswitch 2.2
_symmetry_space_group_name_H-M    P1
_symmetry_Int_Tables_number       1
_space_group_crystal_system       triclinic
_cell_length_a                    8.176479
_cell_length_b                    12.728781
_cell_length_c                    18.706671
_cell_angle_alpha                 99.682281
_cell_angle_beta                  91.01527
_cell_angle_gamma                 98.50571
_cell_volume                      1896.27252121

loop_
_atom_site_label
_atom_site_type_symbol
_atom_type_description
_atom_site_fract_x
_atom_site_fract_y
_atom_site_fract_z
_atom_type_partial_charge
Ba1   Ba    Ba6+2 0.852780 0.548340 0.465070 1.635584
Ba2   Ba    Ba6+2 0.337060 0.451750 0.534940 1.639917
C1    C     C_3   0.585458 0.901447 0.255769 -0.414554
C2    C     C_R   0.892543 0.396070 0.095572 0.033798
C3    C     C_R   0.729434 0.350050 0.072579 -0.084435
C4    C     C_3   0.130697 0.762453 0.266077 0.364057
C5    C     C_R   0.667848 0.356057 0.003421 -0.092224
C6    C     C_R   0.769188 0.406363 0.955296 0.034058
C7    C     C_R   0.932789 0.453424 0.977660 0.014221
C8    C     C_R   0.710001 0.408025 0.884812 -0.115958
C9    C     C_R   0.814032 0.451614 0.834205 -0.039176
C10   C     C_R   0.976671 0.503163 0.857200 -0.004062
C11   C     C_R   0.034999 0.504109 0.929355 -0.008747
C12   C     C_3   0.634779 0.819618 0.299390 0.342548
C13   C     C_R   0.762068 0.442643 0.760715 -0.017826
C14   C     C_R   0.871596 0.482288 0.711412 -0.287312
C15   C     C_R   0.026644 0.542151 0.733927 0.044330
C16   C     C_3   0.111494 0.787327 0.189913 -0.367736
C17   C     C_R   0.081024 0.553375 0.808310 -0.049611
C18   C     C_R   0.156569 0.497465 0.071570 -0.008057
C19   C     C_R   0.215935 0.496561 0.143311 -0.005839
C20   C     C_R   0.111411 0.446152 0.192059 -0.043756
C21   C     C_R   0.953921 0.390889 0.165355 -0.041040
C22   C     C_R   0.237174 0.610538 0.835351 -0.043969
C23   C     C_3   0.460591 0.276154 0.313843 0.309669
C24   C     C_R   0.298192 0.606468 0.905487 0.033724
C25   C     C_R   0.197163 0.552879 0.952666 0.006330
C26   C     C_R   0.258378 0.548852 0.023440 0.013898
C27   C     C_R   0.460701 0.653547 0.928789 -0.080957
C28   C     C_3   0.234855 0.786460 0.620525 0.281633
C29   C     C_R   0.522390 0.647592 0.997972 -0.090110
C30   C     C_R   0.421747 0.596321 0.045906 0.032103
C31   C     C_R   0.379446 0.546702 0.166088 -0.044897
C32   C     C_R   0.481800 0.593348 0.116098 -0.108897
C33   C     C_R   0.434301 0.550700 0.238699 -0.001159
C34   C     C_3   0.433896 0.239249 0.232304 -0.401786
C35   C     C_R   0.326298 0.508465 0.287662 -0.297574
C36   C     C_R   0.167047 0.454788 0.265984 0.045879
C37   C     C_R   0.770424 0.182733 0.524740 -0.288187
C38   C     C_R   0.428638 0.810497 0.472475 -0.286737
C39   C     C_R   0.403631 0.985220 0.445059 -0.102954
C40   C     C_3   0.280646 0.908181 0.640022 -0.386215
C41   C     C_R   0.338126 0.877558 0.442332 -0.010989
C42   C     C_R   0.574014 0.852267 0.514616 0.055814
C43   C     C_R   0.636344 0.965499 0.523991 -0.039682
C44   C     C_R   0.553926 0.030292 0.484232 -0.062648
C45   C     C_3   0.067387 0.246157 0.735691 0.409424
C46   C     C_R   0.619992 0.140063 0.487450 0.046620
C47   C     C_R   0.854783 0.120277 0.561900 0.004869
C48   C     C_R   0.776482 0.017759 0.570647 0.003385
C49   C     C_3   0.960991 0.211949 0.379094 0.274282
C50   C     C_3   0.958678 0.090760 0.363467 -0.341213
C51   C     C_3   0.730175 0.694441 0.679939 0.316947
C52   C     C_3   0.754182 0.730888 0.761758 -0.411566
C53   C     C_3   0.804421 0.988903 0.643834 -0.339448
C54   C     C_3   0.062724 0.216969 0.811315 -0.381892
C55   C     C_3   0.566795 0.191448 0.743270 0.312021
C56   C     C_3   0.510041 0.105691 0.788884 -0.373312
C57   C     C_R   0.993949 0.449378 0.048399 0.006824
H1    H     H_    0.727082 0.861354 0.343088 0.077449
H2    H     H_    0.847651 0.675077 0.657201 0.010528
H3    H     H_    0.632985 0.622410 0.668618 0.082172
H4    H     H_    0.536013 0.966570 0.292155 0.102793
H5    H     H_    0.861759 0.796405 0.774218 0.118902
H6    H     H_    0.775749 0.663547 0.789282 0.063784
H7    H     H_    0.641654 0.761648 0.783649 0.122847
H8    H     H_    0.522448 0.785846 0.325329 -0.050994
H9    H     H_    0.488824 0.861136 0.213617 0.113824
H10   H     H_    0.344296 0.300445 0.335951 0.020052
H11   H     H_    0.561320 0.346398 0.323879 0.059326
H12   H     H_    0.397746 0.927892 0.673351 0.101697
H13   H     H_    0.328591 0.172029 0.220606 0.129534
H14   H     H_    0.406057 0.306851 0.206006 0.056084
H15   H     H_    0.547307 0.211188 0.209270 0.117450
H16   H     H_    0.694055 0.937089 0.228391 0.129554
H17   H     H_    0.149439 0.721947 0.149619 0.071737
H18   H     H_    0.155413 0.321801 0.737148 0.101001
H19   H     H_    0.942131 0.260617 0.720190 -0.120018
H20   H     H_    0.187914 0.206054 0.829719 0.142088
H21   H     H_    0.020405 0.282079 0.850218 0.075751
H22   H     H_    0.975716 0.141115 0.810969 0.102671
H23   H     H_    0.297104 0.944536 0.590433 0.101302
H24   H     H_    0.693511 0.228507 0.763879 -0.033964
H25   H     H_    0.568222 0.153430 0.685293 0.028058
H26   H     H_    0.516968 0.142894 0.847221 0.105913
H27   H     H_    0.590898 0.042288 0.781219 0.069720
H28   H     H_    0.047374 0.686348 0.269251 0.095493
H29   H     H_    0.380099 0.068624 0.773309 0.142813
H30   H     H_    0.648796 0.310053 0.108325 0.061152
H31   H     H_    0.541341 0.319952 0.987197 0.068121
H32   H     H_    0.830808 0.472648 0.655039 0.065895
H33   H     H_    0.583516 0.372076 0.869633 0.101734
H34   H     H_    0.182059 0.943374 0.671391 0.143590
H35   H     H_    0.874928 0.345794 0.198881 0.096390
H36   H     H_    0.315819 0.655558 0.801651 0.103124
H37   H     H_    0.541011 0.694087 0.893215 0.062636
H38   H     H_    0.648691 0.684101 0.014253 0.070655
H39   H     H_    0.608356 0.629333 0.131264 0.109210
H40   H     H_    0.260736 0.751159 0.275425 -0.072961
H41   H     H_    0.369031 0.514454 0.343477 0.072214
H42   H     H_    0.333126 0.032877 0.417561 0.098358
H43   H     H_    0.824474 0.265277 0.523498 0.059721
H44   H     H_    0.379790 0.725578 0.466748 0.068310
H45   H     H_    0.836260 0.229239 0.392320 0.003302
H46   H     H_    0.980478 0.793873 0.177527 0.149541
H47   H     H_    0.190314 0.864618 0.185397 0.110708
H48   H     H_    0.343115 0.751544 0.598600 0.018530
H49   H     H_    0.131736 0.767418 0.579043 0.075240
H50   H     H_    0.847725 0.060425 0.685342 0.079916
H51   H     H_    0.683829 0.959870 0.664672 0.117392
H52   H     H_    0.896230 0.932884 0.642127 0.147442
H53   H     H_    0.049342 0.245841 0.425793 0.078402
H54   H     H_    0.872901 0.054364 0.316453 0.116014
H55   H     H_    0.916911 0.054761 0.411196 0.083348
H56   H     H_    0.084777 0.072673 0.350823 0.138741
O1    O     O_2   0.873090 0.425890 0.325140 -0.468840
O2    O     O_2   0.196792 0.122809 0.551917 -0.469659
O3    O     O_3   0.119035 0.161845 0.686998 -0.589721
O4    O     O_3   0.122420 0.434370 0.414380 -0.495466
O5    O     O_3   0.578370 0.633800 0.536380 -0.483916
O6    O     O_2   0.341510 0.231850 0.465510 -0.465187
O7    O     O_3   0.503542 0.190726 0.345011 -0.651686
O8    O     O_2   0.434348 0.467212 0.756049 -0.493155
O9    O     O_3   0.455942 0.266410 0.750940 -0.580748
O10   O     O_3   0.659500 0.627100 0.368810 -0.473739
O11   O     O_2   0.776567 0.547166 0.243681 -0.495632
O12   O     O_3   0.681847 0.779589 0.651080 -0.648736
O13   O     O_3   0.005786 0.253733 0.316718 -0.640916
O14   O     O_3   0.707007 0.741924 0.252994 -0.599685
O15   O     O_2   0.848200 0.768190 0.534530 -0.471248
O16   O     O_3   0.081160 0.685950 0.404810 -0.488072
O17   O     O_2   0.999324 0.879155 0.450503 -0.481718
O18   O     O_3   0.088545 0.848042 0.316582 -0.600203
O19   O     O_2   0.316610 0.574140 0.674900 -0.460378
O20   O     O_3   0.067290 0.565720 0.585630 -0.499836
O21   O     O_3   0.530210 0.372990 0.631200 -0.458529
O22   O     O_3   0.188381 0.746197 0.683296 -0.640467
O23   O     O_3   0.611340 0.366290 0.463630 -0.478630
O24   O     O_3   0.108550 0.314140 0.595200 -0.483413
P1    P     P_3+3 0.041040 0.394770 0.336330 0.970806
P2    P     P_3+3 0.672880 0.754030 0.556100 0.974508
P3    P     P_3+3 0.127648 0.823914 0.404244 0.948770
P4    P     P_3+3 0.148670 0.605320 0.663680 0.969340
P5    P     P_3+3 0.068149 0.177109 0.598425 0.972826
P6    P     P_3+3 0.643820 0.614204 0.274934 0.948737
P7    P     P_3+3 0.522370 0.230495 0.439338 0.936467
P8    P     P_3+3 0.548954 0.386499 0.725352 0.946420

loop_
_geom_bond_atom_site_label_1
_geom_bond_atom_site_label_2
_ccdc_geom_bond_type
C49   H53   S    
C28   H48   S    
C40   H34   S    
C1    H9    S    
C40   H23   S    
C32   H39   S    
C54   H22   S    
C52   H6    S    
C51   C52   S    
O18   P3    S    
Ba2   O19   S    
C54   H20   S    
O4    P1    S    
C33   C35   A    
Ba1   O10   S    
C4    O18   S    
O3    P5    S    
C33   P6    S    
C50   H56   S    
C19   C31   A    
C13   C14   A    
C20   C36   A    
C47   P5    S    
C10   C17   A    
Ba1   Ba2   S    
Ba1   O4    S    
O15   P2    D    
C7    C11   A    
C51   O12   S    
C15   C17   A    
O19   P4    D    
C51   H2    S    
C38   C41   A    
Ba2   O24   S    
Ba2   O4    S    
C6    C7    A    
C46   P7    S    
C39   C44   A    
C55   H24   S    
Ba1   O1    S    
C1    H16   S    
C23   O7    S    
O14   P6    S    
C53   H52   S    
O20   P4    S    
O22   P4    S    
C8    H33   S    
C28   O22   S    
C19   C20   A    
C53   H50   S    
Ba2   P4    S    
C39   C41   A    
C9    C13   A    
C56   H27   S    
O11   P6    D    
C45   O3    S    
O17   P3    D    
C4    C16   S    
O9    P8    S    
C44   C46   A    
C49   C50   S    
Ba2   O23   S    
C36   P1    S    
C5    C6    A    
O2    P5    D    
Ba1   O15   S    
C8    C9    A    
C22   H36   S    
C3    C5    A    
C2    C21   A    
Ba2   O5    S    
C42   P2    S    
C18   C26   A    
C49   H45   S    
C43   C44   A    
C5    H31   S    
Ba2   O21   S    
C4    H28   S    
C7    C57   A    
Ba1   O5    S    
C30   C32   A    
C16   H47   S    
C35   C36   A    
O24   P5    S    
C29   C30   A    
C26   C30   A    
C12   H8    S    
C31   C32   A    
C24   C25   A    
C55   H25   S    
C10   C11   A    
C18   C57   A    
O16   P3    S    
C1    C12   S    
C34   H15   S    
C24   C27   A    
O12   P2    S    
C37   C47   A    
C45   C54   S    
O8    P8    D    
C1    H4    S    
C53   H51   S    
C23   H10   S    
C49   O13   S    
C56   H26   S    
C42   C43   A    
C37   H43   S    
Ba2   O6    S    
C16   H17   S    
C28   H49   S    
C20   C21   A    
C28   C40   S    
O5    P2    S    
Ba2   O20   S    
C22   C24   A    
C2    C3    A    
Ba1   O16   S    
C56   H29   S    
C27   H37   S    
C9    C10   A    
C52   H7    S    
C29   H38   S    
C50   H55   S    
C12   H1    S    
C48   C53   S    
C54   H21   S    
C21   H35   S    
C15   P4    S    
C4    H40   S    
C17   C22   A    
O13   P1    S    
C16   H46   S    
C27   C29   A    
O10   P6    S    
C55   O9    S    
C13   P8    S    
C55   C56   S    
C14   C15   A    
C52   H5    S    
C43   C48   A    
O23   P7    S    
C50   H54   S    
C2    C57   A    
C40   H12   S    
C31   C33   A    
C39   H42   S    
O7    P7    S    
O21   P8    S    
Ba1   P2    S    
C34   H14   S    
C23   C34   S    
C14   H32   S    
C38   C42   A    
C18   C19   A    
C51   H3    S    
C6    C8    A    
C47   C48   A    
C25   C26   A    
C45   H18   S    
O6    P7    D    
C11   C25   A    
C41   P3    S    
Ba1   P1    S    
C23   H11   S    
C45   H19   S    
O1    P1    D    
Ba1   O20   S    
C35   H41   S    
C3    H30   S    
Ba1   O23   S    
C34   H13   S    
C37   C46   A    
C38   H44   S    
C12   O14   S    
