data_mof_unit_18327.cif
_audit_creation_date              2012-12-10T18:16:55-0500
_audit_creation_method            fapswitch 2.2
_symmetry_space_group_name_H-M    P1
_symmetry_Int_Tables_number       1
_space_group_crystal_system       triclinic
_cell_length_a                    15.872589
_cell_length_b                    15.890529
_cell_length_c                    14.655291
_cell_angle_alpha                 90.555661
_cell_angle_beta                  90.176273
_cell_angle_gamma                 90.424118
_cell_volume                      3696.12029708

loop_
_atom_site_label
_atom_site_type_symbol
_atom_type_description
_atom_site_fract_x
_atom_site_fract_y
_atom_site_fract_z
_atom_type_partial_charge
C1    C     C_R   0.499946 0.339824 0.499566 0.820942
C2    C     C_3   0.083012 0.496296 0.502343 0.066894
C3    C     C_3   0.972783 0.577085 0.505845 -0.171772
C4    C     C_3   0.916848 0.497220 0.503258 0.039989
C5    C     C_3   0.027958 0.538217 0.429022 -0.189022
C6    C     C_3   0.970552 0.458558 0.425857 -0.267177
C7    C     C_1   0.174525 0.496371 0.500777 0.018573
C8    C     C_1   0.825404 0.498667 0.501802 0.040921
C9    C     C_3   0.583618 0.051352 0.547960 0.282741
C10   C     C_3   0.502180 0.048419 0.399691 -0.608457
C11   C     C_3   0.495174 0.949077 0.396384 0.360342
C12   C     C_R   0.339450 0.499298 0.499850 0.821575
C13   C     C_1   0.501188 0.749505 0.500981 -0.117541
C14   C     C_3   0.502698 0.082927 0.499170 0.123530
C15   C     C_3   0.586412 0.953060 0.540538 -0.182682
C16   C     C_3   0.501452 0.917247 0.498533 -0.016086
C17   C     C_3   0.423685 0.951955 0.552737 0.261545
C18   C     C_3   0.423825 0.049395 0.549455 -0.349085
C19   C     C_1   0.501541 0.824875 0.500304 0.043396
C20   C     C_1   0.501343 0.174976 0.498291 -0.032725
C21   C     C_1   0.500483 0.250379 0.498506 -0.186647
C22   C     C_3   0.497058 0.585878 0.054628 -0.400949
C23   C     C_R   0.500401 0.660136 0.500369 0.821096
C24   C     C_3   0.420629 0.446690 0.052157 0.243845
C25   C     C_3   0.426866 0.436115 0.943073 0.406218
C26   C     C_3   0.500834 0.494370 0.091908 -0.090604
C27   C     C_3   0.486608 0.586951 0.948740 0.332244
C28   C     C_3   0.500425 0.496355 0.908137 -0.160672
C29   C     C_3   0.587095 0.462873 0.945815 -0.389006
C30   C     C_3   0.584197 0.449954 0.054075 0.263240
C31   C     C_1   0.501401 0.499969 0.804782 0.294885
C32   C     C_1   0.498973 0.497285 0.195187 0.124919
C33   C     C_R   0.660531 0.500028 0.500212 0.819967
C34   C     C_3   0.971951 0.455711 0.576690 -0.116631
C35   C     C_3   0.026073 0.418069 0.499919 0.433764
C36   C     C_1   0.249938 0.497571 0.499873 -0.163027
C37   C     C_1   0.750010 0.499466 0.500819 -0.125137
C38   C     C_3   0.028896 0.534697 0.578533 -0.075572
Cu1   Cu    Cu3+1 0.499890 0.499910 0.589920 1.024076
Cu2   Cu    Cu3+1 0.500110 0.500090 0.410080 0.982337
H1    H     H_    0.561870 0.069107 0.367333 0.182727
H2    H     H_    0.421117 0.076383 0.619772 0.233146
H3    H     H_    0.366036 0.071055 0.513622 0.145612
H4    H     H_    0.364542 0.930991 0.517658 0.079562
H5    H     H_    0.444194 0.620365 0.087349 0.219703
H6    H     H_    0.417478 0.383094 0.082399 0.089110
H7    H     H_    0.554692 0.621821 0.073951 0.192094
H8    H     H_    0.536487 0.629006 0.921010 0.103467
H9    H     H_    0.945522 0.427420 0.363191 0.142410
H10   H     H_    0.596103 0.399497 0.914372 0.212155
H11   H     H_    0.052121 0.572520 0.368784 0.159180
H12   H     H_    0.949488 0.642765 0.508529 0.164797
H13   H     H_    0.636657 0.938555 0.490075 0.144694
H14   H     H_    0.639328 0.075615 0.509317 0.044327
H15   H     H_    0.451360 0.078986 0.359916 0.217137
N1    N     N_1   0.501700 0.501390 0.724970 -0.134436
N2    N     N_1   0.498280 0.498620 0.275030 -0.161069
O1    O     O_R   0.499910 0.379360 0.575970 -0.549875
O2    O     O_R   0.500090 0.379510 0.424100 -0.588095
O3    O     O_R   0.378990 0.499920 0.575920 -0.560725
O4    O     O_R   0.379170 0.500070 0.424050 -0.587068
O5    O     O_R   0.499910 0.620490 0.575900 -0.589067
O6    O     O_R   0.500090 0.620640 0.424030 -0.544706
O7    O     O_R   0.620830 0.499930 0.575950 -0.551129
O8    O     O_R   0.621010 0.500080 0.424080 -0.567067
O9    O     O_3   0.059110 0.335854 0.499540 -0.598507
C39   C     C_3   0.994803 0.277353 0.477012 0.058204
H16   H     H_    0.982543 0.278823 0.402244 0.144350
H17   H     H_    0.935079 0.290777 0.514135 0.131169
C40   C     C_3   0.023634 0.189228 0.502897 -0.300803
H18   H     H_    0.036919 0.187632 0.577395 0.232612
H19   H     H_    0.082604 0.173917 0.465733 0.227842
C41   C     C_3   0.956552 0.123049 0.479629 -0.921292
H20   H     H_    0.897380 0.136356 0.517178 0.258803
H21   H     H_    0.979296 0.059901 0.499544 0.265533
H22   H     H_    0.943374 0.122429 0.405142 0.258823
O10   O     O_3   0.564086 0.913633 0.346915 -0.605533
C42   C     C_3   0.569907 0.940319 0.254881 0.065850
H23   H     H_    0.624714 0.983875 0.249370 0.148171
H24   H     H_    0.513287 0.974206 0.229813 0.140066
C43   C     C_3   0.585074 0.863675 0.193401 -0.295283
H25   H     H_    0.640756 0.828713 0.218643 0.241431
H26   H     H_    0.529320 0.821031 0.195742 0.242394
C44   C     C_3   0.600632 0.889499 0.094828 -0.912268
H27   H     H_    0.545436 0.923856 0.067741 0.263168
H28   H     H_    0.610979 0.832512 0.051997 0.266166
H29   H     H_    0.657439 0.930507 0.090625 0.262674
C45   C     C_2   0.412326 0.917754 0.352606 0.774804
O11   O     O_2   0.354419 0.966061 0.337267 -0.633516
O12   O     O_R   0.403199 0.832479 0.329870 -0.756655
H30   H     H_    0.346343 0.818851 0.301466 0.330933
O13   O     O_3   0.425341 0.926008 0.645253 -0.539906
C46   C     C_3   0.364231 0.863038 0.663578 0.090055
H31   H     H_    0.387804 0.825092 0.721341 0.167163
H32   H     H_    0.354852 0.818029 0.605569 0.119495
C47   C     C_3   0.280662 0.903358 0.691280 -0.408574
H33   H     H_    0.290959 0.944555 0.752069 0.237015
H34   H     H_    0.256748 0.942862 0.634823 0.218227
C48   C     C_3   0.214460 0.836625 0.713548 -0.833871
H35   H     H_    0.202071 0.795976 0.652832 0.287288
H36   H     H_    0.154800 0.867683 0.733620 0.260425
H37   H     H_    0.236080 0.797021 0.770934 0.247604
O14   O     O_3   0.583940 0.078678 0.640895 -0.561474
C49   C     C_3   0.644817 0.142645 0.657892 0.085188
H38   H     H_    0.624562 0.178313 0.719497 0.184800
H39   H     H_    0.648579 0.189173 0.601638 0.125455
C50   C     C_3   0.731507 0.104518 0.676885 -0.373105
H40   H     H_    0.726931 0.061510 0.736053 0.248551
H41   H     H_    0.752757 0.067374 0.616727 0.209657
C51   C     C_3   0.796951 0.172986 0.697680 -0.880368
H42   H     H_    0.802967 0.216347 0.639001 0.256502
H43   H     H_    0.859154 0.143699 0.710292 0.264821
H44   H     H_    0.778612 0.209519 0.759397 0.269112
C52   C     C_2   0.617024 0.910053 0.626849 0.915002
O15   O     O_2   0.580445 0.919156 0.699494 -0.509120
O16   O     O_R   0.688991 0.859960 0.622576 -0.792081
H45   H     H_    0.703924 0.834552 0.683671 0.331394
O17   O     O_3   0.404451 0.615896 0.926394 -0.520880
C53   C     C_3   0.405190 0.697675 0.888824 0.077095
H46   H     H_    0.343765 0.706409 0.853837 0.173030
H47   H     H_    0.454332 0.705194 0.835310 0.117801
C54   C     C_3   0.414156 0.765202 0.963824 -0.403408
H48   H     H_    0.364711 0.755254 0.016250 0.240869
H49   H     H_    0.476732 0.760161 0.997273 0.213618
C55   C     C_3   0.405458 0.853505 0.925183 -0.857492
H50   H     H_    0.455852 0.865797 0.874492 0.285657
H51   H     H_    0.411070 0.900674 0.981260 0.259963
H52   H     H_    0.342884 0.860757 0.892266 0.252734
C56   C     C_2   0.941241 0.408020 0.658154 0.897228
O18   O     O_2   0.991953 0.373079 0.707607 -0.572126
O19   O     O_R   0.855096 0.403234 0.676793 -0.751543
H53   H     H_    0.842454 0.369400 0.733480 0.352096
O20   O     O_3   0.346067 0.492390 0.073787 -0.570138
C57   C     C_3   0.312968 0.474169 0.161343 0.058393
H54   H     H_    0.329085 0.527497 0.207967 0.178545
H55   H     H_    0.337347 0.415363 0.192291 0.119674
C58   C     C_3   0.217074 0.466871 0.155059 -0.355068
H56   H     H_    0.191320 0.524275 0.122762 0.235221
H57   H     H_    0.199820 0.411479 0.111877 0.205467
C59   C     C_3   0.177655 0.456679 0.249272 -0.876307
H58   H     H_    0.201855 0.399241 0.282756 0.265236
H59   H     H_    0.108161 0.450836 0.242427 0.253752
H60   H     H_    0.192400 0.512452 0.292870 0.254012
O21   O     O_3   0.350991 0.462863 0.899272 -0.540196
C60   C     C_3   0.278964 0.411926 0.916579 0.127761
H61   H     H_    0.230198 0.452696 0.947918 0.185646
H62   H     H_    0.290506 0.359404 0.964724 0.115498
C61   C     C_3   0.244105 0.377191 0.826247 -0.367341
H63   H     H_    0.230543 0.430207 0.779584 0.252565
H64   H     H_    0.291645 0.336132 0.793287 0.248002
C62   C     C_3   0.163463 0.326315 0.840728 -0.826093
H65   H     H_    0.175540 0.272785 0.887050 0.242020
H66   H     H_    0.140770 0.300871 0.774167 0.289554
H67   H     H_    0.113696 0.366890 0.870492 0.280640
C63   C     C_2   0.445115 0.344769 0.912038 0.722034
O22   O     O_2   0.448747 0.287279 0.966774 -0.596135
O23   O     O_R   0.455477 0.326835 0.819118 -0.762571
H68   H     H_    0.466642 0.265069 0.806534 0.342122
C64   C     C_2   0.666399 0.483196 0.097784 0.867220
O24   O     O_2   0.666863 0.543104 0.150811 -0.609772
O25   O     O_R   0.741980 0.442470 0.077372 -0.732070
H69   H     H_    0.792180 0.468830 0.109995 0.333049
O26   O     O_3   0.580169 0.360618 0.066565 -0.605314
C65   C     C_3   0.580868 0.332941 0.158436 0.108786
H70   H     H_    0.515123 0.327730 0.183543 0.137742
H71   H     H_    0.617075 0.374845 0.205580 0.136756
C66   C     C_3   0.620405 0.245743 0.161732 -0.277717
H72   H     H_    0.583700 0.201553 0.117463 0.239351
H73   H     H_    0.685950 0.249287 0.135462 0.236213
C67   C     C_3   0.621985 0.212125 0.258893 -0.965399
H74   H     H_    0.659535 0.254603 0.304178 0.264011
H75   H     H_    0.651245 0.148899 0.258964 0.246757
H76   H     H_    0.556852 0.206893 0.285858 0.264788
C68   C     C_2   0.662218 0.513539 0.909998 0.857252
O27   O     O_2   0.707370 0.482696 0.851193 -0.547745
O28   O     O_R   0.680804 0.593981 0.944470 -0.784746
H77   H     H_    0.732332 0.620024 0.914981 0.345761
C69   C     C_2   0.063753 0.579485 0.661080 0.862635
O29   O     O_2   0.108213 0.641844 0.651413 -0.614443
O30   O     O_R   0.045618 0.549908 0.748328 -0.733654
H78   H     H_    0.073357 0.585158 0.798179 0.334078

loop_
_geom_bond_atom_site_label_1
_geom_bond_atom_site_label_2
_ccdc_geom_bond_type
C27   H8    S    
C24   O20   S    
C1    C21   S    
O23   H68   S    
C38   C69   S    
C63   O23   S    
C41   H21   S    
C7    C36   T    
C14   C18   S    
O26   C65   S    
C59   H60   S    
C29   C68   S    
C4    C8    S    
C43   C44   S    
C57   C58   S    
C49   H39   S    
C52   O15   D    
C33   O8    A    
C66   H73   S    
O10   C42   S    
C6    C35   S    
C25   C28   S    
C26   C32   S    
Cu1   O7    S    
C58   H57   S    
C46   H31   S    
Cu2   O6    S    
C32   N2    T    
C65   H70   S    
C44   H28   S    
C1    O2    A    
C60   H61   S    
C5    C6    S    
C3    H12   S    
C42   H24   S    
C53   C54   S    
C25   C63   S    
C67   H74   S    
C15   C16   S    
C47   C48   S    
O16   H45   S    
C13   C23   S    
C34   C35   S    
C41   H20   S    
C62   H67   S    
O17   C53   S    
C11   O10   S    
C60   H62   S    
C68   O27   D    
C23   O5    A    
C2    C7    S    
C3    C38   S    
C16   C17   S    
C47   H34   S    
C55   H52   S    
C62   H65   S    
C61   C62   S    
C40   H18   S    
C31   N1    T    
C12   C36   S    
O14   C49   S    
C23   O6    A    
O9    C39   S    
C33   O7    A    
C46   H32   S    
Cu2   O2    S    
C10   H1    S    
C50   H41   S    
C17   O13   S    
C30   O26   S    
C49   H38   S    
C43   H26   S    
O25   H69   S    
C66   C67   S    
C51   H43   S    
C29   H10   S    
C53   H47   S    
C59   H58   S    
C30   C64   S    
C58   C59   S    
C4    C34   S    
C63   O22   D    
C13   C19   T    
C39   H16   S    
C69   O29   D    
C24   C25   S    
C34   C56   S    
C4    C6    S    
C10   C14   S    
C66   H72   S    
C2    C35   S    
C42   H23   S    
C57   H55   S    
C35   O9    S    
Cu1   O1    S    
C43   H25   S    
Cu2   O4    S    
C51   H42   S    
C39   H17   S    
C12   O3    A    
C9    C14   S    
C29   C30   S    
C14   C20   S    
C11   C16   S    
C2    C38   S    
C52   O16   S    
C64   O24   D    
C11   C45   S    
C9    O14   S    
C47   H33   S    
C48   H37   S    
C40   C41   S    
C64   O25   S    
C17   C18   S    
C15   C52   S    
Cu1   N1    S    
C44   H27   S    
C10   H15   S    
C51   H44   S    
O28   H77   S    
C48   H36   S    
C45   O12   S    
C26   C30   S    
C46   C47   S    
Cu2   O8    S    
C28   C31   S    
O20   C57   S    
C41   H22   S    
C25   O21   S    
C8    C37   T    
C50   H40   S    
C54   H49   S    
C3    C4    S    
C15   H13   S    
Cu1   Cu2   S    
C60   C61   S    
O30   H78   S    
C33   C37   S    
C56   O18   D    
C27   O17   S    
Cu1   O5    S    
C28   C29   S    
Cu2   N2    S    
C20   C21   T    
C34   C38   S    
C65   C66   S    
C24   C26   S    
C61   H64   S    
O21   C60   S    
C3    C5    S    
C69   O30   S    
C53   H46   S    
C57   H54   S    
C59   H59   S    
C44   H29   S    
C58   H56   S    
C48   H35   S    
C22   C27   S    
C39   C40   S    
C24   H6    S    
C54   C55   S    
C18   H2    S    
C9    C15   S    
C17   H4    S    
C18   H3    S    
C12   O4    A    
C42   C43   S    
O12   H30   S    
C55   H50   S    
C67   H75   S    
C16   C19   S    
Cu1   O3    S    
C65   H71   S    
O13   C46   S    
C50   C51   S    
C22   H7    S    
C61   H63   S    
C62   H66   S    
C6    H9    S    
C68   O28   S    
C10   C11   S    
C2    C5    S    
C22   H5    S    
C45   O11   D    
C22   C26   S    
C27   C28   S    
C55   H51   S    
C5    H11   S    
C40   H19   S    
C9    H14   S    
C54   H48   S    
C1    O1    A    
C49   C50   S    
O19   H53   S    
C56   O19   S    
C67   H76   S    
