data_mof_unit_49846.cif
_audit_creation_date              2012-12-10T16:57:13-0500
_audit_creation_method            fapswitch 2.2
_symmetry_space_group_name_H-M    P1
_symmetry_Int_Tables_number       1
_space_group_crystal_system       triclinic
_cell_length_a                    15.884874
_cell_length_b                    10.942441
_cell_length_c                    9.715267
_cell_angle_alpha                 89.549009
_cell_angle_beta                  90.164838
_cell_angle_gamma                 90.126707
_cell_volume                      1688.63752871

loop_
_atom_site_label
_atom_site_type_symbol
_atom_type_description
_atom_site_fract_x
_atom_site_fract_y
_atom_site_fract_z
_atom_type_partial_charge
C1    C     C_R   0.505015 0.266020 0.500667 0.745941
C2    C     C_3   0.951315 0.426883 0.623533 0.175024
C3    C     C_3   0.916921 0.514221 0.502508 -0.003391
C4    C     C_3   0.949085 0.651969 0.526957 0.872434
C5    C     C_3   0.050179 0.651145 0.508660 0.142715
C6    C     C_1   0.824498 0.508358 0.500931 0.050834
C7    C     C_1   0.175333 0.508027 0.500980 0.035936
C8    C     C_1   0.250775 0.503794 0.499940 -0.189587
C9    C     C_2   0.521229 0.935765 0.395792 0.203550
C10   C     C_2   0.486634 0.866161 0.496704 0.046446
C11   C     C_2   0.506785 0.067834 0.393338 -0.286485
C12   C     C_R   0.340316 0.500317 0.499932 0.823464
C13   C     C_2   0.523659 0.136360 0.503783 0.374572
C14   C     C_2   0.454345 0.425858 0.924216 0.339727
C15   C     C_2   0.466550 0.413439 0.078324 -0.112575
C16   C     C_R   0.498443 0.734525 0.499259 0.772957
C17   C     C_R   0.659633 0.500068 0.500119 0.802396
C18   C     C_3   0.050201 0.441467 0.631446 0.302592
C19   C     C_3   0.048697 0.450462 0.371788 -0.457503
C20   C     C_3   0.952127 0.470536 0.355529 0.554756
C21   C     C_1   0.749061 0.503479 0.500513 -0.223689
C22   C     C_3   0.082676 0.513744 0.503166 0.010083
Cu1   Cu    Cu3+1 0.500020 0.500020 0.638630 0.963722
Cu2   Cu    Cu3+1 0.499980 0.499980 0.361370 0.949560
H1    H     H_    0.067975 0.498781 0.721619 0.107816
H2    H     H_    0.484365 0.108911 0.297890 0.124624
H3    H     H_    0.443084 0.331450 0.128692 0.143988
H4    H     H_    0.507174 0.583164 0.108037 0.242003
H5    H     H_    0.082063 0.485769 0.278883 0.203118
H6    H     H_    0.064739 0.351609 0.376679 0.193282
N1    N     N_2   0.499090 0.498660 0.846910 -0.116627
N2    N     N_2   0.499070 0.498630 0.153040 -0.272067
O1    O     O_R   0.500010 0.321960 0.617040 -0.528763
O2    O     O_R   0.499990 0.321920 0.382900 -0.611749
O3    O     O_R   0.379450 0.500030 0.617120 -0.543713
O4    O     O_R   0.379420 0.499980 0.382980 -0.574187
O5    O     O_R   0.500010 0.678080 0.617100 -0.590241
O6    O     O_R   0.499990 0.678040 0.382960 -0.555138
O7    O     O_R   0.620580 0.500020 0.617020 -0.595357
O8    O     O_R   0.620550 0.499970 0.382880 -0.559278
N3    N     N_3   0.928968 0.298809 0.593309 -0.569994
H7    H     H_    0.863453 0.288991 0.592895 0.217652
H8    H     H_    0.950533 0.240241 0.671263 0.244177
N4    N     N_3   0.912370 0.457981 0.757278 -0.605684
H9    H     H_    0.946940 0.523027 0.811533 0.245283
H10   H     H_    0.911219 0.381722 0.822790 0.197683
O9    O     O_3   0.909978 0.729588 0.425323 -0.559721
C23   C     C_3   0.917300 0.857080 0.448589 -0.288086
H11   H     H_    0.943009 0.901521 0.354659 0.176844
H12   H     H_    0.957427 0.882673 0.537176 0.163928
H13   H     H_    0.853687 0.895981 0.464740 0.152839
N5    N     N_3   0.572457 0.882837 0.289740 -0.582903
H14   H     H_    0.589529 0.950164 0.218025 0.211711
H15   H     H_    0.628381 0.853107 0.336033 0.202377
N6    N     N_3   0.431130 0.918712 0.596850 -0.556269
H16   H     H_    0.372428 0.876061 0.587753 0.190614
H17   H     H_    0.454760 0.898624 0.694985 0.254764
O10   O     O_3   0.559204 0.085453 0.621577 -0.553973
C24   C     C_3   0.646151 0.111855 0.622049 -0.346220
H18   H     H_    0.658032 0.211811 0.630214 0.160765
H19   H     H_    0.677632 0.074669 0.529082 0.148085
H20   H     H_    0.675101 0.067151 0.713409 0.185750
N7    N     N_3   0.390763 0.352435 0.860634 -0.528882
H21   H     H_    0.333333 0.372503 0.907508 0.177566
H22   H     H_    0.404588 0.260812 0.881692 0.200519
N8    N     N_3   0.575477 0.537215 0.902127 -0.539319
H23   H     H_    0.620742 0.471776 0.877515 0.237428
H24   H     H_    0.591988 0.618221 0.851361 0.244279
O11   O     O_3   0.090527 0.325269 0.637845 -0.553343
C25   C     C_3   0.117028 0.297549 0.773297 -0.342172
H25   H     H_    0.063839 0.302620 0.847274 0.144242
H26   H     H_    0.168926 0.359664 0.805195 0.172164
H27   H     H_    0.141587 0.202754 0.775877 0.194629
N9    N     N_3   0.912205 0.356041 0.306038 -0.616489
H28   H     H_    0.929520 0.343037 0.203389 0.204902
H29   H     H_    0.935936 0.278562 0.355268 0.225838
O12   O     O_3   0.943398 0.565482 0.253823 -0.532500
C26   C     C_3   0.866605 0.565469 0.179207 -0.177246
H30   H     H_    0.851525 0.660989 0.149295 0.184305
H31   H     H_    0.812217 0.529196 0.237674 0.167881
H32   H     H_    0.874155 0.512675 0.082936 0.136176
N10   N     N_3   0.091193 0.712749 0.626358 -0.599751
H33   H     H_    0.155790 0.721517 0.608355 0.208518
H34   H     H_    0.069244 0.802110 0.635281 0.232643
N11   N     N_3   0.074187 0.715139 0.379686 -0.512476
H35   H     H_    0.074752 0.809467 0.394953 0.208546
H36   H     H_    0.136221 0.694692 0.353062 0.207872
O13   O     O_3   0.930164 0.692159 0.663843 -0.620375
C27   C     C_3   0.844418 0.720129 0.690186 -0.316056
H37   H     H_    0.803705 0.729811 0.597963 0.178732
H38   H     H_    0.841879 0.808019 0.746103 0.169159
H39   H     H_    0.816564 0.649350 0.758510 0.192400

loop_
_geom_bond_atom_site_label_1
_geom_bond_atom_site_label_2
_ccdc_geom_bond_type
N1    N8    S    
N8    H24   S    
N6    H16   S    
N7    H22   S    
C2    C18   S    
N3    H7    S    
C19   C20   S    
C14   N1    D    
C3    C6    S    
C1    O1    A    
C7    C8    T    
N11   H35   S    
N5    H14   S    
C18   H1    S    
Cu2   O4    S    
N9    H29   S    
C20   O12   S    
C26   H31   S    
C2    N3    S    
C17   O7    A    
C23   H13   S    
C5    C22   S    
C2    N4    S    
Cu1   O1    S    
Cu2   O6    S    
Cu1   Cu2   S    
C25   H25   S    
C12   O4    A    
C9    C10   D    
O12   C26   S    
C16   O5    A    
C5    N11   S    
N5    H15   S    
C18   O11   S    
C23   H12   S    
N8    H23   S    
C24   H18   S    
N3    H8    S    
C9    N5    S    
N4    H10   S    
C1    O2    A    
N11   H36   S    
C24   H19   S    
N9    H28   S    
H4    N2    S    
C19   C22   S    
C26   H30   S    
C13   O10   S    
C11   H2    S    
O10   C24   S    
Cu1   O5    S    
C6    C21   T    
C17   C21   S    
C12   O3    A    
C17   O8    A    
Cu1   N1    S    
Cu2   N2    S    
C15   H3    S    
O9    C23   S    
C8    C12   S    
C25   H27   S    
C20   N9    S    
C3    C20   S    
C27   H39   S    
C10   N6    S    
C9    C11   S    
C23   H11   S    
N10   H34   S    
N6    H17   S    
C27   H38   S    
C3    C4    S    
C19   H5    S    
N4    H9    S    
C24   H20   S    
C18   C22   S    
C4    C5    S    
C15   N2    D    
C4    O13   S    
C7    C22   S    
Cu1   O3    S    
C2    C3    S    
C10   C16   S    
C5    N10   S    
C11   C13   D    
C26   H32   S    
Cu1   O7    S    
C14   N7    S    
Cu2   O8    S    
O11   C25   S    
Cu2   O2    S    
N7    H21   S    
C1    C13   S    
O13   C27   S    
N10   H33   S    
C14   C15   S    
C25   H26   S    
C27   H37   S    
C19   H6    S    
C16   O6    A    
C4    O9    S    
