data_mof_unit_9710.cif
_audit_creation_date              2012-12-10T18:23:58-0500
_audit_creation_method            fapswitch 2.2
_symmetry_space_group_name_H-M    P1
_symmetry_Int_Tables_number       1
_space_group_crystal_system       triclinic
_cell_length_a                    22.488782
_cell_length_b                    22.397499
_cell_length_c                    14.634313
_cell_angle_alpha                 89.36814
_cell_angle_beta                  89.665309
_cell_angle_gamma                 90.031132
_cell_volume                      7370.61795143

loop_
_atom_site_label
_atom_site_type_symbol
_atom_type_description
_atom_site_fract_x
_atom_site_fract_y
_atom_site_fract_z
_atom_type_partial_charge
C1    C     C_R   0.419504 0.919978 0.500555 0.827526
C2    C     C_1   0.662871 0.837448 0.499561 -0.088601
C3    C     C_R   0.142872 0.510379 0.138639 -0.189797
C4    C     C_R   0.759586 0.806323 0.324934 0.105208
C5    C     C_R   0.807347 0.788535 0.269147 -0.157030
C6    C     C_R   0.815417 0.814024 0.182251 -0.143591
C7    C     C_R   0.775663 0.857110 0.149925 -0.106805
C8    C     C_R   0.727807 0.874717 0.204455 -0.137941
C9    C     C_R   0.719618 0.849458 0.291384 -0.153518
C10   C     C_R   0.242758 0.191076 0.681975 0.104321
C11   C     C_R   0.196165 0.208189 0.740526 -0.154792
C12   C     C_R   0.189587 0.181306 0.826766 -0.142768
C13   C     C_1   0.662610 0.162977 0.496938 -0.069884
C14   C     C_R   0.229654 0.137488 0.855643 -0.109494
C15   C     C_R   0.276352 0.120547 0.798345 -0.137180
C16   C     C_R   0.283082 0.147219 0.712144 -0.152930
C17   C     C_R   0.274225 0.775801 0.683638 0.108857
C18   C     C_R   0.228945 0.789941 0.746374 -0.156427
C19   C     C_R   0.242582 0.799893 0.838066 -0.147669
C20   C     C_R   0.301415 0.796272 0.867672 -0.096393
C21   C     C_R   0.346733 0.782458 0.805695 -0.140289
C22   C     C_R   0.333208 0.771902 0.714107 -0.146027
C23   C     C_R   0.727310 0.220109 0.315216 0.109083
C24   C     C_1   0.335904 0.838637 0.502946 -0.074460
C25   C     C_R   0.773373 0.203400 0.255497 -0.157679
C26   C     C_R   0.761149 0.191346 0.163947 -0.143466
C27   C     C_R   0.702949 0.195422 0.131573 -0.091789
C28   C     C_R   0.656870 0.211734 0.190679 -0.144736
C29   C     C_R   0.668991 0.224342 0.282043 -0.147007
C30   C     C_R   0.246153 0.306984 0.335612 0.112300
C31   C     C_R   0.294537 0.339929 0.300778 -0.151096
C32   C     C_R   0.290581 0.368153 0.215261 -0.143447
C33   C     C_R   0.238489 0.363593 0.164179 -0.103468
C34   C     C_R   0.190187 0.331007 0.198755 -0.141883
C35   C     C_1   0.837788 0.663270 0.500376 -0.087830
C36   C     C_R   0.193980 0.302757 0.283994 -0.144207
C37   C     C_R   0.741618 0.695161 0.675098 0.105752
C38   C     C_R   0.692999 0.711827 0.729969 -0.157573
C39   C     C_R   0.685417 0.686977 0.817381 -0.145298
C40   C     C_R   0.726533 0.645695 0.851153 -0.104139
C41   C     C_R   0.775281 0.629305 0.797569 -0.136561
C42   C     C_R   0.782991 0.653930 0.710122 -0.155168
C43   C     C_R   0.770169 0.282593 0.683423 0.109520
C44   C     C_R   0.724087 0.301189 0.741791 -0.156177
C45   C     C_R   0.735943 0.314341 0.833065 -0.141797
C46   C     C_1   0.161400 0.335727 0.504434 -0.069383
C47   C     C_R   0.793780 0.309380 0.866564 -0.095568
C48   C     C_R   0.839898 0.291191 0.808814 -0.146012
C49   C     C_R   0.828147 0.277586 0.717680 -0.146453
C50   C     C_R   0.230847 0.729402 0.309495 0.104522
C51   C     C_R   0.258965 0.768886 0.247584 -0.155797
C52   C     C_R   0.252516 0.761618 0.153368 -0.150204
C53   C     C_R   0.218531 0.714508 0.120099 -0.110713
C54   C     C_R   0.190854 0.674807 0.181093 -0.125306
C55   C     C_R   0.196975 0.682004 0.275318 -0.154344
C56   C     C_3   0.422378 0.088832 0.074870 -0.392973
C57   C     C_1   0.162643 0.662999 0.495926 -0.084073
C58   C     C_3   0.386212 0.123878 0.003875 -0.348754
C59   C     C_3   0.343116 0.166873 0.049888 -0.843359
C60   C     C_3   0.578940 0.911158 0.925156 -0.392267
C61   C     C_3   0.613287 0.874474 0.996469 -0.344159
C62   C     C_3   0.662094 0.837544 0.951466 -0.852241
C63   C     C_3   0.537125 0.112178 0.920944 -0.384320
C64   C     C_3   0.554714 0.159844 0.990145 -0.349869
C65   C     C_3   0.583184 0.213687 0.942296 -0.877298
C66   C     C_3   0.464485 0.887052 0.078918 -0.384859
C67   C     C_3   0.445871 0.839731 0.009771 -0.357100
C68   C     C_1   0.835847 0.338578 0.502347 -0.069415
C69   C     C_3   0.424447 0.783016 0.058381 -0.871278
C70   C     C_3   0.925769 0.591419 0.075655 -0.391115
C71   C     C_3   0.893376 0.629973 0.004394 -0.342953
C72   C     C_3   0.843032 0.665422 0.048214 -0.852550
C73   C     C_3   0.072670 0.408121 0.920322 -0.382928
C74   C     C_3   0.106744 0.368719 0.988036 -0.361676
C75   C     C_3   0.148586 0.326464 0.937940 -0.866771
C76   C     C_3   0.040551 0.610820 0.922072 -0.393078
C77   C     C_3   0.063094 0.656044 0.991624 -0.337617
C78   C     C_3   0.089067 0.711161 0.943881 -0.874165
C79   C     C_1   0.500995 0.000167 0.194343 0.085057
C80   C     C_3   0.958521 0.388240 0.077866 -0.385125
C81   C     C_3   0.937900 0.342003 0.008449 -0.350880
C82   C     C_3   0.910357 0.287780 0.056600 -0.882518
C83   C     C_1   0.499323 0.999611 0.805659 0.085710
C84   C     C_1   0.000871 0.499688 0.194306 0.086041
C85   C     C_R   0.580325 0.080220 0.499459 0.827359
C86   C     C_1   0.998761 0.499936 0.805617 0.083793
C87   C     C_3   0.517287 0.053245 0.966423 0.072933
C88   C     C_3   0.483549 0.946255 0.033555 0.075472
C89   C     C_3   0.463477 0.042029 0.031710 0.074946
C90   C     C_3   0.537284 0.957503 0.968237 0.075231
C91   C     C_3   0.019259 0.552207 0.966901 0.073141
C92   C     C_3   0.980232 0.446570 0.032780 0.072629
C93   C     C_3   0.965144 0.543243 0.032333 0.075166
C94   C     C_3   0.034185 0.455560 0.967098 0.076695
C95   C     C_3   0.696653 0.725235 0.511837 -0.209275
C96   C     C_R   0.580140 0.919632 0.500199 0.830060
C97   C     C_3   0.301993 0.274075 0.493847 -0.208635
C98   C     C_3   0.299492 0.731786 0.457470 -0.216786
C99   C     C_3   0.697856 0.272073 0.535594 -0.221653
C100  C     C_3   0.194843 0.222457 0.521440 -0.223184
C101  C     C_3   0.804350 0.775837 0.487944 -0.209306
C102  C     C_3   0.800022 0.230016 0.463116 -0.221606
C103  C     C_3   0.198967 0.770264 0.538642 -0.202694
C104  C     C_3   0.237806 0.208827 0.440827 -0.203221
C105  C     C_3   0.760084 0.790104 0.566775 -0.199499
C106  C     C_3   0.767355 0.203133 0.547959 -0.204962
C107  C     C_R   0.419834 0.080345 0.499863 0.829190
C108  C     C_3   0.229723 0.800522 0.454743 -0.206983
C109  C     C_3   0.740897 0.711000 0.432980 -0.199456
C110  C     C_3   0.258927 0.287668 0.574612 -0.204335
C111  C     C_3   0.268829 0.701500 0.541444 -0.207418
C112  C     C_3   0.730573 0.299003 0.450834 -0.205230
C113  C     C_1   0.374820 0.124824 0.500127 -0.194929
C114  C     C_1   0.624928 0.874925 0.500523 -0.195957
C115  C     C_1   0.625055 0.125065 0.497985 -0.183604
C116  C     C_1   0.374081 0.875887 0.502070 -0.185395
C117  C     C_1   0.875413 0.625455 0.499476 -0.194636
C118  C     C_R   0.919501 0.419953 0.500512 0.826239
C119  C     C_1   0.124252 0.374037 0.501783 -0.181785
C120  C     C_1   0.124990 0.625160 0.497943 -0.192753
C121  C     C_1   0.874054 0.375831 0.501770 -0.183770
C122  C     C_3   0.247810 0.219987 0.588482 0.065078
C123  C     C_3   0.752656 0.778428 0.418844 0.063105
C124  C     C_3   0.739913 0.235594 0.413008 0.067494
C125  C     C_3   0.260106 0.763282 0.585212 0.065569
C126  C     C_3   0.748330 0.722692 0.580938 0.063300
C127  C     C_3   0.249058 0.276259 0.427267 0.065951
C128  C     C_3   0.238469 0.738730 0.410651 0.064446
C129  C     C_R   0.080269 0.580287 0.499479 0.830358
C130  C     C_3   0.757953 0.266529 0.585743 0.067550
C131  C     C_3   0.290122 0.206830 0.508245 0.149202
C132  C     C_3   0.709105 0.792250 0.497106 0.138742
C133  C     C_3   0.707914 0.209217 0.496935 0.144150
C134  C     C_3   0.290155 0.792909 0.502115 0.134794
C135  C     C_3   0.791873 0.708824 0.502694 0.138137
C136  C     C_3   0.206819 0.289515 0.506898 0.133809
C137  C     C_3   0.208246 0.708968 0.493915 0.146958
C138  C     C_3   0.790011 0.292867 0.501852 0.144246
C139  C     C_3   0.556575 0.011680 0.026461 -0.003640
C140  C     C_R   0.080102 0.419519 0.500315 0.825991
C141  C     C_3   0.444188 0.987791 0.973601 0.000172
C142  C     C_3   0.056557 0.508153 0.025969 -0.000116
C143  C     C_3   0.942894 0.490438 0.973645 -0.003643
C144  C     C_3   0.502662 0.000416 0.091852 -0.086742
C145  C     C_3   0.498081 0.999090 0.908143 -0.085817
C146  C     C_3   0.002318 0.499321 0.091700 -0.086286
C147  C     C_3   0.997028 0.499566 0.908064 -0.086162
C148  C     C_R   0.380008 0.973477 0.951579 0.093840
C149  C     C_R   0.338806 0.965804 0.023441 -0.143174
C150  C     C_R   0.279354 0.952462 0.005330 -0.160801
C151  C     C_R   0.919901 0.580423 0.499802 0.830259
C152  C     C_R   0.260301 0.946541 0.915307 -0.115886
C153  C     C_R   0.300802 0.953480 0.843345 -0.116279
C154  C     C_R   0.360332 0.966818 0.861178 -0.191669
C155  C     C_R   0.620942 0.024944 0.049094 0.095759
C156  C     C_R   0.662448 0.032737 0.977675 -0.133596
C157  C     C_R   0.722321 0.043512 0.996480 -0.155712
C158  C     C_R   0.741509 0.046816 0.086777 -0.118246
C159  C     C_R   0.700710 0.039989 0.158344 -0.116940
C160  C     C_R   0.640776 0.029136 0.139817 -0.190903
C161  C     C_R   0.878007 0.479911 0.951306 0.096209
C162  C     C_1   0.336638 0.162020 0.502883 -0.084515
C163  C     C_R   0.836437 0.473516 0.022922 -0.133012
C164  C     C_R   0.776278 0.464186 0.004391 -0.155966
C165  C     C_R   0.756893 0.460874 0.914184 -0.119626
C166  C     C_R   0.797736 0.466443 0.842437 -0.116739
C167  C     C_R   0.857944 0.475916 0.860686 -0.191960
C168  C     C_R   0.121738 0.516042 0.048635 0.090071
C169  C     C_R   0.162910 0.526695 0.977613 -0.143124
C170  C     C_R   0.223443 0.532965 0.996357 -0.145952
C171  C     C_R   0.243734 0.527894 0.086052 -0.122516
C172  C     C_R   0.203512 0.516322 0.157043 -0.141638
Cu1   Cu    Cu3+1 0.500000 0.000000 0.590220 0.958188
Cu2   Cu    Cu3+1 0.500000 0.000000 0.409780 0.958296
Cu3   Cu    Cu3+1 0.000000 0.500000 0.590220 0.958426
Cu4   Cu    Cu3+1 1.000000 0.500000 0.409780 0.959859
H1    H     H_    0.229695 0.176287 0.385572 0.135886
H2    H     H_    0.346597 0.294392 0.483714 0.127080
H3    H     H_    0.410707 0.749631 0.007090 0.238958
H4    H     H_    0.409472 0.856993 0.966137 0.232142
H5    H     H_    0.483850 0.828015 0.964966 0.216758
H6    H     H_    0.501639 0.869927 0.121328 0.190000
H7    H     H_    0.426713 0.896046 0.125951 0.194312
H8    H     H_    0.808328 0.634644 0.075584 0.253179
H9    H     H_    0.860443 0.693003 0.104674 0.250783
H10   H     H_    0.822438 0.695309 0.996285 0.247357
H11   H     H_    0.924998 0.661904 0.972083 0.215457
H12   H     H_    0.874446 0.601692 0.950129 0.226034
H13   H     H_    0.341173 0.716436 0.424184 0.138715
H14   H     H_    0.892879 0.568936 0.121177 0.199069
H15   H     H_    0.953434 0.620270 0.119591 0.184268
H16   H     H_    0.123114 0.298550 0.889638 0.249826
H17   H     H_    0.182911 0.352235 0.899416 0.258453
H18   H     H_    0.171225 0.296721 0.987961 0.242781
H19   H     H_    0.133341 0.396846 0.034280 0.231872
H20   H     H_    0.075266 0.341729 0.029849 0.214662
H21   H     H_    0.043863 0.379948 0.877027 0.187429
H22   H     H_    0.104781 0.431296 0.874151 0.198279
H23   H     H_    0.127838 0.698597 0.900794 0.255869
H24   H     H_    0.654969 0.288578 0.563379 0.127656
H25   H     H_    0.054901 0.733020 0.900409 0.254207
H26   H     H_    0.104146 0.743534 0.995806 0.241662
H27   H     H_    0.026254 0.670357 0.036929 0.216582
H28   H     H_    0.098082 0.635472 0.034473 0.224949
H29   H     H_    0.076673 0.600483 0.872777 0.196428
H30   H     H_    0.003522 0.630521 0.882065 0.189706
H31   H     H_    0.943060 0.266728 0.103526 0.255581
H32   H     H_    0.870319 0.301185 0.096188 0.259213
H33   H     H_    0.896868 0.254384 0.005190 0.236485
H34   H     H_    0.904427 0.361955 0.962007 0.230709
H35   H     H_    0.150471 0.201829 0.532777 0.135829
H36   H     H_    0.976053 0.326736 0.966580 0.216335
H37   H     H_    0.994844 0.369265 0.120198 0.186593
H38   H     H_    0.921202 0.398942 0.124876 0.197752
H39   H     H_    0.848952 0.796323 0.478364 0.136886
H40   H     H_    0.842808 0.213425 0.435077 0.127600
H41   H     H_    0.156719 0.785701 0.569993 0.127703
H42   H     H_    0.352628 0.970013 0.093735 0.116784
H43   H     H_    0.248057 0.946649 0.061185 0.126025
H44   H     H_    0.214259 0.936178 0.901312 0.121265
H45   H     H_    0.767686 0.822965 0.621758 0.138021
H46   H     H_    0.286084 0.948410 0.773562 0.141589
H47   H     H_    0.390174 0.971621 0.803870 0.150428
H48   H     H_    0.648664 0.030209 0.907169 0.114481
H49   H     H_    0.753875 0.049209 0.940945 0.125888
H50   H     H_    0.787897 0.055090 0.101309 0.120523
H51   H     H_    0.715548 0.043013 0.228374 0.140752
H52   H     H_    0.610841 0.023927 0.196908 0.150166
H53   H     H_    0.850470 0.475673 0.093356 0.114681
H54   H     H_    0.744684 0.459458 0.060069 0.125727
H55   H     H_    0.710305 0.453606 0.899867 0.120427
H56   H     H_    0.781750 0.163415 0.588127 0.135496
H57   H     H_    0.782731 0.463464 0.772487 0.141083
H58   H     H_    0.887969 0.480022 0.803493 0.150052
H59   H     H_    0.148353 0.529655 0.907432 0.118623
H60   H     H_    0.254683 0.541391 0.941173 0.127708
H61   H     H_    0.290641 0.532521 0.100487 0.124694
H62   H     H_    0.219333 0.511827 0.226492 0.142831
H63   H     H_    0.113450 0.500596 0.195054 0.152619
H64   H     H_    0.838550 0.755137 0.293196 0.127934
H65   H     H_    0.852618 0.800551 0.140060 0.125574
H66   H     H_    0.781879 0.876819 0.082671 0.130550
H67   H     H_    0.214126 0.841688 0.419385 0.134735
H68   H     H_    0.696981 0.908036 0.179506 0.138351
H69   H     H_    0.681879 0.863765 0.331029 0.141679
H70   H     H_    0.164658 0.242045 0.719082 0.126042
H71   H     H_    0.153253 0.194165 0.871104 0.125611
H72   H     H_    0.224557 0.116673 0.922343 0.131502
H73   H     H_    0.307387 0.086589 0.820471 0.137610
H74   H     H_    0.319938 0.133269 0.670360 0.141550
H75   H     H_    0.183060 0.792722 0.725099 0.117847
H76   H     H_    0.207515 0.810449 0.886224 0.124301
H77   H     H_    0.311788 0.804237 0.938583 0.132264
H78   H     H_    0.733287 0.678151 0.377983 0.137677
H79   H     H_    0.392314 0.779655 0.828651 0.125754
H80   H     H_    0.368664 0.760682 0.666946 0.125553
H81   H     H_    0.818781 0.200319 0.278984 0.117673
H82   H     H_    0.796828 0.178846 0.118046 0.125856
H83   H     H_    0.693638 0.185837 0.060775 0.142366
H84   H     H_    0.611788 0.214984 0.165716 0.126560
H85   H     H_    0.632980 0.237586 0.326886 0.125150
H86   H     H_    0.335201 0.343950 0.339336 0.114197
H87   H     H_    0.327902 0.393559 0.188564 0.122687
H88   H     H_    0.235614 0.385350 0.097966 0.143099
H89   H     H_    0.266911 0.320382 0.629658 0.136925
H90   H     H_    0.149721 0.327373 0.159836 0.125848
H91   H     H_    0.156217 0.277592 0.309887 0.123129
H92   H     H_    0.660807 0.743917 0.704872 0.127042
H93   H     H_    0.647595 0.699629 0.858893 0.124004
H94   H     H_    0.720729 0.626503 0.918833 0.130395
H95   H     H_    0.807234 0.597516 0.823733 0.139659
H96   H     H_    0.821571 0.640850 0.671330 0.141648
H97   H     H_    0.678936 0.305068 0.717462 0.117278
H98   H     H_    0.700253 0.328358 0.877889 0.125460
H99   H     H_    0.802719 0.319696 0.937213 0.142790
H100  H     H_    0.284495 0.660498 0.577164 0.136684
H101  H     H_    0.884727 0.287315 0.834606 0.126872
H102  H     H_    0.864176 0.263035 0.673844 0.124480
H103  H     H_    0.285676 0.805508 0.272329 0.126642
H104  H     H_    0.273792 0.792552 0.106193 0.122032
H105  H     H_    0.213735 0.708708 0.047175 0.134401
H106  H     H_    0.164690 0.638274 0.155537 0.144432
H107  H     H_    0.175640 0.650119 0.320447 0.139453
H108  H     H_    0.310876 0.141821 0.093494 0.251777
H109  H     H_    0.367800 0.199156 0.092535 0.254966
H110  H     H_    0.318059 0.192118 0.996950 0.248529
H111  H     H_    0.716208 0.338750 0.410710 0.135568
H112  H     H_    0.416209 0.150029 0.958419 0.219302
H113  H     H_    0.360277 0.092733 0.961404 0.227804
H114  H     H_    0.391574 0.065737 0.123105 0.195876
H115  H     H_    0.449561 0.119982 0.115743 0.189635
H116  H     H_    0.642785 0.808036 0.898871 0.250528
H117  H     H_    0.695774 0.867330 0.918894 0.253098
H118  H     H_    0.684482 0.809405 0.003877 0.248192
H119  H     H_    0.634000 0.904280 0.047155 0.227398
H120  H     H_    0.582656 0.843637 0.033214 0.217833
H121  H     H_    0.552636 0.880918 0.881460 0.184574
H122  H     H_    0.652059 0.704727 0.521412 0.135537
H123  H     H_    0.610745 0.934965 0.879380 0.198020
H124  H     H_    0.624730 0.200237 0.906605 0.257640
H125  H     H_    0.551923 0.233524 0.891938 0.257390
H126  H     H_    0.594394 0.248054 0.993519 0.235993
H127  H     H_    0.514869 0.175290 0.027954 0.217114
H128  H     H_    0.586762 0.141222 0.040176 0.229769
H129  H     H_    0.575522 0.102696 0.875403 0.197922
H130  H     H_    0.500840 0.129300 0.876810 0.187036
H131  H     H_    0.460735 0.763604 0.100425 0.257349
H132  H     H_    0.385748 0.792974 0.103131 0.254790
N1    N     N_1   0.499980 0.000000 0.274190 -0.159255
N2    N     N_1   0.500020 0.000000 0.725810 -0.159368
N3    N     N_1   0.999980 0.500000 0.274190 -0.158708
N4    N     N_1   0.000020 0.500000 0.725810 -0.159098
O1    O     O_R   0.439540 0.939530 0.576170 -0.574553
O2    O     O_R   0.560470 0.060470 0.576200 -0.570819
O3    O     O_R   0.560470 0.939530 0.576200 -0.570518
O4    O     O_R   0.439530 0.060470 0.423800 -0.569575
O5    O     O_R   0.939530 0.439530 0.423800 -0.571490
O6    O     O_R   0.060470 0.560470 0.576200 -0.569230
O7    O     O_R   0.060470 0.439530 0.576200 -0.572746
O8    O     O_R   0.939530 0.560470 0.423800 -0.570249
O9    O     O_R   0.560460 0.060470 0.423830 -0.574232
O10   O     O_R   0.560460 0.939530 0.423830 -0.577473
O11   O     O_R   0.439540 0.060470 0.576170 -0.577935
O12   O     O_R   0.939540 0.439530 0.576170 -0.574122
O13   O     O_R   0.060460 0.560470 0.423830 -0.577420
O14   O     O_R   0.060460 0.439530 0.423830 -0.572143
O15   O     O_R   0.939540 0.560470 0.576170 -0.577730
O16   O     O_R   0.439530 0.939530 0.423800 -0.572120

loop_
_geom_bond_atom_site_label_1
_geom_bond_atom_site_label_2
_ccdc_geom_bond_type
C54   H106  S    
C59   H108  S    
C157  C158  A    
C142  C146  S    
C68   C138  S    
C19   C20   A    
C86   C147  S    
C20   H77   S    
C76   H29   S    
C70   H14   S    
Cu4   O5    S    
C124  C133  S    
Cu2   N1    S    
C112  C124  S    
C103  C137  S    
C5    C6    A    
C19   H76   S    
C8    H68   S    
C45   H98   S    
C100  C104  S    
C164  H54   S    
C73   C74   S    
C37   C42   A    
C107  C113  S    
C83   C145  S    
C106  C133  S    
C111  C125  S    
C6    H65   S    
C158  H50   S    
C141  C145  S    
C82   H33   S    
C166  H57   S    
C66   H6    S    
C21   C22   A    
C55   H107  S    
C96   C114  S    
C161  C163  A    
C76   H30   S    
C45   C47   A    
C51   C52   A    
C112  C138  S    
C70   C93   S    
C127  C136  S    
C72   H8    S    
C95   C109  S    
C85   O2    A    
C15   H73   S    
C48   H101  S    
C80   C92   S    
C43   C44   A    
C37   C38   A    
C118  O12   A    
Cu3   Cu4   S    
C92   C94   S    
C51   H103  S    
C76   C77   S    
C96   O3    A    
C85   O9    A    
C13   C115  T    
C168  C169  A    
C40   H94   S    
C87   C89   S    
C158  C159  A    
C130  C138  S    
C77   H28   S    
C111  C137  S    
C24   C134  S    
C106  C130  S    
C30   C127  S    
C164  C165  A    
C13   C133  S    
C71   H11   S    
C4    C5    A    
C10   C122  S    
C68   C121  T    
C6    C7    A    
C60   C90   S    
C12   H71   S    
C30   C36   A    
C107  O11   A    
C153  H46   S    
C10   C16   A    
C32   C33   A    
C2    C114  T    
C56   H115  S    
Cu3   O15   S    
C97   H2    S    
C97   C131  S    
C101  H39   S    
C151  O8    A    
C62   H118  S    
C42   H96   S    
C72   H9    S    
C142  C168  S    
C20   C21   A    
C155  C156  A    
C165  H55   S    
C140  O14   A    
C143  C161  S    
C110  H89   S    
C110  C122  S    
Cu4   O14   S    
C172  H62   S    
C5    H64   S    
C123  C132  S    
C109  C135  S    
C110  C136  S    
C82   H32   S    
C7    C8    A    
C58   H112  S    
C53   C54   A    
C59   H109  S    
C33   H88   S    
C119  C140  S    
C23   C29   A    
C67   H4    S    
C66   C88   S    
C38   C39   A    
C170  C171  A    
C109  H78   S    
C58   H113  S    
C31   C32   A    
C83   N2    T    
C104  C131  S    
C99   H24   S    
C150  H43   S    
C25   H81   S    
C129  O6    A    
Cu3   O6    S    
C66   C67   S    
C64   H127  S    
C63   H130  S    
Cu2   O10   S    
C101  C135  S    
C92   C146  S    
C120  C129  S    
C94   C142  S    
C35   C135  S    
C39   C40   A    
C109  C123  S    
C131  C162  S    
C65   H125  S    
C25   C26   A    
C62   H116  S    
Cu1   O11   S    
C104  H1    S    
C139  C155  S    
C18   H75   S    
C61   H120  S    
C73   H22   S    
C96   O10   A    
C17   C18   A    
C57   C137  S    
C93   C146  S    
C117  C151  S    
C111  H100  S    
C108  C128  S    
C161  C167  A    
C57   C120  T    
C102  H40   S    
C56   C89   S    
C24   C116  T    
Cu1   O2    S    
C122  C131  S    
C52   C53   A    
C37   C126  S    
C74   H19   S    
C169  H59   S    
C79   N1    T    
C53   H105  S    
C80   H37   S    
C84   C146  S    
C100  H35   S    
C156  H48   S    
C91   C142  S    
C71   C72   S    
C95   C126  S    
C105  H45   S    
C60   H121  S    
C108  H67   S    
C56   C58   S    
C41   H95   S    
C34   C36   A    
C69   H132  S    
C61   C62   S    
C103  C125  S    
C10   C11   A    
C76   C91   S    
C63   C64   S    
C75   H18   S    
C56   H114  S    
Cu3   O12   S    
C152  C153  A    
C14   C15   A    
C4    C9    A    
C84   N3    T    
C39   H93   S    
C125  C134  S    
C66   H7    S    
C41   C42   A    
C88   C141  S    
C78   H25   S    
C77   C78   S    
C26   C27   A    
C28   C29   A    
C90   C145  S    
C30   C31   A    
C3    C172  A    
C18   C19   A    
C154  H47   S    
C92   C143  S    
C67   H5    S    
C54   C55   A    
Cu3   N4    S    
C28   H84   S    
Cu4   N3    S    
C2    C132  S    
C70   C71   S    
C112  H111  S    
C9    H69   S    
C157  H49   S    
C98   C128  S    
C81   H34   S    
C148  C154  A    
C73   C94   S    
C98   H13   S    
C102  C124  S    
C77   H27   S    
C91   C147  S    
C70   H15   S    
C90   C139  S    
C105  C132  S    
Cu3   O7    S    
Cu4   O8    S    
C85   C115  S    
C58   C59   S    
C60   H123  S    
C170  H60   S    
C160  H52   S    
C60   C61   S    
C32   H87   S    
C86   N4    T    
C108  C134  S    
C91   C93   S    
C159  C160  A    
C26   H82   S    
C50   C51   A    
C72   H10   S    
C48   C49   A    
C88   C90   S    
C126  C135  S    
C95   H122  S    
C50   C128  S    
C78   H23   S    
C151  O15   A    
C44   C45   A    
C140  O7    A    
C87   C145  S    
C99   C130  S    
C11   H70   S    
C129  O13   A    
C87   C139  S    
C89   C144  S    
C171  H61   S    
C17   C22   A    
C79   C144  S    
C64   C65   S    
C149  C150  A    
C69   H3    S    
C104  C127  S    
C7    H66   S    
Cu1   N2    S    
C149  H42   S    
C1    O16   A    
C81   H36   S    
C3    H63   S    
C167  H58   S    
C171  C172  A    
C165  C166  A    
C1    O1    A    
C64   H128  S    
C169  C170  A    
C163  C164  A    
C63   H129  S    
C71   H12   S    
C97   C127  S    
C81   C82   S    
Cu1   Cu2   S    
C143  C147  S    
C101  C123  S    
C105  C126  S    
C31   H86   S    
C156  C157  A    
C47   H99   S    
C21   H79   S    
C65   H124  S    
C15   C16   A    
C62   H117  S    
C99   C133  S    
C102  C138  S    
C38   H92   S    
C141  C148  S    
C113  C162  T    
C107  O4    A    
C8    C9    A    
C61   H119  S    
C73   H21   S    
C29   H85   S    
C103  C108  S    
C1    C116  S    
C159  H51   S    
C22   H80   S    
C93   C143  S    
Cu4   O13   S    
C52   H104  S    
Cu1   O1    S    
C59   H110  S    
C82   H31   S    
C3    C168  A    
C14   H72   S    
C101  C105  S    
C118  O5    A    
C74   H20   S    
C74   C75   S    
C148  C149  A    
C16   H74   S    
C43   C49   A    
C80   H38   S    
C4    C123  S    
C67   C69   S    
C118  C121  S    
C128  C137  S    
C139  C144  S    
Cu2   O16   S    
C47   C48   A    
C33   C34   A    
C69   H131  S    
C103  H41   S    
C75   H17   S    
C40   C41   A    
C12   C14   A    
C166  C167  A    
C150  C152  A    
C35   C117  T    
Cu2   O9    S    
C94   C147  S    
C44   H97   S    
C98   C111  S    
C63   C87   S    
C155  C160  A    
C34   H90   S    
C43   C130  S    
C78   H26   S    
C80   C81   S    
C163  H53   S    
C11   C12   A    
C23   C124  S    
C65   H126  S    
C27   H83   S    
C98   C134  S    
C50   C55   A    
C75   H16   S    
C97   C110  S    
C17   C125  S    
C95   C132  S    
C49   H102  S    
C89   C141  S    
C99   C112  S    
C152  H44   S    
C36   H91   S    
C106  H56   S    
C46   C119  T    
C102  C106  S    
C100  C122  S    
C23   C25   A    
C46   C136  S    
C100  C136  S    
C27   C28   A    
Cu1   O3    S    
Cu2   O4    S    
C153  C154  A    
C88   C144  S    
