data_mof_unit_25105.cif
_audit_creation_date              2013-03-05T16:18:40-0500
_audit_creation_method            fapswitch 2.2
_symmetry_space_group_name_H-M    P1
_symmetry_Int_Tables_number       1
_space_group_crystal_system       triclinic
_cell_length_a                    15.696556
_cell_length_b                    10.919055
_cell_length_c                    10.025958
_cell_angle_alpha                 91.284551
_cell_angle_beta                  91.521797
_cell_angle_gamma                 91.485245
_cell_volume                      1716.72228889

loop_
_atom_site_label
_atom_site_type_symbol
_atom_site_description
_atom_site_fract_x
_atom_site_fract_y
_atom_site_fract_z
_atom_type_partial_charge
O1    O     O_R   0.499980 0.314910 0.616040 -0.567250
O2    O     O_R   0.500040 0.314680 0.383960 -0.550462
C1    C     C_R   0.501967 0.258368 0.498913 0.933091
O3    O     O_R   0.376750 0.500100 0.616020 -0.581196
O4    O     O_R   0.376810 0.499870 0.383940 -0.620903
C2    C     C_R   0.338730 0.495343 0.498098 0.952825
Zn1   Zn    Zn3+2 0.499960 0.500150 0.654960 1.074557
Zn2   Zn    Zn3+2 0.500040 0.499850 0.345040 1.044622
O5    O     O_R   0.499960 0.685320 0.616040 -0.570477
O6    O     O_R   0.500020 0.685090 0.383960 -0.606059
O7    O     O_R   0.623190 0.500130 0.616060 -0.560897
O8    O     O_R   0.623250 0.499900 0.383980 -0.564612
C3    C     C_R   0.503876 0.742021 0.501371 0.949078
C4    C     C_R   0.661383 0.498106 0.501040 0.865500
C5    C     C_3   0.970678 0.368187 0.512574 0.414476
C6    C     C_3   0.022835 0.405546 0.392865 0.203708
C7    C     C_1   0.249753 0.488821 0.493186 -0.135546
C8    C     C_1   0.750309 0.490455 0.500826 -0.090487
C9    C     C_3   0.031795 0.443318 0.609120 -0.319339
C10   C     C_3   0.083461 0.480987 0.486993 -0.015974
C11   C     C_3   0.976809 0.557877 0.588865 -0.258004
C12   C     C_3   0.916554 0.481376 0.493339 0.031099
C13   C     C_3   0.030174 0.596432 0.467972 -0.270425
C14   C     C_3   0.969336 0.518889 0.374253 0.437925
C15   C     C_1   0.174386 0.483971 0.488977 0.044084
C16   C     C_1   0.825552 0.484798 0.496890 0.079102
H1    H     H_    0.056713 0.689772 0.450719 0.170023
H2    H     H_    0.959371 0.620915 0.670133 0.187370
H3    H     H_    0.059871 0.414297 0.705832 0.154452
C17   C     C_3   0.558333 0.078207 0.615001 -0.578825
H4    H     H_    0.536992 0.122058 0.705014 0.281096
H5    H     H_    0.624224 0.111995 0.597766 0.203639
C18   C     C_3   0.554803 0.937088 0.632189 0.675183
H6    H     H_    0.386811 0.101883 0.605350 0.159343
C19   C     C_3   0.409498 0.069476 0.506727 0.260856
C20   C     C_3   0.543936 0.069623 0.372172 -0.338014
C21   C     C_3   0.502555 0.121149 0.497796 -0.145930
H7    H     H_    0.500629 0.085514 0.288437 0.334567
H8    H     H_    0.606665 0.115879 0.355111 0.201699
C22   C     C_3   0.504301 0.879721 0.503709 -0.275096
C23   C     C_3   0.409861 0.926504 0.493984 0.024460
C24   C     C_3   0.554618 0.931025 0.379485 0.049111
H9    H     H_    0.623776 0.915478 0.396888 0.185192
H10   H     H_    0.385447 0.900972 0.392602 0.192450
C25   C     C_3   0.454821 0.387172 0.072600 0.067429
H11   H     H_    0.386765 0.397737 0.091721 0.104795
C26   C     C_3   0.470085 0.374356 0.912620 0.689096
H12   H     H_    0.381338 0.600775 0.123335 0.215853
H13   H     H_    0.369395 0.556041 0.889391 0.204041
C27   C     C_3   0.445360 0.599092 0.078346 -0.458066
C28   C     C_3   0.585533 0.524121 0.083605 0.087402
N1    N     N_3   0.498170 0.499750 0.138610 -0.173052
H14   H     H_    0.606922 0.614320 0.128208 0.144629
N2    N     N_3   0.498850 0.496730 0.861320 -0.142384
C29   C     C_3   0.435741 0.584637 0.917982 -0.448133
C30   C     C_3   0.582465 0.543885 0.927072 0.304949
H15   H     H_    0.584136 0.644526 0.914599 0.137698
H16   H     H_    0.474560 0.689545 0.102512 0.289280
H17   H     H_    0.442493 0.675024 0.871692 0.283889
N3    N     N_R   0.047521 0.325359 0.283575 0.190394
O9    O     O_R   0.989444 0.260689 0.216821 -0.363173
O10   O     O_R   0.124477 0.333087 0.239167 -0.481724
N4    N     N_R   0.510996 0.907561 0.757623 0.226004
O11   O     O_R   0.444082 0.966543 0.792906 -0.342397
O12   O     O_R   0.544539 0.836749 0.845178 -0.416218
N5    N     N_R   0.350117 0.865763 0.584640 0.214597
O13   O     O_R   0.329526 0.751084 0.562882 -0.428748
O14   O     O_R   0.300424 0.928850 0.660276 -0.408085
N6    N     N_R   0.532176 0.875675 0.247729 0.235609
O15   O     O_R   0.593520 0.839339 0.172844 -0.414800
O16   O     O_R   0.457340 0.890825 0.192209 -0.372001
O17   O     O_3   0.360030 0.118427 0.400723 -0.609176
C31   C     C_3   0.271345 0.115823 0.422875 0.127682
H18   H     H_    0.246192 0.203166 0.385463 0.198492
H19   H     H_    0.254384 0.112722 0.529775 0.120600
C32   C     C_3   0.227848 0.009110 0.342868 -0.339581
H20   H     H_    0.255012 0.002433 0.241734 0.265836
H21   H     H_    0.238865 0.921810 0.393960 0.242311
C33   C     C_3   0.132058 0.024396 0.328515 -0.899699
H22   H     H_    0.105013 0.047735 0.426292 0.265366
H23   H     H_    0.101716 0.937415 0.290851 0.261674
H24   H     H_    0.117800 0.096746 0.256282 0.324876
O18   O     O_3   0.933773 0.250168 0.528625 -0.606326
C34   C     C_3   0.986607 0.181561 0.613140 0.104828
H25   H     H_    0.981454 0.215401 0.718115 0.150212
H26   H     H_    0.054519 0.188614 0.583539 0.121927
C35   C     C_3   0.957467 0.046869 0.605097 -0.326886
H27   H     H_    0.890955 0.037732 0.639703 0.225961
H28   H     H_    0.958492 0.013203 0.499725 0.241857
C36   C     C_3   0.015224 0.968055 0.690865 -0.962831
H29   H     H_    0.082824 0.980189 0.662593 0.286345
H30   H     H_    0.996525 0.869994 0.675521 0.265043
H31   H     H_    0.009360 0.993296 0.798127 0.274499
N7    N     N_R   0.471884 0.274818 0.140757 0.254089
O19   O     O_R   0.408278 0.200150 0.163633 -0.376659
O20   O     O_R   0.549213 0.239049 0.160291 -0.320262
N8    N     N_R   0.534316 0.280289 0.891622 0.237954
O21   O     O_R   0.514509 0.167958 0.921587 -0.341314
O22   O     O_R   0.600059 0.297858 0.817721 -0.344602
O23   O     O_3   0.399551 0.333432 0.826484 -0.624222
C37   C     C_3   0.315200 0.319850 0.871632 -0.000160
H32   H     H_    0.272737 0.346803 0.787430 0.159262
H33   H     H_    0.296052 0.383632 0.951151 0.122992
C38   C     C_3   0.293315 0.184803 0.896069 -0.262968
H34   H     H_    0.281856 0.136480 0.798361 0.229685
H35   H     H_    0.347250 0.139847 0.946401 0.320916
C39   C     C_3   0.213978 0.169970 0.979308 -0.843547
H36   H     H_    0.226270 0.210910 0.080524 0.311877
H37   H     H_    0.197756 0.071054 0.989331 0.267684
H38   H     H_    0.159039 0.215113 0.930709 0.253443
N9    N     N_R   0.653012 0.439340 0.125914 0.253009
O24   O     O_R   0.718292 0.485842 0.194185 -0.391259
O25   O     O_R   0.668101 0.341608 0.055183 -0.291930
O26   O     O_3   0.656997 0.504586 0.862705 -0.539335
C40   C     C_3   0.731767 0.570680 0.910963 0.176138
H39   H     H_    0.773467 0.507097 0.965484 0.226926
H40   H     H_    0.718679 0.648663 0.980524 0.117696
C41   C     C_3   0.783357 0.618534 0.796327 -0.391043
H41   H     H_    0.815329 0.540044 0.749536 0.231001
H42   H     H_    0.740820 0.660384 0.721160 0.237689
C42   C     C_3   0.851621 0.712084 0.845891 -1.033718
H43   H     H_    0.825793 0.779542 0.917402 0.275312
H44   H     H_    0.876466 0.763443 0.760619 0.264810
H45   H     H_    0.904597 0.663904 0.895193 0.280332
O27   O     O_3   0.931289 0.554633 0.252601 -0.595306
C43   C     C_3   0.993818 0.599961 0.166001 0.139614
H46   H     H_    0.981418 0.556095 0.066156 0.171343
H47   H     H_    0.060648 0.577740 0.195576 0.146164
C44   C     C_3   0.986097 0.738708 0.154722 -0.388856
H48   H     H_    0.920870 0.760128 0.118382 0.250190
H49   H     H_    0.995770 0.782852 0.254874 0.219301
C45   C     C_3   0.051406 0.791692 0.059921 -0.940145
H50   H     H_    0.117132 0.776680 0.098920 0.274133
H51   H     H_    0.042419 0.891741 0.050958 0.280010
H52   H     H_    0.043621 0.748020 0.959118 0.271619
O28   O     O_3   0.639998 0.891542 0.628995 -0.699731
C46   C     C_3   0.697517 0.907924 0.741376 0.083394
H53   H     H_    0.761809 0.892202 0.702236 0.162008
H54   H     H_    0.687604 0.834562 0.813811 0.211766
C47   C     C_3   0.703434 0.033540 0.813945 -0.352602
H55   H     H_    0.725584 0.105346 0.745434 0.229210
H56   H     H_    0.641128 0.056054 0.854806 0.315687
C48   C     C_3   0.767449 0.032921 0.931281 -0.809405
H57   H     H_    0.747529 0.964165 0.005120 0.278384
H58   H     H_    0.770535 0.124685 0.981490 0.315563
H59   H     H_    0.832013 0.011639 0.895875 0.237949

loop_
_geom_bond_atom_site_label_1
_geom_bond_atom_site_label_2
_geom_bond_distance
_ccdc_geom_bond_type
C48   H59   1.111143 S    
N5    O14   1.301486 A    
C35   H27   1.111615 S    
N4    O12   1.293294 A    
C43   H46   1.110278 S    
C29   H17   1.103813 S    
C31   H19   1.112218 S    
C31   H18   1.110778 S    
C4    C8    1.400543 S    
C20   C24   1.530104 S    
N9    O24   1.302489 A    
C8    C16   1.185928 T    
C47   C48   1.526951 S    
C38   H35   1.105571 S    
O26   C40   1.429198 S    
C25   H11   1.098859 S    
C5    C9    1.550662 S    
C46   H54   1.104052 S    
C37   H32   1.111294 S    
O4    C2    1.306537 A    
C20   C21   1.534737 S    
C9    C11   1.552070 S    
C32   H21   1.107558 S    
H6    C19   1.113226 S    
C17   H4    1.077454 S    
O7    C4    1.313769 A    
C48   H57   1.111080 S    
C10   C15   1.426330 S    
C5    C6    1.527717 S    
C30   H15   1.108501 S    
N3    O10   1.299798 A    
C28   C30   1.588573 S    
C6    N3    1.454141 S    
N6    O16   1.302522 A    
O5    C3    1.320042 A    
C41   H41   1.105992 S    
C3    C22   1.503046 S    
C5    C12   1.530639 S    
C9    C10   1.544058 S    
C45   H50   1.110998 S    
C40   H40   1.115215 S    
C27   N1    1.509374 S    
C39   H36   1.109794 S    
C32   C33   1.520493 S    
C13   H1    1.109918 S    
Zn2   N1    2.069062 S    
C18   N4    1.486914 S    
C44   C45   1.527961 S    
C22   C24   1.596685 S    
N5    O13   1.297319 A    
C6    C14   1.525637 S    
C11   C12   1.544211 S    
C39   H37   1.110613 S    
N6    O15   1.301191 A    
O3    Zn1   1.962781 S    
C25   N7    1.445202 S    
C38   H34   1.110380 S    
N8    O22   1.299004 A    
N8    O21   1.301174 A    
C32   H20   1.111979 S    
C25   C26   1.631491 S    
C46   C47   1.537651 S    
N2    C30   1.525140 S    
C18   C22   1.601218 S    
C28   N1    1.511039 S    
C27   H16   1.097340 S    
C34   H25   1.113283 S    
O3    C2    1.309505 A    
C33   H23   1.105617 S    
O17   C31   1.415129 S    
C5    O18   1.413384 S    
C25   N1    1.519293 S    
H13   C29   1.107916 S    
C24   N6    1.470641 S    
C28   N9    1.484375 S    
C26   O23   1.441348 S    
N4    O11   1.299100 A    
C17   C21   1.535760 S    
N3    O9    1.300234 A    
O1    C1    1.315894 A    
C41   C42   1.526658 S    
Zn1   O7    1.983346 S    
C33   H24   1.106728 S    
C36   H30   1.109148 S    
O18   C34   1.410761 S    
C10   C13   1.543351 S    
Zn2   O8    1.962781 S    
C40   C41   1.517957 S    
N9    O25   1.298402 A    
C6    C10   1.533484 S    
C47   H55   1.109112 S    
N7    O20   1.295993 A    
C42   H43   1.108232 S    
C26   N2    1.505235 S    
Zn2   O6    2.051344 S    
C22   C23   1.581682 S    
C11   H2    1.099561 S    
O8    C4    1.303992 A    
C19   O17   1.421716 S    
C37   C38   1.531951 S    
C11   C13   1.551294 S    
O27   C43   1.414732 S    
C23   H10   1.104005 S    
C12   C14   1.528578 S    
C24   H9    1.112867 S    
C9    H3    1.110470 S    
C36   H31   1.110945 S    
C44   H48   1.110005 S    
C37   H33   1.099843 S    
C48   H58   1.110537 S    
C2    C7    1.396104 S    
N2    C29   1.509991 S    
C43   H47   1.116736 S    
C17   C18   1.554054 S    
C19   C21   1.557711 S    
O1    Zn1   2.051344 S    
C20   H8    1.113946 S    
O2    Zn2   2.067764 S    
C34   H26   1.115312 S    
O28   C46   1.430109 S    
O6    C3    1.318047 A    
C26   N8    1.473440 S    
O4    Zn2   1.983346 S    
C23   N5    1.478337 S    
C47   H56   1.101792 S    
C34   C35   1.528582 S    
C46   H53   1.108541 S    
C27   C29   1.614687 S    
C43   C44   1.529419 S    
C7    C15   1.182406 T    
C20   H7    1.085975 S    
O2    C1    1.318397 A    
C17   H5    1.108270 S    
C18   O28   1.439691 S    
C36   H29   1.110944 S    
C14   O27   1.411145 S    
C45   H52   1.110193 S    
H12   C27   1.112808 S    
O23   C37   1.415822 S    
C39   H38   1.111100 S    
N7    O19   1.300949 A    
C19   C23   1.563651 S    
C41   H42   1.107741 S    
C42   H44   1.106954 S    
C13   C14   1.544824 S    
C33   H22   1.105738 S    
Zn1   O5    2.067763 S    
C31   C32   1.534623 S    
C1    C21   1.498351 S    
C45   H51   1.110457 S    
C12   C16   1.431247 S    
C35   C36   1.527791 S    
C42   H45   1.106837 S    
C35   H28   1.111428 S    
C30   O26   1.422316 S    
Zn1   N2    2.070657 S    
C28   H14   1.112578 S    
C38   C39   1.524570 S    
C40   H39   1.109416 S    
C44   H49   1.109082 S    
