data_mof_unit_59836.cif
_audit_creation_date              2012-12-11T15:59:46-0500
_audit_creation_method            fapswitch 2.2
_symmetry_space_group_name_H-M    P1
_symmetry_Int_Tables_number       1
_space_group_crystal_system       triclinic
_cell_length_a                    10.680689
_cell_length_b                    10.753187
_cell_length_c                    17.023758
_cell_angle_alpha                 99.56316
_cell_angle_beta                  99.508784
_cell_angle_gamma                 60.461387
_cell_volume                      1669.50922929

loop_
_atom_site_label
_atom_site_type_symbol
_atom_type_description
_atom_site_fract_x
_atom_site_fract_y
_atom_site_fract_z
_atom_type_partial_charge
C1    C     C_R   0.385243 0.706376 0.387725 0.564682
C2    C     C_R   0.882260 0.312181 0.343204 -0.014467
C3    C     C_R   0.353974 0.791625 0.147836 0.001543
C4    C     C_R   0.365937 0.343244 0.358657 0.553952
C5    C     C_R   0.484700 0.763515 0.194087 0.024161
C6    C     C_R   0.498388 0.744300 0.276223 0.024316
C7    C     C_R   0.276147 0.724078 0.250899 -0.157378
C8    C     C_R   0.258831 0.755900 0.173818 -0.131843
C9    C     C_R   0.601869 0.752261 0.159842 -0.070525
C10   C     C_R   0.726993 0.735102 0.207134 -0.113210
C11   C     C_R   0.734308 0.736416 0.289205 -0.127007
C12   C     C_R   0.885148 0.195367 0.209237 0.019094
C13   C     C_R   0.622613 0.741029 0.323664 -0.075992
C14   C     C_R   0.386736 0.730087 0.305236 -0.008589
C15   C     C_R   0.297833 0.274607 0.798710 -0.002473
C16   C     C_R   0.786503 0.371285 0.408008 0.562223
C17   C     C_R   0.426348 0.174918 0.762535 0.024330
C18   C     C_R   0.478765 0.224793 0.712375 0.028353
C19   C     C_R   0.245813 0.444500 0.705931 -0.142957
C20   C     C_R   0.206977 0.407714 0.768642 -0.142938
C21   C     C_R   0.508259 0.029233 0.778530 -0.069702
C22   C     C_R   0.649501 0.942753 0.757340 0.025315
C23   C     C_R   0.894694 0.189756 0.292586 -0.022964
C24   C     C_R   0.709989 0.002260 0.719112 -0.094510
C25   C     C_R   0.625869 0.141374 0.697111 -0.097645
C26   C     C_R   0.380541 0.353217 0.676567 -0.002357
C27   C     C_1   0.818730 0.341944 0.708898 -0.061185
C28   C     C_R   0.357448 0.769978 0.627313 0.575247
C29   C     C_1   0.845438 0.313950 0.776722 -0.055106
C30   C     C_1   0.338929 0.809366 0.709427 -0.062410
C31   C     C_1   0.314047 0.836338 0.777751 -0.064331
C32   C     C_R   0.949063 0.286075 0.100075 0.541019
C33   C     C_R   0.290821 0.261313 0.122376 0.564926
C34   C     C_R   0.926631 0.400521 0.318423 -0.145678
C35   C     C_R   0.298863 0.881669 0.081314 0.533898
C36   C     C_R   0.886128 0.297632 0.859097 0.559232
C37   C     C_R   0.278110 0.251721 0.876992 0.553724
C38   C     C_R   0.280199 0.883249 0.857604 0.544203
C39   C     C_R   0.407749 0.375445 0.600201 0.535665
C40   C     C_R   0.773891 0.380386 0.629599 0.553193
C41   C     C_1   0.324902 0.317431 0.276921 -0.048234
C42   C     C_1   0.304998 0.292993 0.206339 -0.050021
C43   C     C_R   0.916279 0.295502 0.182188 0.006005
C44   C     C_3   0.736040 0.789490 0.777815 -0.270257
C45   C     C_R   0.947248 0.389427 0.238927 -0.157396
C46   C     C_3   0.778877 0.783228 0.867749 -0.431518
C47   C     C_2   0.961751 0.032047 0.405938 0.615518
C48   C     C_R   0.843544 0.101635 0.157814 -0.072173
C49   C     C_R   0.846348 0.986747 0.186500 -0.140926
C50   C     C_R   0.887418 0.964311 0.266848 -0.113227
C51   C     C_R   0.909988 0.065642 0.321345 0.026774
Cr1   Cr    Cr6+3 0.608100 0.610860 0.522250 1.013173
Cr2   Cr    Cr6+3 0.288890 0.599990 0.488420 1.052458
Cr3   Cr    Cr6+3 0.603040 0.289190 0.489390 1.073165
Cr4   Cr    Cr6+3 0.053960 0.052250 0.967380 1.002349
Cr5   Cr    Cr6+3 0.059890 0.373160 0.992710 0.992689
Cr6   Cr    Cr6+3 0.373370 0.061690 0.991710 0.986065
H1    H     H_    0.935840 0.484583 0.359492 0.141267
H2    H     H_    0.803878 0.116238 0.095842 0.158424
H3    H     H_    0.982423 0.458684 0.221302 0.129828
H4    H     H_    0.820810 0.912809 0.145173 0.105270
H5    H     H_    0.902718 0.867368 0.286680 0.121008
H6    H     H_    0.196972 0.701930 0.268981 0.135045
H7    H     H_    0.600120 0.750081 0.095925 0.130923
H8    H     H_    0.163204 0.763309 0.136568 0.150174
H9    H     H_    0.841812 0.841487 0.889064 0.154846
H10   H     H_    0.681373 0.831723 0.900824 0.155178
H11   H     H_    0.847165 0.669610 0.880709 0.164182
H12   H     H_    0.818870 0.719717 0.180079 0.100642
H13   H     H_    0.671380 0.732754 0.757381 0.166170
H14   H     H_    0.836142 0.731217 0.746477 0.145962
H15   H     H_    0.110485 0.100487 0.417351 0.294817
H16   H     H_    0.830186 0.726967 0.326668 0.112768
H17   H     H_    0.641514 0.741127 0.387237 0.179923
H18   H     H_    0.170578 0.544328 0.680546 0.143742
H19   H     H_    0.463951 0.982340 0.808429 0.149386
H20   H     H_    0.106884 0.483937 0.794132 0.138173
H21   H     H_    0.821103 0.940495 0.704790 0.123618
H22   H     H_    0.677030 0.181888 0.667446 0.156979
O1    O     O_R   0.749810 0.499790 0.438040 -0.542949
O2    O     O_R   0.411730 0.181020 0.091530 -0.487860
O3    O     O_R   0.365010 0.944360 0.063320 -0.524720
O4    O     O_R   0.477660 0.726260 0.439290 -0.508720
O5    O     O_R   0.159380 0.906670 0.876210 -0.499709
O6    O     O_R   0.930820 0.177420 0.886730 -0.483086
O7    O     O_R   0.910360 0.395420 0.895720 -0.530477
O8    O     O_R   0.186010 0.361730 0.919870 -0.489652
O9    O     O_R   0.400000 0.173010 0.914630 -0.509567
O10   O     O_R   0.354140 0.936940 0.899340 -0.542194
O11   O     O_3   0.162410 0.162370 0.983930 -0.295048
O12   O     O_R   0.298970 0.468800 0.557390 -0.498029
O13   O     O_R   0.260150 0.743000 0.412270 -0.472947
O14   O     O_R   0.297740 0.466550 0.394720 -0.522197
O15   O     O_R   0.488080 0.253500 0.386430 -0.483525
O16   O     O_R   0.722670 0.303800 0.421940 -0.476890
O17   O     O_R   0.751130 0.502220 0.613520 -0.514801
O18   O     O_R   0.478890 0.728510 0.601960 -0.495880
O19   O     O_R   0.261470 0.745430 0.587750 -0.484781
O20   O     O_2   0.915172 0.970853 0.437259 -0.483450
O21   O     O_R   0.064819 0.066510 0.450503 -0.645467
O22   O     O_R   0.489400 0.255930 0.561910 -0.503801
O23   O     O_R   0.723890 0.306050 0.584610 -0.513022
O24   O     O_3   0.500010 0.500010 0.500020 -0.302832
O25   O     O_R   0.171100 0.914680 0.053100 -0.525297
O26   O     O_R   0.941680 0.184840 0.050710 -0.507409
O27   O     O_R   0.922080 0.403420 0.072610 -0.521876
O28   O     O_R   0.196880 0.369150 0.083850 -0.502389

loop_
_geom_bond_atom_site_label_1
_geom_bond_atom_site_label_2
_ccdc_geom_bond_type
C28   O18   A    
C45   H3    S    
C27   C29   T    
C9    H7    S    
C41   C42   T    
C37   O9    A    
C19   C20   A    
C18   C26   A    
C12   C48   A    
Cr3   O23   S    
C7    C8    A    
Cr1   O24   S    
C46   H11   S    
C38   O10   A    
Cr6   O10   S    
C20   H20   S    
Cr4   O26   S    
C33   C42   S    
C46   H9    S    
Cr4   O11   S    
C30   C31   T    
C26   C39   S    
C4    C41   S    
Cr1   O18   S    
C47   O20   D    
C44   H14   S    
C19   C26   A    
C15   C37   S    
C21   H19   S    
Cr3   O22   S    
Cr5   O7    S    
C7    C14   A    
C22   C44   S    
C33   O28   A    
Cr2   O12   S    
C44   H13   S    
C2    C16   S    
C9    C10   A    
C2    C34   A    
Cr5   O11   S    
C8    H8    S    
C32   O27   A    
C21   C22   A    
C18   C25   A    
C40   O17   A    
C39   O12   A    
C35   O3    A    
C44   C46   S    
C39   O22   A    
C15   C20   A    
C49   H4    S    
Cr6   O11   S    
Cr2   O14   S    
Cr3   O24   S    
C24   C25   A    
C3    C8    A    
C11   H16   S    
Cr5   O8    S    
C12   C23   A    
C50   C51   A    
Cr4   O25   S    
C17   C21   A    
C47   O21   S    
C16   O1    A    
Cr4   O6    S    
Cr1   O4    S    
Cr5   O28   S    
C5    C9    A    
C6    C14   A    
C23   C51   A    
C29   C36   S    
C3    C35   S    
C27   C40   S    
Cr5   O27   S    
Cr2   O13   S    
C17   C18   A    
C34   C45   A    
C43   C45   A    
C7    H6    S    
Cr3   O16   S    
C4    O15   A    
C24   H21   S    
C48   C49   A    
C35   O25   A    
C1    O13   A    
C32   O26   A    
Cr2   O19   S    
Cr6   O2    S    
C1    O4    A    
C48   H2    S    
H15   O21   S    
C28   O19   A    
C15   C17   A    
C16   O16   A    
C38   O5    A    
C25   H22   S    
C37   O8    A    
C3    C5    A    
C47   C51   S    
C31   C38   S    
C36   O6    A    
C12   C43   A    
Cr6   O9    S    
C36   O7    A    
C28   C30   S    
C46   H10   S    
C6    C13   A    
C11   C13   A    
C5    C6    A    
Cr2   O24   S    
C50   H5    S    
C19   H18   S    
C32   C43   S    
Cr1   O17   S    
C22   C24   A    
Cr3   O15   S    
C10   C11   A    
C40   O23   A    
C4    O14   A    
C10   H12   S    
C13   H17   S    
C49   C50   A    
C2    C23   A    
C34   H1    S    
Cr6   O3    S    
C1    C14   S    
Cr4   O5    S    
Cr1   O1    S    
C33   O2    A    
