data_mof_unit_6453.cif
_audit_creation_date              2013-03-05T16:19:40-0500
_audit_creation_method            fapswitch 2.2
_symmetry_space_group_name_H-M    P1
_symmetry_Int_Tables_number       1
_space_group_crystal_system       triclinic
_cell_length_a                    10.687105
_cell_length_b                    9.672304
_cell_length_c                    27.628121
_cell_angle_alpha                 89.765727
_cell_angle_beta                  88.782684
_cell_angle_gamma                 90.504197
_cell_volume                      2855.10804804

loop_
_atom_site_label
_atom_site_type_symbol
_atom_site_description
_atom_site_fract_x
_atom_site_fract_y
_atom_site_fract_z
_atom_type_partial_charge
O1    O     O_R   0.314910 0.616040 0.499990 -0.637559
O2    O     O_R   0.314910 0.383960 0.499990 -0.636295
C1    C     C_R   0.257910 0.499159 0.501365 0.870790
O3    O     O_R   0.500140 0.616020 0.428740 -0.624801
O4    O     O_R   0.500140 0.383980 0.428740 -0.632313
C2    C     C_R   0.496653 0.500417 0.405920 0.883845
Zn1   Zn    Zn3+2 0.500150 0.654960 0.499980 0.912998
Zn2   Zn    Zn3+2 0.500150 0.345040 0.499980 0.903369
O5    O     O_R   0.685320 0.616040 0.499970 -0.615588
O6    O     O_R   0.685320 0.383960 0.499970 -0.641675
O7    O     O_R   0.500090 0.616050 0.571230 -0.630535
O8    O     O_R   0.500090 0.383950 0.571230 -0.628364
C3    C     C_R   0.743197 0.500377 0.498196 0.881108
C4    C     C_R   0.500502 0.499760 0.594132 0.903828
C5    C     C_R   0.424119 0.581060 0.177776 0.539702
O9    O     O_2   0.325898 0.630819 0.203613 -0.555082
N1    N     N_R   0.518238 0.514541 0.200808 -0.345343
C6    C     C_R   0.619958 0.464044 0.176157 0.539951
C7    C     C_R   0.544393 0.625636 0.278496 -0.151576
C8    C     C_R   0.536397 0.623798 0.328575 -0.230549
C9    C     C_R   0.468065 0.383670 0.326953 -0.284921
C10   C     C_R   0.475606 0.385192 0.276343 0.258124
C11   C     C_R   0.514153 0.507193 0.252333 0.292007
C12   C     C_R   0.532026 0.544137 0.101174 -0.050870
C13   C     C_R   0.429705 0.598232 0.127498 -0.085944
C14   C     C_R   0.338279 0.673078 0.103508 -0.185870
C15   C     C_R   0.627985 0.476038 0.125717 -0.010381
C16   C     C_R   0.499216 0.502576 0.353113 -0.071678
H1    H     H_    0.437159 0.290412 0.345674 0.151777
H2    H     H_    0.265474 0.725139 0.124112 0.228199
C17   C     C_R   0.504665 0.499603 0.646932 -0.107024
C18   C     C_R   0.428289 0.593110 0.975457 0.088187
C19   C     C_R   0.649991 0.525161 0.973093 0.013328
C20   C     C_R   0.537182 0.553581 0.949017 0.045503
C21   C     C_R   0.313457 0.598698 0.951344 -0.120897
C22   C     C_R   0.308099 0.579100 0.901698 -0.121660
C23   C     C_R   0.417217 0.551938 0.874722 -0.017029
C24   C     C_R   0.532264 0.539507 0.898303 -0.055059
C25   C     C_R   0.641934 0.511486 0.871217 -0.053485
C26   C     C_R   0.634792 0.497509 0.820967 0.597426
N2    N     N_R   0.521932 0.508134 0.799018 -0.338978
C27   C     C_R   0.414140 0.534968 0.824549 0.579753
C28   C     C_R   0.490861 0.374745 0.723741 0.365282
C29   C     C_R   0.484948 0.376406 0.673106 -0.290211
C30   C     C_R   0.530473 0.622674 0.671373 -0.196710
C31   C     C_R   0.537172 0.622693 0.721333 -0.134961
C32   C     C_R   0.517742 0.500389 0.747617 0.194000
O10   O     O_2   0.304845 0.545956 0.801283 -0.532225
C33   C     C_R   0.435725 0.615465 0.025836 -0.070851
C34   C     C_R   0.537642 0.556669 0.050290 0.040981
C35   C     C_R   0.643667 0.507287 0.024076 0.061844
C36   C     C_R   0.343046 0.687962 0.053169 0.264789
H3    H     H_    0.465073 0.281445 0.653998 0.190439
H4    H     H_    0.217964 0.584898 0.884614 0.190161
H5    H     H_    0.225796 0.612742 0.970772 0.158041
O11   O     O_2   0.713537 0.404368 0.200488 -0.572303
C37   C     C_R   0.728491 0.420164 0.099450 -0.139234
H6    H     H_    0.561390 0.716602 0.348076 0.155497
H7    H     H_    0.573423 0.719563 0.259781 0.146754
H8    H     H_    0.801268 0.363363 0.117378 0.196897
C38   C     C_R   0.762469 0.511799 0.944884 0.178055
C39   C     C_R   0.756349 0.501969 0.894521 -0.176325
O12   O     O_2   0.739249 0.473049 0.794148 -0.535752
C40   C     C_R   0.735410 0.433874 0.049411 -0.168447
H9    H     H_    0.546509 0.718862 0.651921 0.164724
H10   H     H_    0.842334 0.489141 0.873579 0.194993
H11   H     H_    0.556993 0.718478 0.739973 0.173517
H12   H     H_    0.810131 0.379602 0.031045 0.187471
C41   C     C_3   0.069667 0.580568 0.543743 -0.403609
C42   C     C_3   0.070380 0.347349 0.502685 -0.417585
H13   H     H_    0.104415 0.689356 0.542610 0.175266
H14   H     H_    0.104073 0.287484 0.470702 0.170665
H15   H     H_    0.101227 0.534049 0.578291 0.178188
H16   H     H_    0.103604 0.293770 0.535721 0.187098
C43   C     C_3   0.926437 0.578922 0.542693 -0.422685
C44   C     C_3   0.927674 0.348627 0.503791 -0.461127
H17   H     H_    0.889752 0.525995 0.576035 0.173796
H18   H     H_    0.893053 0.305187 0.539074 0.191218
H19   H     H_    0.890387 0.685152 0.545647 0.185432
H20   H     H_    0.891613 0.277942 0.475560 0.180951
H21   H     H_    0.120536 0.674986 0.450489 0.176198
H22   H     H_    0.132346 0.515681 0.421572 0.142291
C45   C     C_3   0.083682 0.567549 0.452549 -0.448950
C46   C     C_3   0.122568 0.498018 0.500277 0.117216
C47   C     C_3   0.880497 0.500063 0.497127 0.131440
C48   C     C_3   0.939267 0.560451 0.447423 0.438516
C49   C     C_3   0.370789 0.080097 0.502972 -0.233935
C50   C     C_3   0.370729 0.917288 0.503012 -0.230244
H23   H     H_    0.314298 0.118086 0.472362 0.144274
H24   H     H_    0.313933 0.878899 0.472481 0.146584
H25   H     H_    0.324017 0.117917 0.536693 0.150053
H26   H     H_    0.323924 0.877974 0.536762 0.149695
H27   H     H_    0.507007 0.120844 0.421838 0.150752
H28   H     H_    0.502942 0.883294 0.421947 0.148998
C51   C     C_3   0.557891 0.082547 0.453838 -0.234622
C52   C     C_3   0.556418 0.919821 0.453605 -0.241421
C53   C     C_3   0.571088 0.081663 0.539971 -0.222977
C54   C     C_3   0.569988 0.919131 0.540238 -0.227293
N3    N     N_3   0.499750 0.138610 0.498940 -0.036663
N4    N     N_3   0.499750 0.861390 0.498940 -0.036098
H29   H     H_    0.669362 0.120513 0.538003 0.147514
H30   H     H_    0.667194 0.880260 0.539505 0.137331
H31   H     H_    0.530543 0.119403 0.574816 0.159776
H32   H     H_    0.527164 0.881768 0.574960 0.156058
H33   H     H_    0.655848 0.121454 0.449704 0.141968
H34   H     H_    0.652663 0.880536 0.448206 0.166627
N5    N     N_2   0.882847 0.519471 0.965967 -0.342105
H35   H     H_    0.953300 0.472416 0.946124 0.230953
C55   C     C_3   0.918648 0.655850 0.982230 -0.674181
H36   H     H_    0.007987 0.649089 0.001787 0.263343
H37   H     H_    0.846614 0.698462 0.007500 0.258059
H38   H     H_    0.931841 0.726743 0.950703 0.248214
N6    N     N_2   0.437937 0.267562 0.249473 -0.303103
H39   H     H_    0.346498 0.238650 0.257131 0.234594
C56   C     C_3   0.521819 0.151316 0.252204 -0.740648
H40   H     H_    0.490231 0.068909 0.227286 0.248976
H41   H     H_    0.522099 0.108537 0.289605 0.213459
H42   H     H_    0.618407 0.182828 0.241199 0.287234
N7    N     N_2   0.892223 0.697537 0.433509 -0.288765
H43   H     H_    0.910262 0.720466 0.397473 0.245298
C57   C     C_3   0.906812 0.819445 0.463565 -0.863619
H44   H     H_    0.901906 0.914149 0.440784 0.224538
H45   H     H_    0.996771 0.822707 0.482524 0.238522
H46   H     H_    0.829079 0.825799 0.490142 0.252624
N8    N     N_2   0.916035 0.464768 0.407213 -0.341631
H47   H     H_    0.967212 0.374893 0.405605 0.221607
C58   C     C_3   0.792841 0.451124 0.387246 -0.794659
H48   H     H_    0.801796 0.419715 0.348743 0.262985
H49   H     H_    0.742400 0.550417 0.388636 0.250109
H50   H     H_    0.739261 0.369358 0.407003 0.243858
N9    N     N_R   0.468793 0.246654 0.749761 0.219728
O13   O     O_R   0.422105 0.139915 0.727723 -0.388757
O14   O     O_R   0.499050 0.232929 0.794869 -0.365163
N10   N     N_R   0.264261 0.789934 0.031422 0.190302
O15   O     O_R   0.156523 0.820130 0.051334 -0.406442
O16   O     O_R   0.308689 0.868934 0.996763 -0.358873

loop_
_geom_bond_atom_site_label_1
_geom_bond_atom_site_label_2
_geom_bond_distance
_ccdc_geom_bond_type
C49   C50   1.574726 S    
C49   H25   1.112607 S    
C36   N10   1.440142 S    
N2    C27   1.365366 A    
C51   C52   1.573913 S    
C12   C15   1.408234 A    
C4    C17   1.460385 S    
C53   C54   1.571984 S    
C47   C48   1.603670 S    
Zn1   O7    2.002633 S    
N1    C11   1.424764 S    
C26   O12   1.349869 S    
C40   H12   1.078453 S    
C22   C23   1.398022 A    
Zn2   N3    1.996947 S    
C44   H18   1.114580 S    
C55   H37   1.111320 S    
O4    C2    1.289649 A    
O7    C4    1.288382 A    
C51   N3    1.487082 S    
C5    C13   1.398259 A    
C5    O9    1.350149 S    
C5    N1    1.365953 A    
C23   C27   1.397596 A    
C41   H13   1.112856 S    
O5    C3    1.283697 A    
C57   H46   1.099290 S    
C51   H33   1.112761 S    
H21   C45   1.108863 S    
C30   H9    1.083044 S    
C29   H3    1.082934 S    
C43   C47   1.560504 S    
C10   N6    1.420989 S    
C2    C16   1.458683 S    
C7    C8    1.384432 A    
C56   H41   1.111583 S    
C42   H16   1.113919 S    
N5    H35   1.032073 S    
C41   H15   1.113609 S    
C48   N7    1.474598 S    
C42   C46   1.556473 S    
C6    C15   1.398651 A    
C6    O11   1.349357 S    
C33   C36   1.424001 A    
H27   C51   1.111689 S    
O1    Zn1   2.011890 S    
C9    C10   1.398866 A    
C48   N8    1.472567 S    
N5    C55   1.446216 S    
O3    Zn1   2.005454 S    
C53   N3    1.486171 S    
N1    C6    1.365570 A    
C49   N3    1.487086 S    
N7    C57   1.454127 S    
C12   C34   1.410509 A    
C17   C29   1.403303 A    
C39   H10   1.083790 S    
C21   H5    1.079681 S    
C18   C21   1.410120 A    
C50   H26   1.112746 S    
C12   C13   1.406375 A    
O3    C2    1.286534 A    
Zn1   N4    1.996787 S    
C55   H38   1.112192 S    
C25   C26   1.399039 A    
C37   H8    1.083414 S    
N10   O16   1.301747 A    
C8    C16   1.402175 A    
C7    H7    1.083197 S    
C13   C14   1.397905 A    
C54   H30   1.107706 S    
C9    H1    1.083490 S    
H22   C45   1.115261 S    
O1    C1    1.279498 A    
C21   C22   1.387729 A    
C18   C20   1.417072 A    
C7    C11   1.396260 A    
C28   C29   1.401750 A    
C58   H49   1.105877 S    
C23   C24   1.409472 A    
C14   C36   1.397414 A    
C53   H31   1.111640 S    
C45   C46   1.544250 S    
Zn2   O8    2.005658 S    
C56   H42   1.109616 S    
C34   C35   1.419178 A    
N2    C32   1.424037 S    
C27   O10   1.349946 S    
H28   C52   1.112043 S    
C43   H17   1.114281 S    
C57   H44   1.111525 S    
C50   N4    1.487700 S    
Zn2   O6    2.011155 S    
C26   N2    1.365961 A    
C9    C16   1.402219 A    
C50   H24   1.112742 S    
N9    O13   1.301741 A    
C14   H2    1.083248 S    
C54   N4    1.487095 S    
C49   H23   1.112533 S    
C15   C37   1.397411 A    
N8    H47   1.031716 S    
C8    H6    1.083154 S    
C58   H48   1.109890 S    
C37   C40   1.388634 A    
N6    H39   1.031428 S    
Zn1   O5    2.017664 S    
C25   C39   1.397549 A    
C52   H34   1.106997 S    
C31   C32   1.397168 A    
C20   C24   1.410343 A    
O2    Zn2   2.018399 S    
C35   C40   1.411675 A    
C44   H20   1.112105 S    
O8    C4    1.288777 A    
N9    O14   1.300725 A    
O6    C3    1.280201 A    
O4    Zn2   2.002429 S    
N7    H43   1.032884 S    
N10   O15   1.301553 A    
C19   C35   1.418542 A    
C28   N9    1.444905 S    
O2    C1    1.274894 A    
C58   H50   1.107496 S    
C31   H11   1.083278 S    
C41   C46   1.544735 S    
C55   H36   1.109305 S    
C42   C44   1.524939 S    
C24   C25   1.406117 A    
C43   H19   1.103237 S    
C54   H32   1.111725 S    
C52   N4    1.486935 S    
C19   C20   1.417703 A    
C41   C43   1.531550 S    
C38   C39   1.397953 A    
C38   N5    1.424911 S    
C18   C33   1.413240 A    
C57   H45   1.104833 S    
C22   H4    1.083472 S    
C30   C31   1.383664 A    
C45   C48   1.553796 S    
C19   C38   1.425755 A    
C33   C34   1.416063 A    
C17   C30   1.399205 A    
C3    C47   1.467047 S    
C1    C46   1.447315 S    
N8    C58   1.443438 S    
C10   C11   1.405579 A    
C42   H14   1.113589 S    
C28   C32   1.415279 A    
C44   C47   1.564699 S    
C53   H29   1.112499 S    
C56   H40   1.110336 S    
N6    C56   1.446869 S    
