data_mof_unit_25235.cif
_audit_creation_date              2012-12-10T17:31:09-0500
_audit_creation_method            fapswitch 2.2
_symmetry_space_group_name_H-M    P1
_symmetry_Int_Tables_number       1
_space_group_crystal_system       triclinic
_cell_length_a                    12.05054
_cell_length_b                    12.783655
_cell_length_c                    15.231757
_cell_angle_alpha                 85.717377
_cell_angle_beta                  116.403726
_cell_angle_gamma                 94.88489
_cell_volume                      2092.26052504

loop_
_atom_site_label
_atom_site_type_symbol
_atom_type_description
_atom_site_fract_x
_atom_site_fract_y
_atom_site_fract_z
_atom_type_partial_charge
C1    C     C_R   0.474976 0.299470 0.496392 0.953714
C2    C     C_R   0.524749 0.700609 0.502377 0.964693
C3    C     C_R   0.548235 0.318795 0.077546 0.743848
C4    C     C_R   0.322019 0.472090 0.870835 0.738088
C5    C     C_R   0.635096 0.302766 0.043861 -0.286060
C6    C     C_R   0.240181 0.494374 0.907594 -0.285797
C7    C     C_R   0.543434 0.812803 0.503147 -0.248612
C8    C     C_R   0.454992 0.187665 0.488184 -0.197081
C9    C     C_R   0.333943 0.031362 0.411332 0.389754
C10   C     C_R   0.668253 0.971837 0.567037 0.448666
C11   C     C_R   0.342483 0.142010 0.418564 0.369509
C12   C     C_R   0.658291 0.862113 0.564549 0.386150
C13   C     C_R   0.557768 0.129656 0.543003 -0.319674
C14   C     C_R   0.440841 0.869953 0.445514 -0.271846
C15   C     C_R   0.557393 0.026458 0.522726 -0.071677
C16   C     C_R   0.443534 0.975873 0.459213 -0.031264
C17   C     C_R   0.013722 0.611783 0.420118 -0.390002
C18   C     C_R   0.994512 0.399649 0.591720 -0.335785
C19   C     C_R   0.131156 0.599092 0.426326 0.655559
C20   C     C_R   0.874531 0.408792 0.581555 0.647685
C21   C     C_R   0.157380 0.450927 0.536043 0.581279
C22   C     C_R   0.839688 0.546530 0.460187 0.530297
C23   C     C_R   0.576529 0.490589 0.681790 0.951503
C24   C     C_R   0.421672 0.502430 0.318291 0.962340
C25   C     C_R   0.038270 0.462125 0.532268 -0.136382
C26   C     C_R   0.962705 0.540378 0.469330 -0.168340
C27   C     C_R   0.617547 0.459879 0.786461 -0.313009
C28   C     C_R   0.365440 0.490663 0.211499 -0.322752
C29   C     C_R   0.722493 0.344645 0.929276 -0.316605
C30   C     C_R   0.205577 0.526720 0.047161 -0.267886
C31   C     C_R   0.709840 0.386808 0.836866 0.426398
C32   C     C_R   0.249140 0.530530 0.148835 0.416419
C33   C     C_R   0.540809 0.486190 0.827593 0.628160
C34   C     C_R   0.428619 0.436355 0.172502 0.547366
C35   C     C_R   0.534710 0.425116 0.905756 -0.030584
C36   C     C_R   0.385151 0.432031 0.070395 -0.004232
C37   C     C_R   0.631906 0.358306 0.960452 -0.067890
C38   C     C_R   0.275366 0.482772 0.008074 -0.067649
C39   C     C_R   0.438575 0.432296 0.934216 -0.130763
C40   C     C_R   0.457384 0.393225 0.028885 -0.136897
H1    H     H_    0.704472 0.245995 0.082796 0.169024
H2    H     H_    0.152724 0.527222 0.858202 0.179746
H3    H     H_    0.964036 0.677775 0.376639 0.201569
H4    H     H_    0.052389 0.344008 0.646756 0.214953
H5    H     H_    0.798315 0.296275 0.975175 0.162168
H6    H     H_    0.121209 0.564773 0.998981 0.177537
H7    H     H_    0.356354 0.829491 0.394438 0.257869
H8    H     H_    0.641333 0.167917 0.597548 0.215865
N1    N     N_R   0.799120 0.480200 0.517090 -0.173755
N2    N     N_R   0.200880 0.519800 0.482910 -0.189443
O1    O     O_R   0.580150 0.341050 0.504560 -0.569944
O2    O     O_R   0.419850 0.658950 0.495440 -0.567580
O3    O     O_R   0.388090 0.353760 0.493600 -0.613499
O4    O     O_R   0.611910 0.646240 0.506400 -0.590825
O5    O     O_R   0.650890 0.490020 0.640860 -0.559898
O6    O     O_R   0.349110 0.509980 0.359140 -0.565529
O7    O     O_R   0.458830 0.502730 0.629890 -0.527401
O8    O     O_R   0.541170 0.497270 0.370110 -0.568665
Zn1   Zn    Zn3+2 0.628240 0.491510 0.507320 1.058218
Zn2   Zn    Zn3+2 0.371760 0.508490 0.492680 1.069415
F1    F     F_    0.833099 0.346199 0.636955 -0.677393
F2    F     F_    0.175736 0.667146 0.375549 -0.658944
F3    F     F_    0.539411 0.398028 0.235040 -0.638636
F4    F     F_    0.474963 0.573580 0.791822 -0.612187
O9    O     O_3   0.187811 0.587373 0.186037 -0.555067
C41   C     C_3   0.070337 0.537506 0.167647 0.175631
H9    H     H_    0.076156 0.499334 0.237288 0.164544
H10   H     H_    0.036668 0.475996 0.111717 0.094676
C42   C     C_3   0.973708 0.619568 0.133668 -0.786251
H11   H     H_    0.882486 0.581421 0.122979 0.198280
H12   H     H_    0.001327 0.680205 0.189275 0.286745
H13   H     H_    0.964428 0.657923 0.063061 0.251380
O10   O     O_3   0.785723 0.362108 0.794658 -0.551785
C43   C     C_3   0.836888 0.262140 0.825233 0.198238
H14   H     H_    0.831592 0.223945 0.760467 0.215643
H15   H     H_    0.784432 0.204813 0.853468 0.096105
C44   C     C_3   0.973631 0.275114 0.898062 -0.828145
H16   H     H_    0.985337 0.316707 0.963288 0.234498
H17   H     H_    0.012774 0.196756 0.922283 0.224396
H18   H     H_    0.025982 0.321358 0.862480 0.275887
F5    F     F_    0.544671 0.252091 0.150008 -0.611787
F6    F     F_    0.281888 0.481914 0.772339 -0.609340
O11   O     O_3   0.749424 0.802694 0.636044 -0.587346
C45   C     C_3   0.847051 0.792702 0.610627 0.137166
H19   H     H_    0.912295 0.862681 0.633136 0.188795
H20   H     H_    0.813345 0.781673 0.530682 0.165596
C46   C     C_3   0.919195 0.698217 0.667377 -0.756875
H21   H     H_    0.992734 0.686045 0.644652 0.209738
H22   H     H_    0.963216 0.711373 0.747334 0.249157
H23   H     H_    0.855959 0.626621 0.653013 0.275247
O12   O     O_3   0.257953 0.210725 0.350468 -0.610122
C47   C     C_3   0.132145 0.175215 0.315058 0.173486
H24   H     H_    0.110337 0.140890 0.375114 0.122340
H25   H     H_    0.107429 0.118794 0.256302 0.218129
C48   C     C_3   0.051516 0.268002 0.268479 -0.919617
H26   H     H_    0.073497 0.328730 0.323179 0.236531
H27   H     H_    0.068007 0.302723 0.205996 0.253850
H28   H     H_    0.952024 0.241370 0.240819 0.223150
O13   O     O_3   0.222218 0.978034 0.355104 -0.627799
C49   C     C_3   0.170344 0.933741 0.417707 0.093561
H29   H     H_    0.176293 0.989840 0.472484 0.098942
H30   H     H_    0.218296 0.862409 0.458191 0.202326
C50   C     C_3   0.034014 0.902253 0.356468 -0.808965
H31   H     H_    0.024331 0.843589 0.302931 0.282118
H32   H     H_    0.992928 0.867679 0.405240 0.206416
H33   H     H_    0.982603 0.972030 0.315988 0.235683
O14   O     O_3   0.783585 0.021907 0.621837 -0.622502
C51   C     C_3   0.819498 0.093468 0.561509 0.101373
H34   H     H_    0.869615 0.162641 0.605179 0.209393
H35   H     H_    0.740999 0.123851 0.493996 0.172286
C52   C     C_3   0.907760 0.045413 0.530861 -0.939167
H36   H     H_    0.861386 0.975680 0.486573 0.243796
H37   H     H_    0.934836 0.103822 0.485084 0.227047
H38   H     H_    0.993199 0.023171 0.596501 0.261187
O15   O     O_3   0.766317 0.627710 0.405138 -0.609124
C53   C     C_3   0.725556 0.617498 0.303084 0.123024
H39   H     H_    0.636018 0.572139 0.271691 0.217656
H40   H     H_    0.789389 0.577119 0.283699 0.130600
C54   C     C_3   0.703634 0.725826 0.251697 -0.875251
H41   H     H_    0.790769 0.776301 0.279948 0.252264
H42   H     H_    0.669834 0.718389 0.171557 0.230446
H43   H     H_    0.632807 0.763826 0.264445 0.270148
O16   O     O_3   0.235528 0.377781 0.600421 -0.529318
C55   C     C_3   0.196745 0.276491 0.562426 0.058454
H44   H     H_    0.199588 0.273486 0.491213 0.176368
H45   H     H_    0.100744 0.251911 0.550540 0.114855
C56   C     C_3   0.283125 0.197193 0.634477 -0.778958
H46   H     H_    0.276452 0.195357 0.704999 0.260686
H47   H     H_    0.256659 0.117746 0.604071 0.186017
H48   H     H_    0.380552 0.219043 0.648409 0.250260

loop_
_geom_bond_atom_site_label_1
_geom_bond_atom_site_label_2
_ccdc_geom_bond_type
C41   H10   S    
C46   H21   S    
C8    C13   A    
C5    C37   A    
C1    C8    S    
O10   C43   S    
C2    C7    S    
C45   C46   S    
C56   H47   S    
C48   H28   S    
O16   C55   S    
C44   H16   S    
C27   C33   A    
C43   H15   S    
C17   C26   A    
C35   C37   A    
C9    C16   A    
C45   H20   S    
O5    Zn1   S    
C10   C15   A    
C8    C11   A    
C44   H18   S    
C41   C42   S    
C19   F2    S    
C15   C16   A    
C51   H34   S    
C30   C38   A    
C20   F1    S    
C42   H12   S    
C1    O3    A    
C47   H24   S    
C21   C25   A    
O2    Zn2   S    
C17   C19   A    
C7    C14   A    
O11   C45   S    
C53   H40   S    
C43   C44   S    
C3    F5    S    
O14   C51   S    
C6    C38   A    
C23   C27   S    
C52   H38   S    
C50   H31   S    
C18   C20   A    
C44   H17   S    
C41   H9    S    
C28   C34   A    
C9    O13   S    
C10   O14   S    
C18   C25   A    
C10   C12   A    
C49   H30   S    
C21   N2    A    
O3    Zn2   S    
O4    Zn1   S    
C54   H42   S    
C7    C12   A    
C43   H14   S    
C27   C31   A    
C53   C54   S    
C36   C40   A    
C45   H19   S    
C50   H32   S    
C2    O4    A    
O12   C47   S    
O7    Zn2   S    
O8    Zn1   S    
C49   C50   S    
O6    Zn2   S    
C12   O11   S    
C29   H5    S    
C21   O16   S    
C42   H13   S    
C35   C39   A    
C17   H3    S    
C20   N1    A    
C18   H4    S    
C9    C11   A    
O13   C49   S    
C4    C39   A    
C28   C32   A    
C47   H25   S    
C52   H37   S    
C1    O1    A    
C2    O2    A    
C55   C56   S    
C4    C6    A    
C22   O15   S    
C3    C40   A    
C13   C15   A    
C6    H2    S    
C14   C16   A    
O1    Zn1   S    
C56   H46   S    
C39   C40   A    
C55   H45   S    
C54   H43   S    
C22   N1    A    
C23   O7    A    
C5    H1    S    
C52   H36   S    
C30   H6    S    
C24   C28   S    
C3    C5    A    
C13   H8    S    
C54   H41   S    
C48   H27   S    
C23   O5    A    
C14   H7    S    
C24   O6    A    
N1    Zn1   S    
C51   C52   S    
N2    Zn2   S    
C46   H22   S    
C25   C26   A    
C56   H48   S    
C29   C31   A    
C30   C32   A    
C19   N2    A    
C33   F4    S    
C36   C38   A    
C34   F3    S    
C33   C35   A    
C51   H35   S    
C53   H39   S    
C50   H33   S    
C34   C36   A    
C47   C48   S    
C42   H11   S    
C31   O10   S    
C11   O12   S    
C4    F6    S    
C24   O8    A    
O9    C41   S    
C22   C26   A    
C46   H23   S    
C29   C37   A    
C48   H26   S    
C32   O9    S    
C49   H29   S    
O15   C53   S    
C55   H44   S    
