data_mof_unit_40982.cif
_audit_creation_date              2012-10-26T19:08:03-0400
_audit_creation_method            fapswitch 2.2
_symmetry_space_group_name_H-M    P1
_symmetry_Int_Tables_number       1
_space_group_crystal_system       triclinic
_cell_length_a                    14.991333
_cell_length_b                    13.694667
_cell_length_c                    19.353628
_cell_angle_alpha                 90.112221
_cell_angle_beta                  90.22388
_cell_angle_gamma                 90.39675
_cell_volume                      3973.19182048

loop_
_atom_site_label
_atom_site_type_symbol
_atom_type_description
_atom_site_fract_x
_atom_site_fract_y
_atom_site_fract_z
_atom_type_partial_charge
C1    C     C_R   0.328774 0.499803 0.501062 0.582666
C2    C     C_R   0.092836 0.483859 0.565253 -0.018207
C3    C     C_R   0.950801 0.459187 0.623808 0.263305
C4    C     C_R   0.049127 0.589479 0.389981 0.279001
C5    C     C_R   0.044136 0.464556 0.626274 0.261211
C6    C     C_R   0.955579 0.589947 0.388668 0.290295
C7    C     C_R   0.452368 0.793126 0.548862 0.035268
C8    C     C_R   0.547309 0.206904 0.450857 0.034630
C9    C     C_R   0.547947 0.793499 0.451222 0.034328
C10   C     C_R   0.453603 0.206279 0.549475 0.027422
C11   C     C_R   0.548907 0.896556 0.449878 -0.016971
C12   C     C_R   0.671111 0.500429 0.499489 0.573157
C13   C     C_R   0.452374 0.103265 0.550562 -0.016137
C14   C     C_R   0.451751 0.896133 0.550255 -0.015205
C15   C     C_R   0.548618 0.103808 0.449711 -0.016020
C16   C     C_R   0.500302 0.948128 0.500030 0.053888
C17   C     C_R   0.500353 0.051749 0.500046 0.054532
C18   C     C_R   0.597169 0.949052 0.399875 -0.145944
C19   C     C_R   0.404631 0.050761 0.600827 -0.147623
C20   C     C_R   0.404089 0.948152 0.600560 -0.144748
C21   C     C_R   0.596911 0.051740 0.399733 -0.146516
C22   C     C_R   0.499420 0.499889 0.367372 0.557376
C23   C     C_R   0.812447 0.478181 0.559673 -0.163817
C24   C     C_R   0.499372 0.500017 0.632629 0.567986
C25   C     C_R   0.492473 0.587496 0.254978 -0.143188
C26   C     C_R   0.508899 0.412486 0.744733 -0.143261
C27   C     C_R   0.481131 0.586192 0.744986 -0.133602
C28   C     C_R   0.502418 0.411114 0.255135 -0.150387
C29   C     C_R   0.493676 0.587869 0.182795 0.217712
C30   C     C_R   0.505522 0.410832 0.816774 0.217056
C31   C     C_R   0.476533 0.586089 0.817290 0.221641
C32   C     C_R   0.499647 0.409918 0.182898 0.217101
C33   C     C_R   0.496233 0.498701 0.146234 0.041059
C34   C     C_R   0.187140 0.538058 0.445732 -0.172173
C35   C     C_R   0.491517 0.498396 0.853894 0.041500
C36   C     C_R   0.497884 0.499503 0.291510 -0.079289
C37   C     C_R   0.496616 0.499686 0.708472 -0.067305
C38   C     C_R   0.492431 0.498151 0.930213 0.357870
C39   C     C_R   0.494797 0.498324 0.070233 0.357540
C40   C     C_R   0.813431 0.535030 0.440671 0.245516
C41   C     C_R   0.186342 0.472000 0.562303 0.246471
C42   C     C_R   0.767452 0.502463 0.499284 -0.018963
C43   C     C_R   0.232217 0.500656 0.502651 -0.014830
C44   C     C_3   0.577025 0.715530 0.144770 -0.006451
C45   C     C_R   0.905267 0.484202 0.562758 -0.022346
C46   C     C_3   0.575169 0.808280 0.101736 -0.354491
C47   C     C_3   0.438487 0.272825 0.856122 -0.005545
C48   C     C_3   0.455590 0.172110 0.886130 -0.361071
C49   C     C_3   0.378816 0.707556 0.843275 0.002047
C50   C     C_3   0.363865 0.794216 0.891013 -0.355610
C51   C     C_3   0.418017 0.276570 0.151407 -0.001161
C52   C     C_3   0.416525 0.187947 0.103992 -0.362654
C53   C     C_3   0.755799 0.468716 0.341914 0.015714
C54   C     C_3   0.735301 0.494672 0.267133 -0.358681
C55   C     C_3   0.231018 0.334749 0.618421 0.033025
C56   C     C_R   0.094613 0.548096 0.446651 -0.033274
C57   C     C_3   0.273997 0.297554 0.684523 -0.373034
C58   C     C_3   0.898733 0.333170 0.688562 -0.011391
C59   C     C_3   0.839468 0.306677 0.749396 -0.355706
C60   C     C_3   0.129133 0.719529 0.347840 -0.006325
C61   C     C_3   0.134795 0.777396 0.280983 -0.357883
C62   C     C_3   0.099100 0.538240 0.722634 0.036275
C63   C     C_3   0.157997 0.523651 0.785915 -0.369845
C64   C     C_3   0.885031 0.723673 0.345156 0.033657
C65   C     C_3   0.825303 0.758848 0.286674 -0.364945
C66   C     C_R   0.953015 0.517112 0.504242 -0.094570
C67   C     C_R   0.046808 0.516800 0.505506 -0.093089
C68   C     C_R   0.906918 0.547812 0.443929 -0.019849
Cu1   Cu    Cu3+1 0.500000 0.597420 0.500000 0.954133
Cu2   Cu    Cu3+1 0.500000 0.402580 0.500000 0.931054
H1    H     H_    0.488793 0.656559 0.282182 0.146700
H2    H     H_    0.417819 0.246752 0.588287 0.115872
H3    H     H_    0.635028 0.910722 0.360847 0.099954
H4    H     H_    0.367700 0.088936 0.640350 0.096971
H5    H     H_    0.366580 0.909511 0.639803 0.098314
H6    H     H_    0.634541 0.090404 0.360578 0.103610
H7    H     H_    0.623932 0.663487 0.119804 0.133994
H8    H     H_    0.602203 0.734493 0.197390 0.111939
H9    H     H_    0.530004 0.862473 0.125775 0.153153
H10   H     H_    0.643330 0.840211 0.098693 0.093753
H11   H     H_    0.551134 0.791416 0.048634 0.182656
H12   H     H_    0.521522 0.344902 0.717367 0.144529
H13   H     H_    0.405763 0.262829 0.804756 0.108884
H14   H     H_    0.392547 0.312610 0.891257 0.130969
H15   H     H_    0.490884 0.178854 0.936453 0.174241
H16   H     H_    0.391267 0.133093 0.894056 0.082843
H17   H     H_    0.497358 0.128997 0.850105 0.156916
H18   H     H_    0.328728 0.649938 0.856344 0.131001
H19   H     H_    0.367843 0.732209 0.789177 0.111860
H20   H     H_    0.411712 0.853876 0.878588 0.152305
H21   H     H_    0.294845 0.821678 0.884359 0.085133
H22   H     H_    0.373532 0.771861 0.945662 0.187679
H23   H     H_    0.473266 0.654434 0.717512 0.136899
H24   H     H_    0.364258 0.326999 0.134091 0.131754
H25   H     H_    0.403897 0.251552 0.204982 0.125938
H26   H     H_    0.469455 0.135929 0.119478 0.159623
H27   H     H_    0.350678 0.150631 0.107216 0.090696
H28   H     H_    0.427829 0.211321 0.049844 0.163433
H29   H     H_    0.699147 0.425141 0.362723 0.132597
H30   H     H_    0.817068 0.422793 0.342122 0.128537
H31   H     H_    0.794683 0.529021 0.242875 0.186034
H32   H     H_    0.717175 0.427662 0.237731 0.111128
H33   H     H_    0.679068 0.546697 0.264610 0.146874
H34   H     H_    0.507612 0.342470 0.282529 0.139563
H35   H     H_    0.267789 0.304900 0.573423 0.129184
H36   H     H_    0.161236 0.306326 0.616464 0.138098
H37   H     H_    0.236528 0.324041 0.730141 0.173403
H38   H     H_    0.273212 0.216568 0.684843 0.069190
H39   H     H_    0.343985 0.323997 0.688138 0.144326
H40   H     H_    0.966036 0.301707 0.697746 0.160160
H41   H     H_    0.869054 0.299749 0.641090 0.113733
H42   H     H_    0.771381 0.336145 0.741224 0.170321
H43   H     H_    0.834981 0.226037 0.754452 0.098709
H44   H     H_    0.867803 0.337707 0.797863 0.172143
H45   H     H_    0.774256 0.454878 0.604253 0.159078
H46   H     H_    0.197459 0.714227 0.369736 0.133840
H47   H     H_    0.087746 0.761623 0.385118 0.095832
H48   H     H_    0.067392 0.784505 0.257590 0.160738
H49   H     H_    0.162192 0.851470 0.291666 0.091021
H50   H     H_    0.179211 0.739695 0.243838 0.172749
H51   H     H_    0.033683 0.567392 0.739878 0.153804
H52   H     H_    0.132497 0.593063 0.688705 0.128264
H53   H     H_    0.225361 0.499284 0.769910 0.164500
H54   H     H_    0.164858 0.593578 0.814654 0.079987
H55   H     H_    0.127910 0.467940 0.820511 0.157807
H56   H     H_    0.225245 0.557863 0.400387 0.148625
H57   H     H_    0.943284 0.773796 0.348669 0.108422
H58   H     H_    0.846547 0.728552 0.394186 0.141895
H59   H     H_    0.764085 0.712975 0.283503 0.167695
H60   H     H_    0.805542 0.835684 0.296251 0.079048
H61   H     H_    0.861442 0.754845 0.236772 0.152844
H62   H     H_    0.414891 0.752150 0.586863 0.118532
H63   H     H_    0.584327 0.247942 0.412619 0.113444
H64   H     H_    0.585516 0.752802 0.413308 0.130105
N1    N     N_R   0.443261 0.562413 0.035056 -0.191488
N2    N     N_R   0.543941 0.434040 0.965521 -0.174726
N3    N     N_R   0.442041 0.562199 0.966373 -0.211821
N4    N     N_R   0.545026 0.434014 0.034225 -0.184932
N5    N     N_R   0.500000 0.743810 0.500000 -0.241220
N6    N     N_R   0.500000 0.256190 0.500000 -0.238570
O1    O     O_R   0.370260 0.582280 0.500020 -0.505717
O2    O     O_3   0.520422 0.323524 0.850439 -0.533080
O3    O     O_3   0.466799 0.673443 0.852495 -0.535029
O4    O     O_3   0.502802 0.321841 0.147943 -0.538893
O5    O     O_3   0.766380 0.555608 0.380784 -0.541467
O6    O     O_3   0.234290 0.437924 0.618474 -0.534567
O7    O     O_3   0.903855 0.435832 0.683006 -0.552951
O8    O     O_3   0.094833 0.625036 0.333122 -0.533094
O9    O     O_3   0.086936 0.447819 0.688533 -0.531760
O10   O     O_3   0.913014 0.627255 0.330916 -0.501587
O11   O     O_R   0.629740 0.417720 0.499980 -0.516307
O12   O     O_R   0.629740 0.582280 0.499980 -0.474759
O13   O     O_R   0.370260 0.417720 0.500020 -0.495732
O14   O     O_R   0.499990 0.582300 0.400140 -0.504087
O15   O     O_R   0.500010 0.417700 0.599860 -0.507240
O16   O     O_R   0.500010 0.582300 0.599860 -0.505516
O17   O     O_R   0.499990 0.417700 0.400140 -0.514794
O18   O     O_3   0.489984 0.675835 0.148063 -0.536845

loop_
_geom_bond_atom_site_label_1
_geom_bond_atom_site_label_2
_ccdc_geom_bond_type
Cu1   N5    S    
C66   C68   A    
C11   C18   A    
Cu2   N6    S    
C23   C45   A    
C62   O9    S    
C61   H49   S    
C18   C21   A    
C44   O18   S    
C12   O12   A    
C54   H31   S    
C19   C20   A    
C12   O11   A    
C65   H60   S    
C39   N1    A    
C53   C54   S    
C53   H29   S    
C34   C56   A    
C21   H6    S    
C33   C39   S    
C23   C42   A    
C40   O5    S    
C55   H35   S    
C44   H7    S    
C46   H9    S    
C2    C41   A    
Cu1   O1    S    
C4    O8    S    
C29   C33   A    
C52   H27   S    
C5    O9    S    
N1    N3    A    
C12   C42   S    
C50   H20   S    
C7    C14   A    
C57   H39   S    
C41   O6    S    
C44   C46   S    
C16   C17   A    
C64   H58   S    
C25   H1    S    
C47   H13   S    
C24   O15   A    
C34   H56   S    
C9    H64   S    
C40   C42   A    
C66   C67   A    
C61   H48   S    
C39   N4    A    
C26   H12   S    
C4    C56   A    
C61   H50   S    
C41   C43   A    
C49   H18   S    
C10   N6    A    
C65   H61   S    
C1    C43   S    
C59   H42   S    
C53   H30   S    
C25   C29   A    
Cu1   O16   S    
C13   C19   A    
C55   H36   S    
C27   C31   A    
C51   C52   S    
C14   C20   A    
C54   H33   S    
C28   C32   A    
C35   C38   S    
C1    O1    A    
C4    C6    A    
C2    C67   A    
C58   O7    S    
C55   O6    S    
C25   C36   A    
C58   C59   S    
C51   O4    S    
C3    C45   A    
Cu2   O15   S    
C20   H5    S    
C64   O10   S    
C60   C61   S    
C62   C63   S    
C46   H11   S    
C11   C16   A    
C28   H34   S    
C65   H59   S    
C47   C48   S    
C47   O2    S    
C59   H43   S    
C64   H57   S    
C6    C68   A    
C53   O5    S    
C24   C37   S    
C48   H17   S    
C60   H47   S    
C47   H14   S    
C1    O13   A    
C9    C11   A    
C7    H62   S    
C63   H55   S    
C30   C35   A    
N2    N4    A    
C57   H37   S    
Cu2   O13   S    
C26   C30   A    
C8    C15   A    
C38   N2    A    
C55   C57   S    
C14   C16   A    
C27   H23   S    
C2    C5    A    
C7    N5    A    
C62   H52   S    
C22   O14   A    
C50   H22   S    
C15   C17   A    
C8    H63   S    
C58   H40   S    
Cu1   O12   S    
C54   H32   S    
C19   H4    S    
C34   C43   A    
C49   H19   S    
C3    C5    A    
C10   C13   A    
C63   H53   S    
C58   H41   S    
C26   C37   A    
C29   O18   S    
C22   O17   A    
C18   H3    S    
C56   C67   A    
C22   C36   S    
Cu1   O14   S    
C30   O2    S    
C13   C17   A    
C8    N6    A    
Cu2   O17   S    
C64   C65   S    
C44   H8    S    
C3    O7    S    
C32   C33   A    
C63   H54   S    
C46   H10   S    
C9    N5    A    
C27   C37   A    
C59   H44   S    
C49   O3    S    
C31   C35   A    
C52   H28   S    
C38   N3    A    
C52   H26   S    
C48   H16   S    
C31   O3    S    
Cu1   Cu2   S    
C32   O4    S    
C60   H46   S    
C51   H24   S    
C23   H45   S    
C6    O10   S    
C50   H21   S    
C15   C21   A    
C57   H38   S    
C28   C36   A    
C49   C50   S    
C40   C68   A    
C45   C66   A    
C48   H15   S    
C60   O8    S    
Cu2   O11   S    
C62   H51   S    
C24   O16   A    
C51   H25   S    
C10   H2    S    
