data_mof_unit_6055.cif
_audit_creation_date              2012-12-11T15:47:05-0500
_audit_creation_method            fapswitch 2.2
_symmetry_space_group_name_H-M    P1
_symmetry_Int_Tables_number       1
_space_group_crystal_system       triclinic
_cell_length_a                    20.169568
_cell_length_b                    7.246707
_cell_length_c                    13.568493
_cell_angle_alpha                 90.520042
_cell_angle_beta                  102.858231
_cell_angle_gamma                 89.620563
_cell_volume                      1933.37814979

loop_
_atom_site_label
_atom_site_type_symbol
_atom_type_description
_atom_site_fract_x
_atom_site_fract_y
_atom_site_fract_z
_atom_type_partial_charge
O1    O     O_R   0.449560 0.506810 0.599700 -0.534656
O2    O     O_R   0.550440 0.006810 0.400300 -0.535099
O3    O     O_R   0.587960 0.180060 0.595760 -0.539774
O4    O     O_R   0.412040 0.680060 0.404240 -0.540149
C1    C     C_R   0.614307 0.343652 0.619254 0.713288
C2    C     C_R   0.385507 0.843255 0.381089 0.713917
O5    O     O_R   0.452380 0.177430 0.611700 -0.540666
O6    O     O_R   0.547620 0.677430 0.388300 -0.539652
O7    O     O_R   0.413900 0.001890 0.416350 -0.542783
O8    O     O_R   0.586100 0.501890 0.583650 -0.542360
C3    C     C_R   0.436661 0.346833 0.637987 0.703552
C4    C     C_R   0.563406 0.844649 0.361953 0.705984
O9    O     O_3   0.487530 0.337490 0.435890 -0.379490
O10   O     O_3   0.512470 0.837490 0.564110 -0.380027
V1    V     V_3+5 0.502310 0.064660 0.511890 1.408903
V2    V     V_3+5 0.497690 0.564660 0.488110 1.408625
C5    C     C_R   0.610192 0.806512 0.108461 -0.158299
C6    C     C_R   0.389385 0.433002 0.888199 -0.157426
H1    H     H_    0.694534 0.780373 0.985224 0.123359
H2    H     H_    0.304847 0.475383 0.010322 0.127074
H3    H     H_    0.585899 0.783854 0.029587 0.117407
H4    H     H_    0.413421 0.469847 0.965503 0.117750
C7    C     C_R   0.602112 0.847686 0.282552 -0.038657
C8    C     C_R   0.397910 0.360451 0.717087 -0.038244
C9    C     C_R   0.930050 0.892556 0.316042 -0.159125
C10   C     C_R   0.070321 0.311028 0.686030 -0.156666
C11   C     C_R   0.893950 0.901271 0.391990 -0.100237
C12   C     C_R   0.106605 0.288008 0.610939 -0.102540
C13   C     C_R   0.823319 0.886683 0.368623 -0.144210
C14   C     C_R   0.177143 0.305611 0.633542 -0.147000
C15   C     C_R   0.786659 0.861758 0.267415 0.079752
C16   C     C_R   0.213530 0.347955 0.733066 0.079038
C17   C     C_R   0.824276 0.848467 0.190129 0.064637
C18   C     C_R   0.175743 0.374655 0.809345 0.064721
C19   C     C_R   0.714086 0.850144 0.240242 0.073416
C20   C     C_R   0.285978 0.364660 0.759498 0.073338
C21   C     C_R   0.681221 0.821036 0.137327 0.103768
C22   C     C_R   0.318535 0.411800 0.860464 0.102678
C23   C     C_R   0.719335 0.805199 0.063525 -0.192203
C24   C     C_R   0.280272 0.438695 0.933378 -0.194122
C25   C     C_R   0.789583 0.820360 0.089071 -0.198380
C26   C     C_R   0.210156 0.419170 0.908648 -0.189660
C27   C     C_R   0.672843 0.865185 0.311613 -0.256939
C28   C     C_R   0.327382 0.337278 0.689188 -0.255427
C29   C     C_R   0.570243 0.817935 0.180397 0.157575
C30   C     C_R   0.429457 0.409596 0.817014 0.154674
C31   C     C_R   0.896029 0.865606 0.215472 -0.074095
C32   C     C_R   0.104086 0.354650 0.784866 -0.074061
H5    H     H_    0.694008 0.886619 0.391040 0.113353
H6    H     H_    0.306484 0.300919 0.611343 0.111854
H7    H     H_    0.984857 0.907594 0.335678 0.127099
H8    H     H_    0.015590 0.294064 0.667124 0.125521
H9    H     H_    0.799192 0.895507 0.431750 0.134989
H10   H     H_    0.201404 0.285397 0.571150 0.135747
H11   H     H_    0.920889 0.921236 0.469758 0.144977
H12   H     H_    0.079879 0.254872 0.534484 0.145856
H13   H     H_    0.816493 0.808724 0.028569 0.126769
H14   H     H_    0.183047 0.440319 0.968277 0.118358
C33   C     C_R   0.208891 0.010476 0.253609 0.269035
C34   C     C_R   0.792570 0.503408 0.742374 0.269816
C35   C     C_R   0.275176 0.001988 0.312642 -0.222476
C36   C     C_R   0.726263 0.496049 0.683134 -0.218972
H15   H     H_    0.293768 0.117612 0.362016 0.155670
H16   H     H_    0.709070 0.605870 0.629696 0.157483
C37   C     C_R   0.316477 0.845656 0.312058 -0.105418
C38   C     C_R   0.683075 0.347443 0.688935 -0.107452
C39   C     C_R   0.289357 0.692832 0.248921 0.166022
C40   C     C_R   0.707831 0.202991 0.758341 0.166198
C41   C     C_R   0.223366 0.704257 0.188086 -0.155536
C42   C     C_R   0.774176 0.212459 0.818598 -0.153863
H17   H     H_    0.203810 0.588914 0.139149 0.151820
H18   H     H_    0.792161 0.103312 0.872196 0.145953
C43   C     C_R   0.182365 0.860954 0.188641 -0.129152
C44   C     C_R   0.817321 0.360718 0.812138 -0.131905
O11   O     O_R   0.913920 0.203370 0.916260 -0.539972
O12   O     O_R   0.086080 0.703370 0.083740 -0.541152
O13   O     O_R   0.047620 0.535540 0.888290 -0.535637
O14   O     O_R   0.952380 0.035540 0.111710 -0.536610
C45   C     C_R   0.063895 0.367276 0.862394 0.682185
C46   C     C_R   0.936060 0.869308 0.137635 0.677448
O15   O     O_R   0.912040 0.532780 0.904220 -0.517286
O16   O     O_R   0.087960 0.032780 0.095780 -0.514774
O17   O     O_R   0.949550 0.708160 0.099720 -0.539170
O18   O     O_R   0.050450 0.208160 0.900280 -0.538322
C47   C     C_R   0.886131 0.365336 0.881221 0.716706
C48   C     C_R   0.113790 0.865454 0.119007 0.716959
O19   O     O_3   0.012480 0.375300 0.064060 -0.363086
O20   O     O_3   0.987520 0.875300 0.935940 -0.364460
V3    V     V_3+5 0.997690 0.648180 0.988110 1.515781
V4    V     V_3+5 0.002310 0.148180 0.011890 1.519658
C49   C     C_3   0.494240 0.796740 0.147705 -0.807045
H19   H     H_    0.477365 0.779749 0.064439 0.210472
H20   H     H_    0.478222 0.672987 0.183722 0.202564
H21   H     H_    0.468562 0.920670 0.170744 0.203490
C50   C     C_3   0.505260 0.437471 0.848177 -0.802123
H22   H     H_    0.521761 0.473382 0.929709 0.210516
H23   H     H_    0.531938 0.308795 0.834079 0.196666
H24   H     H_    0.520653 0.551270 0.803895 0.210289
C51   C     C_3   0.328463 0.515855 0.243251 -0.703646
H25   H     H_    0.377810 0.545993 0.223797 0.187564
H26   H     H_    0.336617 0.441934 0.316256 0.226041
H27   H     H_    0.300494 0.419301 0.184789 0.191112
C52   C     C_3   0.665144 0.038766 0.771925 -0.708671
H28   H     H_    0.615629 0.085417 0.786364 0.188573
H29   H     H_    0.657017 0.948334 0.703890 0.225140
H30   H     H_    0.690408 0.953054 0.836932 0.184378
Br1   Br    Br    0.157555 0.227525 0.272977 -0.592511
Br2   Br    Br    0.846710 0.708121 0.717321 -0.584330

loop_
_geom_bond_atom_site_label_1
_geom_bond_atom_site_label_2
_ccdc_geom_bond_type
C38   C40   A    
C7    C29   A    
C11   C13   A    
C50   H22   S    
O1    C3    A    
C40   C52   S    
O2    C4    A    
C26   H14   S    
C2    O7    A    
C12   H12   S    
C50   H24   S    
C23   C25   A    
O14   V4    S    
O5    C3    A    
C14   H10   S    
C4    C7    S    
O13   V3    S    
C16   C20   A    
C32   C45   S    
C19   C21   A    
C5    C29   A    
C45   O18   A    
H2    C24   S    
C11   H11   S    
C3    C8    S    
C7    C27   A    
C34   C36   A    
C35   H15   S    
C36   H16   S    
O11   V4    S    
O19   V4    S    
O11   C47   A    
C2    C37   S    
C30   C50   S    
C37   C39   A    
C18   C26   A    
C42   C44   A    
C15   C17   A    
C41   C43   A    
C19   C27   A    
C9    C31   A    
C34   Br2   S    
C10   C32   A    
O12   V3    S    
O15   V3    S    
C24   C26   A    
O6    V2    S    
C22   C24   A    
O18   V4    S    
C31   C46   S    
C46   O17   A    
C6    C30   A    
O13   C45   A    
O17   V3    S    
C33   C35   A    
C41   H17   S    
C36   C38   A    
O4    C2    A    
C49   H19   S    
C27   H5    S    
O5    V1    S    
O16   C48   A    
C33   Br1   S    
C39   C41   A    
C16   C18   A    
O4    V2    S    
C9    H7    S    
C10   H8    S    
C49   H20   S    
C51   H25   S    
O6    C4    A    
C52   H29   S    
O1    V2    S    
C5    C21   A    
O2    V1    S    
H1    C23   S    
C40   C42   A    
C51   H26   S    
C17   C31   A    
C15   C19   A    
C20   C28   A    
C18   C32   A    
O12   C48   A    
O3    V1    S    
C28   H6    S    
C33   C43   A    
C6    H4    S    
C1    C38   S    
O3    C1    A    
C50   H23   S    
C39   C51   S    
C9    C11   A    
C10   C12   A    
O16   V4    S    
C17   C25   A    
C20   C22   A    
C6    C22   A    
C8    C30   A    
C12   C14   A    
C13   C15   A    
O8    V2    S    
C49   H21   S    
C14   C16   A    
C13   H9    S    
C8    C28   A    
C34   C44   A    
C52   H30   S    
O14   C46   A    
C44   C47   S    
O7    V1    S    
C29   C49   S    
C5    H3    S    
C43   C48   S    
C25   H13   S    
C35   C37   A    
C1    O8    A    
C51   H27   S    
O20   V3    S    
C21   C23   A    
O9    V2    S    
C52   H28   S    
O10   V1    S    
C42   H18   S    
O15   C47   A    
