data_mof_unit_6796.cif
_audit_creation_date              2013-03-05T15:56:44-0500
_audit_creation_method            fapswitch 2.2
_symmetry_space_group_name_H-M    P1
_symmetry_Int_Tables_number       1
_space_group_crystal_system       triclinic
_cell_length_a                    8.370106
_cell_length_b                    16.726569
_cell_length_c                    19.016024
_cell_angle_alpha                 100.738626
_cell_angle_beta                  91.350259
_cell_angle_gamma                 93.721729
_cell_volume                      2608.43621884

loop_
_atom_site_label
_atom_site_type_symbol
_atom_site_description
_atom_site_fract_x
_atom_site_fract_y
_atom_site_fract_z
_atom_type_partial_charge
P1    P     P_3+3 0.056550 0.421630 0.336220 0.503781
O1    O     O_2   0.884010 0.444810 0.325060 -0.350987
O2    O     O_3   0.132090 0.451130 0.414310 -0.369005
O3    O     O_3   0.640770 0.594650 0.368950 -0.412695
O4    O     O_2   0.792700 0.546998 0.251551 -0.408954
O5    O     O_3   0.999070 0.317435 0.322020 -0.565154
O6    O     O_3   0.637398 0.677783 0.253051 -0.559310
H1    H     H_    0.781818 0.723669 0.342803 0.185665
C1    C     C_3   0.692799 0.821501 0.298019 -0.879986
H2    H     H_    0.720107 0.867022 0.348045 0.240827
H3    H     H_    0.792897 0.825071 0.261465 0.294737
P2    P     P_3+3 0.635450 0.689180 0.556380 0.469786
P3    P     P_3+3 0.096760 0.743094 0.404560 0.468037
O7    O     O_2   0.808690 0.699720 0.534830 -0.356333
O8    O     O_3   0.053760 0.638480 0.405010 -0.357501
O9    O     O_2   0.961435 0.786709 0.446980 -0.369566
O10   O     O_3   0.669219 0.720392 0.649010 -0.582870
O11   O     O_3   0.060174 0.762181 0.317644 -0.536396
C2    C     C_3   0.105564 0.697476 0.264595 0.580414
H4    H     H_    0.064308 0.637231 0.276781 0.142619
C3    C     C_3   0.025003 0.702019 0.191788 -0.684186
H5    H     H_    0.046387 0.645761 0.152658 0.163349
H6    H     H_    0.894170 0.703132 0.197018 0.202390
C4    C     C_3   0.178668 0.753572 0.678185 0.434870
C5    C     C_3   0.115447 0.834660 0.722985 -0.310405
H7    H     H_    0.983986 0.831918 0.711732 0.169793
Ba1   Ba    Ba6+2 0.845660 0.536000 0.465120 1.589032
C6    C     C_3   0.100370 0.273884 0.357471 0.258760
H8    H     H_    0.066396 0.281530 0.414449 0.098911
H9    H     H_    0.227052 0.295549 0.354723 0.097933
C7    C     C_3   0.074808 0.183782 0.320114 -0.605460
H10   H     H_    0.947393 0.171407 0.300687 0.181147
C8    C     C_3   0.706064 0.657702 0.684951 0.287294
H11   H     H_    0.813806 0.628930 0.662843 0.080062
H12   H     H_    0.604097 0.611062 0.680587 0.152017
C9    C     C_3   0.738573 0.699860 0.763453 -0.631209
H13   H     H_    0.847331 0.740808 0.766166 0.192036
H14   H     H_    0.641243 0.739830 0.781334 0.217723
P4    P     P_3+3 0.133150 0.578440 0.663790 0.516347
O12   O     O_2   0.305690 0.555220 0.674980 -0.340114
O13   O     O_3   0.057610 0.548940 0.585700 -0.380589
O14   O     O_3   0.548930 0.405410 0.631060 -0.392182
O15   O     O_3   0.113281 0.684385 0.705210 -0.604393
P5    P     P_3+3 0.113832 0.255631 0.591040 0.472127
O16   O     O_3   0.631040 0.400420 0.463490 -0.396471
O17   O     O_3   0.135930 0.361590 0.595000 -0.353631
O18   O     O_2   0.243796 0.217947 0.541742 -0.351343
O19   O     O_3   0.174704 0.233931 0.673887 -0.518278
Ba2   Ba    Ba6+2 0.344160 0.464070 0.534880 1.596080
P6    P     P_3+3 0.629485 0.579681 0.274430 0.413849
C10   C     C_3   0.671256 0.736511 0.315824 0.436614
H15   H     H_    0.572726 0.736512 0.353582 0.061922
H16   H     H_    0.582035 0.837021 0.272034 0.248412
O20   O     O_3   0.558660 0.599640 0.536520 -0.414429
C11   C     C_3   0.556815 0.316520 0.307401 0.448059
H17   H     H_    0.437898 0.340177 0.301764 0.055679
H18   H     H_    0.645421 0.366464 0.330526 0.173596
C12   C     C_3   0.608077 0.280548 0.232644 -0.955350
H19   H     H_    0.519439 0.231000 0.206722 0.272485
H20   H     H_    0.615299 0.328755 0.199558 0.207665
H21   H     H_    0.727222 0.255512 0.235511 0.279058
P7    P     P_3+3 0.559722 0.296779 0.440972 0.495837
O21   O     O_2   0.381010 0.300300 0.465220 -0.343944
O22   O     O_3   0.546053 0.255348 0.348676 -0.543665
C13   C     C_3   0.043172 0.233362 0.718306 0.178318
H22   H     H_    0.006980 0.296618 0.735719 0.080448
H23   H     H_    0.939872 0.194832 0.689782 0.083664
C14   C     C_3   0.087028 0.195177 0.783429 -0.339358
H24   H     H_    0.096342 0.128717 0.763628 0.200498
P8    P     P_3+3 0.574598 0.404736 0.721456 0.499480
C15   C     C_3   0.583514 0.250551 0.678889 0.465027
H25   H     H_    0.714836 0.264493 0.677803 -0.032544
O23   O     O_2   0.446615 0.458763 0.758768 -0.312010
O24   O     O_3   0.515721 0.305800 0.732974 -0.490023
H26   H     H_    0.527078 0.252775 0.625916 0.134793
H27   H     H_    0.617498 0.121120 0.653417 0.204367
C16   C     C_3   0.553488 0.164181 0.692576 -0.871026
H28   H     H_    0.423536 0.145359 0.686919 0.280334
H29   H     H_    0.597355 0.160773 0.747283 0.272629
C17   C     C_R   0.020274 0.425065 0.037590 0.074750
C18   C     C_R   0.932479 0.387867 0.087080 -0.232631
C19   C     C_R   0.803479 0.397178 0.940857 -0.238167
C20   C     C_R   0.959530 0.427706 0.966066 0.045762
C21   C     C_R   0.746515 0.401987 0.872146 -0.130761
C22   C     C_R   0.840928 0.438266 0.824630 -0.000635
C23   C     C_R   0.995651 0.473392 0.848470 -0.024546
C24   C     C_R   0.055001 0.466419 0.919120 0.025522
C25   C     C_R   0.782730 0.442234 0.754819 0.195106
C26   C     C_R   0.880734 0.478612 0.708575 -0.506605
C27   C     C_R   0.029738 0.520246 0.730988 0.268711
C28   C     C_R   0.086474 0.520164 0.804354 -0.066501
C29   C     C_R   0.175866 0.460564 0.060732 0.040280
C30   C     C_R   0.234663 0.465835 0.133539 -0.027324
C31   C     C_R   0.131528 0.437800 0.184463 0.040528
C32   C     C_R   0.984889 0.396004 0.158936 -0.062798
H30   H     H_    0.834878 0.479170 0.655027 0.162209
H31   H     H_    0.625753 0.376954 0.857207 0.212507
H32   H     H_    0.908170 0.369422 0.194576 0.164407
C33   C     C_R   0.225109 0.566137 0.838866 -0.071764
C34   C     C_R   0.291050 0.548971 0.901908 -0.191803
C35   C     C_R   0.209852 0.499276 0.942871 0.073171
C36   C     C_R   0.273426 0.491237 0.011121 0.024051
C37   C     C_R   0.435177 0.511809 0.030064 -0.192499
C38   C     C_R   0.395130 0.500008 0.154903 -0.045008
C39   C     C_R   0.497002 0.517109 0.099571 0.252525
C40   C     C_R   0.443368 0.514143 0.229670 0.137506
C41   C     C_R   0.331514 0.490339 0.277398 -0.468996
C42   C     C_R   0.179166 0.452167 0.258696 0.105685
H33   H     H_    0.721036 0.369355 0.973380 0.159544
H34   H     H_    0.818483 0.354361 0.072543 0.139015
H35   H     H_    0.397186 0.586286 0.924304 0.147138
H36   H     H_    0.518309 0.521325 0.989287 0.152401
C43   C     C_R   0.395626 0.737988 0.474577 -0.505286
C44   C     C_R   0.535801 0.765944 0.513601 0.254943
C45   C     C_R   0.585626 0.850399 0.524274 -0.000596
C46   C     C_R   0.495368 0.903185 0.489459 0.124421
C47   C     C_R   0.349020 0.871333 0.451319 0.029986
C48   C     C_R   0.296855 0.788337 0.445817 0.293027
C49   C     C_R   0.623222 0.148003 0.482875 -0.211158
C50   C     C_R   0.669811 0.231241 0.489698 0.269454
C51   C     C_R   0.722977 0.095630 0.510922 0.181681
N1    N     N_2   0.537404 0.989233 0.497056 -0.060541
N2    N     N_2   0.684069 0.009856 0.502416 -0.066151
C52   C     C_R   0.814512 0.262740 0.525229 -0.478176
H37   H     H_    0.513819 0.123611 0.453164 0.202506
C53   C     C_R   0.916333 0.211625 0.551908 0.213907
C54   C     C_R   0.870917 0.128136 0.544486 -0.317414
H38   H     H_    0.950932 0.088326 0.564297 0.155793
H39   H     H_    0.357466 0.676382 0.473290 0.267445
H40   H     H_    0.851787 0.326615 0.528888 0.169657
C55   C     C_3   0.135583 0.843943 0.804518 -0.738074
H41   H     H_    0.071322 0.792539 0.823041 0.296623
H42   H     H_    0.263460 0.848685 0.822355 0.282473
H43   H     H_    0.081681 0.900272 0.831133 0.222820
C56   C     C_2   0.184350 0.912792 0.701587 1.087570
O25   O     O_2   0.325325 0.936083 0.714778 -0.638787
O26   O     O_R   0.083924 0.959539 0.668540 -0.796908
H44   H     H_    0.142649 0.010007 0.656620 0.315595
C57   C     C_2   0.102196 0.127478 0.371356 1.069958
O27   O     O_2   0.232691 0.129186 0.401855 -0.615982
O28   O     O_R   0.976680 0.073155 0.383649 -0.784660
H45   H     H_    0.006501 0.040003 0.420714 0.319362
C58   C     C_2   0.176980 0.166128 0.255220 1.069285
O29   O     O_2   0.159892 0.203514 0.206368 -0.637548
O30   O     O_R   0.289116 0.106952 0.250239 -0.749399
H46   H     H_    0.347727 0.100438 0.203685 0.327942
C59   C     C_2   0.757006 0.645345 0.816742 1.049185
O31   O     O_2   0.651741 0.593237 0.822268 -0.619066
O32   O     O_R   0.887971 0.660355 0.865233 -0.826731
H47   H     H_    0.880399 0.625291 0.903300 0.316393
C60   C     C_2   0.084322 0.775376 0.162001 1.159958
O33   O     O_2   0.064848 0.844124 0.194489 -0.606177
O34   O     O_R   0.161410 0.764243 0.096847 -0.797764
H48   H     H_    0.196073 0.817781 0.082139 0.333371
C61   C     C_2   0.245348 0.230317 0.820365 1.266261
O35   O     O_2   0.344622 0.184032 0.832910 -0.617312
O36   O     O_R   0.279805 0.314194 0.842485 -0.750556
H49   H     H_    0.193645 0.347436 0.827126 0.291634
C62   C     C_3   0.954591 0.203716 0.837721 -1.014248
H50   H     H_    0.839852 0.174194 0.812279 0.283849
H51   H     H_    0.985236 0.173604 0.883162 0.283256
H52   H     H_    0.939110 0.268876 0.858843 0.269711
C63   C     C_2   0.281429 0.647987 0.828801 1.130620
O37   O     O_2   0.384146 0.655714 0.786439 -0.597930
O38   O     O_R   0.248200 0.716173 0.879456 -0.798642
H53   H     H_    0.174874 0.702752 0.917911 0.325023
C64   C     C_3   0.674939 0.533982 0.108403 -0.877290
H54   H     H_    0.722428 0.486940 0.134727 0.260747
H55   H     H_    0.735747 0.529306 0.056710 0.218382
H56   H     H_    0.705474 0.596872 0.137104 0.289046
C65   C     C_2   0.366903 0.515181 0.351586 1.111085
O39   O     O_2   0.314648 0.576959 0.382542 -0.666647
O40   O     O_R   0.461365 0.470231 0.386752 -0.795296
H57   H     H_    0.499782 0.504137 0.433818 0.399090
C66   C     C_3   0.286767 0.701489 0.258557 -0.932588
H58   H     H_    0.333578 0.765051 0.258739 0.255872
H59   H     H_    0.340131 0.680311 0.304632 0.238591
H60   H     H_    0.321482 0.661794 0.208623 0.246519
C67   C     C_3   0.246499 0.925299 0.417074 -0.767247
H61   H     H_    0.297787 0.988971 0.424381 0.256505
H62   H     H_    0.232668 0.901648 0.358578 0.271916
H63   H     H_    0.127148 0.926107 0.441149 0.246653
C68   C     C_3   0.723767 0.885465 0.576081 -0.654291
H64   H     H_    0.687940 0.940185 0.613340 0.217835
H65   H     H_    0.762203 0.843712 0.610462 0.276233
H66   H     H_    0.829550 0.901855 0.546280 0.266134
C69   C     C_3   0.359866 0.757966 0.682366 -0.734806
H67   H     H_    0.408110 0.779007 0.737677 0.264583
H68   H     H_    0.396078 0.696390 0.661229 0.274643
H69   H     H_    0.411906 0.800753 0.649496 0.187815
C70   C     C_2   0.127596 0.746573 0.601924 0.884600
O41   O     O_2   0.059285 0.800159 0.580447 -0.622621
O42   O     O_R   0.164088 0.678224 0.555003 -0.776749
H70   H     H_    0.070973 0.658359 0.521622 0.396802

loop_
_geom_bond_atom_site_label_1
_geom_bond_atom_site_label_2
_geom_bond_distance
_ccdc_geom_bond_type
C2    C3    1.542447 S    
C20   C24   1.427119 A    
C11   H17   1.104853 S    
C61   O35   1.220529 D    
C35   C36   1.423873 A    
Ba2   O21   2.851380 S    
C61   O36   1.396530 S    
C2    H4    1.110862 S    
C1    C10   1.522199 S    
C65   O39   1.204039 D    
C14   C61   1.515263 S    
P8    C25   1.867766 S    
C38   C40   1.440700 A    
O30   H46   1.013755 S    
O2    Ba2   2.833336 S    
Ba1   O20   2.948614 S    
C56   O25   1.223512 D    
C66   H59   1.100175 S    
C41   C65   1.412980 S    
C22   C23   1.414979 A    
C65   O40   1.370122 S    
O17   Ba2   2.778372 S    
C31   C42   1.429687 A    
O38   H53   1.013041 S    
C46   N1    1.438952 S    
P3    O11   1.764339 S    
C4    C69   1.513151 S    
C21   H31   1.079315 S    
C3    C60   1.505362 S    
C9    H13   1.097318 S    
C59   O32   1.394740 S    
C51   C54   1.407955 A    
C23   C28   1.446090 A    
C68   H65   1.099130 S    
C62   H50   1.108036 S    
C18   C32   1.404540 A    
C40   C41   1.408942 A    
C12   H20   1.110950 S    
Ba2   O20   2.794451 S    
O16   P7    1.766892 S    
O14   P8    1.729533 S    
C8    C9    1.537336 S    
C46   C47   1.428206 A    
C58   O30   1.399832 S    
P1    O1    1.539457 D    
C34   C35   1.397326 A    
C69   H69   1.109805 S    
P7    O22   1.760874 S    
C59   O31   1.218939 D    
C24   C35   1.404785 A    
O28   H45   1.010899 S    
C21   C22   1.408867 A    
O36   H49   1.008568 S    
O5    C6    1.392943 S    
C63   O37   1.209058 D    
C14   H24   1.113672 S    
C13   H23   1.110150 S    
P2    O10   1.752097 S    
P8    O24   1.750338 S    
C41   C42   1.395893 A    
C62   H51   1.111157 S    
O1    Ba1   2.848357 S    
O7    Ba1   2.851101 S    
C66   H60   1.109062 S    
C14   C62   1.527951 S    
C1    H2    1.110941 S    
P4    C27   1.932842 S    
P7    C50   1.838136 S    
P5    O18   1.541531 D    
C29   C36   1.407949 A    
C67   H63   1.108487 S    
P1    Ba1   3.417387 S    
C25   C26   1.408918 A    
Ba1   O16   2.795201 S    
C12   H21   1.110416 S    
C16   H29   1.107763 S    
C64   H54   1.098041 S    
C3    H5    1.112831 S    
C36   C37   1.396950 A    
C55   H43   1.111603 S    
O10   C8    1.400324 S    
C17   C20   1.450196 A    
C30   C38   1.443553 A    
O13   Ba2   2.956643 S    
C38   C39   1.427863 A    
P5    O17   1.757300 S    
P3    C48   1.882944 S    
C64   H56   1.101967 S    
P2    C44   1.871464 S    
N1    N2    1.249972 D    
C49   C51   1.413196 A    
C32   H32   1.079389 S    
C69   H68   1.098277 S    
P2    Ba1   3.426995 S    
Ba1   Ba2   4.647868 S    
C10   H15   1.106149 S    
C19   H33   1.077467 S    
P5    O19   1.752865 S    
C4    C5    1.590349 S    
C64   H55   1.109764 S    
C68   H66   1.109194 S    
C26   C27   1.404866 A    
P4    O12   1.539777 D    
C23   C24   1.449058 A    
O11   C2    1.413475 S    
P4    O15   1.820069 S    
O14   Ba2   2.825733 S    
C5    H7    1.112362 S    
O40   H57   0.999840 S    
C70   O41   1.220267 D    
O3    P6    1.767337 S    
C37   H36   1.080657 S    
P1    O2    1.578146 S    
C17   C29   1.420383 A    
C47   C67   1.506158 S    
C68   H64   1.110697 S    
C70   O42   1.369101 S    
C11   H18   1.099363 S    
P7    O21   1.577162 D    
Ba1   O13   2.832879 S    
C9    C59   1.495793 S    
O8    Ba1   2.777621 S    
C7    H10   1.113989 S    
P3    O8    1.765076 S    
O16   Ba2   2.947738 S    
C60   O33   1.222648 D    
C13   C14   1.542741 S    
P5    C53   1.846122 S    
C11   O22   1.400622 S    
P8    O23   1.546013 D    
C8    H11   1.104726 S    
C62   H52   1.106181 S    
C52   H40   1.082447 S    
C37   C39   1.393120 A    
C30   C31   1.434892 A    
H27   C16   1.108755 S    
C49   C50   1.402549 A    
C39   C64   1.497334 S    
C1    H3    1.106848 S    
H1    C10   1.100104 S    
C43   H39   1.054502 S    
C33   C63   1.466738 S    
C49   H37   1.079536 S    
P4    Ba2   3.418079 S    
P2    O7    1.524259 D    
C19   C20   1.410422 A    
C19   C21   1.398496 A    
C3    H6    1.102969 S    
O19   C13   1.403950 S    
O4    P6    1.546209 D    
P3    O9    1.548197 D    
C1    H16   1.108385 S    
C7    C57   1.499481 S    
C55   H41   1.101998 S    
C5    C55   1.533280 S    
C15   C16   1.521202 S    
O3    Ba1   2.826131 S    
C52   C53   1.396629 A    
C43   C44   1.379986 A    
C22   C25   1.417945 A    
C56   O26   1.398727 S    
C6    H8    1.113012 S    
C63   O38   1.396565 S    
C6    C7    1.540704 S    
O6    P6    1.760108 S    
C45   C46   1.438563 A    
C17   C18   1.415725 A    
C55   H42   1.108515 S    
C15   O24   1.405397 S    
C45   C68   1.514734 S    
C57   O27   1.220713 D    
C44   C45   1.422453 A    
C54   H38   1.083222 S    
C67   H61   1.104771 S    
O26   H44   1.014044 S    
C33   C34   1.393510 A    
C26   H30   1.081608 S    
O2    Ba1   2.955739 S    
C58   O29   1.223238 D    
C12   H19   1.109486 S    
O6    C10   1.407530 S    
C69   H67   1.103085 S    
C13   H22   1.112068 S    
C66   H58   1.108308 S    
C47   C48   1.412028 A    
C9    H14   1.106943 S    
C15   H26   1.110439 S    
C57   O28   1.396700 S    
C27   C28   1.463368 A    
C53   C54   1.403455 A    
C6    H9    1.103700 S    
C29   C30   1.443465 A    
C8    H12   1.109043 S    
C4    C70   1.483414 S    
C60   O34   1.397626 S    
C7    C58   1.512641 S    
C31   C32   1.401755 A    
C5    C56   1.522324 S    
C2    C66   1.521808 S    
C51   N2    1.428617 S    
P1    C42   1.941988 S    
C43   C48   1.390143 A    
C50   C52   1.395337 A    
C15   H25   1.110227 S    
C18   H34   1.077652 S    
P4    O13   1.578147 S    
C34   H35   1.082252 S    
O42   H70   0.992590 S    
C11   C12   1.520038 S    
P1    O5    1.746843 S    
P6    C40   1.929015 S    
C4    O15   1.433707 S    
C16   H28   1.109599 S    
C28   C33   1.424340 A    
O34   H48   1.013791 S    
O32   H47   1.013680 S    
P2    O20   1.565773 S    
O12   Ba2   2.848916 S    
C67   H62   1.109625 S    
