data_mof_unit_37176.cif
_audit_creation_date              2012-12-10T16:49:23-0500
_audit_creation_method            fapswitch 2.2
_symmetry_space_group_name_H-M    P1
_symmetry_Int_Tables_number       1
_space_group_crystal_system       triclinic
_cell_length_a                    7.771885
_cell_length_b                    8.573769
_cell_length_c                    12.807754
_cell_angle_alpha                 89.903663
_cell_angle_beta                  88.687859
_cell_angle_gamma                 93.639228
_cell_volume                      851.487829303

loop_
_atom_site_label
_atom_site_type_symbol
_atom_type_description
_atom_site_fract_x
_atom_site_fract_y
_atom_site_fract_z
_atom_type_partial_charge
C1    C     C_R   0.454671 0.205253 0.497232 0.971391
C2    C     C_R   0.717940 0.530818 0.141855 -0.213662
C3    C     C_R   0.607241 0.583509 0.867198 0.099523
C4    C     C_R   0.416087 0.590892 0.131866 0.106510
C5    C     C_R   0.593219 0.575806 0.975340 0.096982
C6    C     C_R   0.428900 0.580760 0.024062 0.097194
C7    C     C_2   0.430849 0.041730 0.495524 -0.356367
C8    C     C_2   0.569188 0.958241 0.504282 -0.349825
C9    C     C_R   0.545348 0.794753 0.502681 0.968282
C10   C     C_R   0.469802 0.515114 0.699441 0.906337
C11   C     C_R   0.534659 0.511564 0.300576 0.905738
C12   C     C_R   0.556732 0.545456 0.190363 -0.111972
C13   C     C_R   0.457372 0.547640 0.809573 -0.107611
C14   C     C_R   0.280432 0.567003 0.964432 -0.149526
C15   C     C_R   0.738004 0.555308 0.035479 -0.149382
C16   C     C_R   0.294781 0.540645 0.858577 -0.212831
H1    H     H_    0.828368 0.500551 0.185939 0.194963
H2    H     H_    0.178863 0.514325 0.815143 0.197094
H3    H     H_    0.153340 0.561224 0.000087 0.170944
H4    H     H_    0.863217 0.542540 0.999867 0.167562
H5    H     H_    0.998396 0.616954 0.422076 0.212503
H6    H     H_    0.001421 0.383443 0.578307 0.199420
H7    H     H_    0.300217 0.990580 0.487069 0.190984
H8    H     H_    0.699827 0.009366 0.512718 0.186478
I1    I     I_    0.197372 0.703365 0.197689 -0.391217
I2    I     I_    0.845637 0.680107 0.797473 -0.374869
N1    N     N_2   0.054030 0.541640 0.471970 -0.156912
N2    N     N_2   0.945970 0.458360 0.528030 -0.161127
O1    O     O_R   0.609680 0.261530 0.506880 -0.611294
O2    O     O_R   0.390320 0.738470 0.493120 -0.606046
O3    O     O_R   0.323330 0.288220 0.488910 -0.625351
O4    O     O_R   0.676670 0.711780 0.511090 -0.619941
O5    O     O_R   0.619510 0.488830 0.661140 -0.590653
O6    O     O_R   0.380490 0.511170 0.338860 -0.587936
O7    O     O_R   0.333160 0.515520 0.643180 -0.629151
O8    O     O_R   0.666840 0.484480 0.356820 -0.632068
Zn1   Zn    Zn3+2 0.691200 0.482180 0.511990 0.980927
Zn2   Zn    Zn3+2 0.308800 0.517820 0.488010 0.984908

loop_
_geom_bond_atom_site_label_1
_geom_bond_atom_site_label_2
_ccdc_geom_bond_type
C11   C12   S    
C10   O7    A    
C4    C12   A    
C3    C13   A    
O3    Zn2   S    
C2    C12   A    
C1    O1    A    
C4    I1    S    
H5    N1    S    
C7    C8    D    
H6    N2    S    
O4    Zn1   S    
C2    H1    S    
C2    C15   A    
C5    C6    A    
N2    Zn1   S    
C7    H7    S    
C9    O2    A    
C16   H2    S    
C11   O8    A    
C8    H8    S    
C10   O5    A    
C3    I2    S    
C15   H4    S    
C14   C16   A    
C5    C15   A    
C6    C14   A    
N1    Zn2   S    
C1    O3    A    
O7    Zn2   S    
O2    Zn2   S    
C4    C6    A    
C13   C16   A    
O1    Zn1   S    
N1    N2    D    
O8    Zn1   S    
C9    O4    A    
C1    C7    S    
C14   H3    S    
C11   O6    A    
O5    Zn1   S    
C8    C9    S    
C3    C5    A    
C10   C13   S    
O6    Zn2   S    
