data_mof_unit_12783.cif
_audit_creation_date              2013-03-05T16:02:29-0500
_audit_creation_method            fapswitch 2.2
_symmetry_space_group_name_H-M    P1
_symmetry_Int_Tables_number       1
_space_group_crystal_system       triclinic
_cell_length_a                    16.931703
_cell_length_b                    7.248615
_cell_length_c                    14.908171
_cell_angle_alpha                 90.926687
_cell_angle_beta                  94.319753
_cell_angle_gamma                 90.725004
_cell_volume                      1824.08767647

loop_
_atom_site_label
_atom_site_type_symbol
_atom_site_description
_atom_site_fract_x
_atom_site_fract_y
_atom_site_fract_z
_atom_type_partial_charge
O1    O     O_R   0.663460 0.361760 0.165970 -0.563774
O2    O     O_R   0.336540 0.638240 0.834030 -0.558759
O3    O     O_R   0.836540 0.861760 0.334030 -0.581996
O4    O     O_R   0.163460 0.138240 0.665970 -0.557632
O5    O     O_R   0.827100 0.689870 0.163730 -0.624417
O6    O     O_R   0.172900 0.310130 0.836270 -0.533371
O7    O     O_R   0.672900 0.189870 0.336270 -0.600851
O8    O     O_R   0.327100 0.810130 0.663730 -0.538386
C1    C     C_R   0.853300 0.523035 0.143599 0.987332
C2    C     C_R   0.144246 0.476137 0.853112 1.061449
C3    C     C_R   0.644446 0.023243 0.353481 1.064475
C4    C     C_R   0.353134 0.976812 0.643296 0.990850
O9    O     O_R   0.663490 0.691370 0.155500 -0.552135
O10   O     O_R   0.336510 0.308630 0.844500 -0.580176
O11   O     O_R   0.836510 0.191370 0.344500 -0.565519
O12   O     O_R   0.163490 0.808630 0.655500 -0.559610
O13   O     O_R   0.671770 0.863320 0.325740 -0.537161
O14   O     O_R   0.328230 0.136680 0.674260 -0.624790
O15   O     O_R   0.828230 0.363320 0.174260 -0.542054
O16   O     O_R   0.171770 0.636680 0.825740 -0.596401
C5    C     C_R   0.638516 0.519913 0.130660 1.006104
C6    C     C_R   0.362072 0.479931 0.868985 1.054010
C7    C     C_R   0.862320 0.024854 0.369003 1.063298
C8    C     C_R   0.137872 0.974847 0.630876 1.001486
H1    H     H_    0.117111 0.001669 0.221325 0.172833
H2    H     H_    0.906828 0.198546 0.783767 0.179007
H3    H     H_    0.400515 0.723353 0.276860 0.177872
H4    H     H_    0.617840 0.477896 0.721803 0.173497
O17   O     O_3   0.752910 0.528800 0.305860 -0.273226
O18   O     O_3   0.247090 0.471200 0.694140 -0.272035
O19   O     O_3   0.747090 0.028800 0.194140 -0.256876
O20   O     O_3   0.252910 0.971200 0.805860 -0.266580
V1    V     V_3+5 0.749460 0.803010 0.239640 1.267715
V2    V     V_3+5 0.250540 0.196990 0.760360 1.265591
V3    V     V_3+5 0.750540 0.303010 0.260360 1.279289
V4    V     V_3+5 0.249460 0.696990 0.739640 1.287549
C9    C     C_1   0.466866 0.993863 0.527530 0.046093
C10   C     C_1   0.528331 0.004847 0.466263 0.054870
C11   C     C_1   0.028290 0.492915 0.966253 0.051296
C12   C     C_1   0.967050 0.504288 0.027831 0.051492
H5    H     H_    0.790579 0.200951 0.679639 0.186030
H6    H     H_    0.211833 0.848924 0.322357 0.181974
H7    H     H_    0.716960 0.357428 0.828905 0.182406
H8    H     H_    0.284466 0.688505 0.173549 0.185079
C13   C     C_R   0.025465 0.015743 0.315707 0.560594
C14   C     C_R   0.982165 0.077562 0.689274 0.565481
C15   C     C_R   0.480490 0.606924 0.186063 0.561915
C16   C     C_R   0.525408 0.491182 0.815355 0.557357
C17   C     C_R   0.101520 0.976812 0.289162 -0.297590
C18   C     C_R   0.911886 0.153327 0.714838 -0.335035
C19   C     C_R   0.407215 0.668607 0.209866 -0.328386
C20   C     C_R   0.602832 0.461570 0.790495 -0.300343
C21   C     C_R   0.157349 0.896903 0.347903 -0.229640
C22   C     C_R   0.846237 0.158004 0.655121 -0.220888
C23   C     C_R   0.341529 0.651993 0.150536 -0.212175
C24   C     C_R   0.661017 0.400954 0.852417 -0.229242
C25   C     C_R   0.142427 0.869871 0.437425 0.286815
C26   C     C_R   0.849458 0.094559 0.566782 0.348703
C27   C     C_R   0.347035 0.580414 0.064010 0.350727
C28   C     C_R   0.646508 0.386270 0.942803 0.282725
C29   C     C_R   0.072429 0.942626 0.471664 -0.076165
C30   C     C_R   0.923477 0.047487 0.532504 -0.099781
C31   C     C_R   0.422286 0.539745 0.031144 -0.105358
C32   C     C_R   0.574390 0.453643 0.973707 -0.077683
C33   C     C_R   0.009224 0.993352 0.408025 -0.027592
C34   C     C_R   0.991623 0.035353 0.596016 -0.039343
C35   C     C_R   0.490843 0.551540 0.094492 -0.039418
C36   C     C_R   0.509648 0.481019 0.908438 -0.029663
C37   C     C_R   0.065754 0.976910 0.565731 -0.196749
C38   C     C_R   0.932136 0.021914 0.437860 -0.210230
C39   C     C_R   0.431693 0.498234 0.937672 -0.210645
C40   C     C_R   0.566685 0.503152 0.065878 -0.193661
C41   C     C_1   0.414939 0.985272 0.579995 -0.239458
C42   C     C_1   0.580922 0.013916 0.414666 -0.186950
C43   C     C_1   0.080723 0.484194 0.914409 -0.190678
C44   C     C_1   0.915223 0.513633 0.080421 -0.229677
N1    N     N_R   0.191312 0.740273 0.486253 0.228207
O21   O     O_R   0.267469 0.743856 0.479398 -0.449090
O22   O     O_R   0.158610 0.588965 0.512557 -0.374836
N2    N     N_R   0.775219 0.063307 0.517249 0.193216
O23   O     O_R   0.752698 0.893160 0.500585 -0.439045
O24   O     O_R   0.721691 0.190255 0.519437 -0.443890
N3    N     N_R   0.273857 0.541341 0.014040 0.190097
O25   O     O_R   0.250150 0.369916 0.007479 -0.435037
O26   O     O_R   0.221322 0.670973 0.008043 -0.442648
N4    N     N_R   0.697518 0.269242 0.996698 0.224625
O27   O     O_R   0.773417 0.274419 0.988199 -0.456489
O28   O     O_R   0.666827 0.121624 0.029367 -0.371834
O29   O     O_3   0.970733 0.101656 0.256292 -0.642255
C45   C     C_3   0.965491 0.016788 0.169935 -0.149015
H9    H     H_    0.973119 0.864512 0.172418 0.108541
H10   H     H_    0.009186 0.080430 0.127430 0.141192
H11   H     H_    0.905795 0.041931 0.136983 0.202067
O30   O     O_3   0.042416 0.057017 0.756142 -0.629415
C46   C     C_3   0.023575 0.908688 0.811194 -0.183744
H12   H     H_    0.017402 0.777112 0.771578 0.116976
H13   H     H_    0.969137 0.934329 0.846538 0.128703
H14   H     H_    0.072616 0.893932 0.864049 0.197892
O31   O     O_3   0.542627 0.615264 0.251913 -0.633978
C47   C     C_3   0.530954 0.481141 0.317442 -0.167288
H15   H     H_    0.522287 0.340773 0.286443 0.110768
H16   H     H_    0.480509 0.515941 0.357911 0.127460
H17   H     H_    0.584619 0.478994 0.364844 0.198974
O32   O     O_3   0.468185 0.557901 0.752598 -0.638382
C48   C     C_3   0.466083 0.459540 0.669798 -0.153949
H18   H     H_    0.477938 0.309888 0.678540 0.111568
H19   H     H_    0.508300 0.522161 0.625160 0.139099
H20   H     H_    0.405997 0.471265 0.635470 0.197700

loop_
_geom_bond_atom_site_label_1
_geom_bond_atom_site_label_2
_geom_bond_distance
_ccdc_geom_bond_type
C26   C30   1.431757 A    
O1    C5    1.329648 A    
C23   C27   1.392664 A    
O3    C7    1.338914 A    
C46   H12   1.113244 S    
C46   H14   1.108261 S    
N1    O21   1.301129 A    
O7    C3    1.330671 A    
C48   H19   1.110429 S    
C18   C22   1.371911 A    
C32   C36   1.427899 A    
C27   N3    1.419728 S    
C14   C34   1.439875 A    
H2    C18   1.083428 S    
H6    C21   1.083416 S    
C10   C42   1.221569 T    
O4    C8    1.340522 A    
N4    O28   1.301195 A    
C34   C37   1.432263 A    
O3    V1    1.996893 S    
O2    V4    2.014480 S    
C33   C38   1.426762 A    
C16   O32   1.392078 S    
C15   O31   1.383901 S    
C30   C38   1.438785 A    
C35   C40   1.429357 A    
O8    V4    1.976924 S    
O11   V3    2.033403 S    
C1    O15   1.327899 A    
O31   C47   1.411932 S    
C2    O16   1.329744 A    
O5    V1    1.975541 S    
O2    C6    1.331616 A    
O19   V1    1.781536 S    
C1    C44   1.462720 S    
C11   C43   1.221768 T    
C13   O29   1.392834 S    
C26   N2    1.422751 S    
C14   C18   1.393156 A    
O11   C7    1.335979 A    
O12   C8    1.333453 A    
C4    C41   1.462330 S    
C7    C38   1.506697 S    
O13   V1    1.954439 S    
C15   C35   1.440705 A    
O32   C48   1.413371 S    
H3    C19   1.083159 S    
C8    C37   1.502251 S    
O4    V2    1.996892 S    
N1    O22   1.301736 A    
C48   H20   1.108753 S    
C31   C35   1.440971 A    
C30   C34   1.440917 A    
C5    C40   1.497402 S    
C25   N1    1.431264 S    
N2    O24   1.301469 A    
C11   C12   1.437989 S    
C28   N4    1.430805 S    
N4    O27   1.300918 A    
C15   C19   1.392952 A    
C47   H17   1.108718 S    
O6    V2    1.975541 S    
O20   V2    1.781537 S    
O5    C1    1.330867 A    
C9    C10   1.437757 S    
C2    C43   1.463975 S    
C45   H10   1.110462 S    
N3    O25   1.300867 A    
C14   O30   1.382787 S    
C13   C17   1.406007 A    
O8    C4    1.328742 A    
C47   H16   1.111443 S    
O9    C5    1.344911 A    
C16   C36   1.435599 A    
O14   V2    1.954439 S    
N3    O26   1.301554 A    
C31   C39   1.441800 A    
C13   C33   1.435016 A    
C6    C39   1.505181 S    
O1    V3    2.014480 S    
C45   H11   1.108584 S    
C22   C26   1.393102 A    
C29   C37   1.433346 A    
C9    C41   1.221661 T    
C3    O13   1.325046 A    
C21   C25   1.393350 A    
O7    V3    1.976927 S    
N2    O23   1.300821 A    
C3    C42   1.463358 S    
O10   V2    2.002358 S    
C46   H13   1.111803 S    
C25   C29   1.428839 A    
C48   H18   1.113621 S    
O17   V3    1.760321 S    
C27   C31   1.431533 A    
O18   V4    1.760320 S    
C28   C32   1.426314 A    
O10   C6    1.345483 A    
O15   V3    1.956279 S    
O12   V4    2.033402 S    
H4    C20   1.081500 S    
H8    C23   1.083837 S    
C45   H9    1.113828 S    
C36   C39   1.427147 A    
C17   C21   1.378953 A    
C47   H15   1.114066 S    
C19   C23   1.370685 A    
C32   C40   1.430442 A    
O30   C46   1.410913 S    
H1    C17   1.081584 S    
H5    C22   1.083629 S    
O6    C2    1.330323 A    
O16   V4    1.956278 S    
C29   C33   1.431369 A    
H7    C24   1.083334 S    
C16   C20   1.407009 A    
C24   C28   1.393287 A    
O9    V1    2.002358 S    
C12   C44   1.221789 T    
C4    O14   1.325955 A    
O29   C45   1.414056 S    
C20   C24   1.379452 A    
