data_mof_unit_40492.cif
_audit_creation_date              2013-03-05T16:02:23-0500
_audit_creation_method            fapswitch 2.2
_symmetry_space_group_name_H-M    P1
_symmetry_Int_Tables_number       1
_space_group_crystal_system       triclinic
_cell_length_a                    14.951877
_cell_length_b                    14.10445
_cell_length_c                    10.667874
_cell_angle_alpha                 90.07612
_cell_angle_beta                  89.983703
_cell_angle_gamma                 90.184308
_cell_volume                      2249.71291526

loop_
_atom_site_label
_atom_site_type_symbol
_atom_site_description
_atom_site_fract_x
_atom_site_fract_y
_atom_site_fract_z
_atom_type_partial_charge
O1    O     O_R   0.367860 0.580280 0.500020 -0.638183
O2    O     O_R   0.367860 0.419720 0.500020 -0.634318
C1    C     C_R   0.326962 0.499814 0.499748 0.854832
O3    O     O_R   0.500000 0.580270 0.314790 -0.607279
O4    O     O_R   0.500000 0.419730 0.314790 -0.602273
C2    C     C_R   0.499160 0.500150 0.257709 0.870343
Zn1   Zn    Zn3+2 0.500020 0.607200 0.499990 1.012519
Zn2   Zn    Zn3+2 0.500020 0.392800 0.499990 1.042834
O5    O     O_R   0.632160 0.580270 0.499960 -0.559946
O6    O     O_R   0.632160 0.419730 0.499960 -0.577327
O7    O     O_R   0.500030 0.580270 0.685200 -0.620330
O8    O     O_R   0.500030 0.419730 0.685200 -0.591962
C3    C     C_R   0.673206 0.499848 0.497735 0.974435
C4    C     C_R   0.501072 0.500110 0.742321 0.895663
C5    C     C_3   0.508239 0.603597 0.070945 -0.352948
C6    C     C_3   0.412938 0.455224 0.071201 -0.392616
H1    H     H_    0.573372 0.634748 0.099755 0.259335
H2    H     H_    0.404508 0.381840 0.107773 0.211919
C7    C     C_3   0.502461 0.604097 0.928710 -0.419202
C8    C     C_3   0.415846 0.452528 0.927421 -0.412688
H3    H     H_    0.439705 0.640370 0.899617 0.192420
H4    H     H_    0.356624 0.491044 0.890141 0.170314
H5    H     H_    0.558977 0.646505 0.890034 0.238211
H6    H     H_    0.408691 0.378518 0.893665 0.237497
C9    C     C_3   0.580587 0.441058 0.075074 -0.401918
C10   C     C_3   0.500193 0.500459 0.121364 0.026200
C11   C     C_3   0.503444 0.500200 0.878949 -0.032412
C12   C     C_3   0.590751 0.449362 0.930112 0.475635
C13   C     C_R   0.815255 0.561562 0.420494 -0.166025
C14   C     C_R   0.768964 0.498422 0.496557 -0.080468
C15   C     C_R   0.813612 0.431630 0.569411 -0.012852
C16   C     C_R   0.906589 0.429078 0.570561 -0.081827
C17   C     C_R   0.953815 0.494916 0.495666 0.021798
C18   C     C_R   0.907720 0.561535 0.420787 0.138460
C19   C     C_R   0.952952 0.361603 0.643039 0.212882
C20   C     C_R   0.046700 0.359096 0.639522 0.219193
C21   C     C_R   0.093618 0.426624 0.567233 -0.052309
C22   C     C_R   0.046931 0.494539 0.495271 0.040431
C23   C     C_R   0.093559 0.563016 0.423373 0.154652
C24   C     C_R   0.047269 0.628493 0.349705 -0.202591
C25   C     C_R   0.954527 0.627242 0.347611 -0.137830
C26   C     C_R   0.186563 0.429979 0.567871 -0.168120
C27   C     C_R   0.231520 0.498788 0.498539 -0.072228
C28   C     C_R   0.185999 0.565065 0.426569 -0.245201
H7    H     H_    0.779307 0.609173 0.359346 0.219681
H8    H     H_    0.224985 0.381147 0.624480 0.183717
H9    H     H_    0.222715 0.617149 0.372003 0.150132
C29   C     C_R   0.569846 0.799379 0.447185 0.419588
C30   C     C_R   0.569843 0.201275 0.446670 0.415751
N1    N     N_R   0.500070 0.750030 0.500050 -0.159167
N2    N     N_R   0.500070 0.249970 0.500050 -0.159030
C31   C     C_R   0.430269 0.798208 0.553625 -0.138796
C32   C     C_R   0.430485 0.201503 0.554181 -0.075187
C33   C     C_R   0.428375 0.898784 0.555280 0.019862
C34   C     C_R   0.428530 0.100999 0.555622 0.014392
C35   C     C_R   0.499034 0.949641 0.499666 0.068987
C36   C     C_R   0.499141 0.050585 0.499810 0.066799
C37   C     C_R   0.569964 0.899693 0.444105 -0.084712
C38   C     C_R   0.570133 0.100950 0.444135 -0.080032
C39   C     C_R   0.357833 0.949721 0.610787 -0.168836
C40   C     C_R   0.357923 0.049707 0.610992 -0.131251
C41   C     C_R   0.639341 0.049907 0.385887 -0.106501
C42   C     C_R   0.639243 0.951090 0.385832 -0.118722
H10   H     H_    0.302570 0.912274 0.654156 0.157919
H11   H     H_    0.302720 0.086878 0.654497 0.191544
H12   H     H_    0.693965 0.085733 0.338975 0.213090
H13   H     H_    0.693770 0.915534 0.338710 0.208341
N3    N     N_R   0.093665 0.289154 0.711534 0.223577
O9    O     O_R   0.143711 0.226834 0.655423 -0.391592
O10   O     O_R   0.080556 0.282582 0.831790 -0.313289
H14   H     H_    0.082807 0.680577 0.293895 0.159118
H15   H     H_    0.919370 0.678317 0.290126 0.182362
N4    N     N_R   0.645407 0.749729 0.399611 0.201687
O11   O     O_R   0.643107 0.715668 0.286471 -0.437869
O12   O     O_R   0.722068 0.759396 0.456017 -0.405989
N5    N     N_R   0.644138 0.251832 0.395389 0.212768
O13   O     O_R   0.721736 0.246306 0.450036 -0.374502
O14   O     O_R   0.639752 0.283709 0.281462 -0.400413
H16   H     H_    0.376187 0.758338 0.595941 0.159778
H17   H     H_    0.376516 0.241132 0.596757 0.167067
H18   H     H_    0.453961 0.649112 0.109329 0.192463
H19   H     H_    0.354171 0.497193 0.102977 0.175738
H20   H     H_    0.642178 0.460731 0.127184 0.214214
H21   H     H_    0.568320 0.366002 0.101243 0.246640
N6    N     N_R   0.670651 0.507191 0.896871 0.208516
O15   O     O_R   0.690193 0.522212 0.779782 -0.402983
O16   O     O_R   0.720691 0.547533 0.981554 -0.365366
N7    N     N_R   0.601226 0.352809 0.877149 0.210090
O17   O     O_R   0.542634 0.286549 0.899807 -0.402244
O18   O     O_R   0.672285 0.330253 0.813530 -0.283980
H22   H     H_    0.775087 0.382149 0.625045 0.236627
N8    N     N_R   0.905337 0.294821 0.719430 0.242201
O19   O     O_R   0.864448 0.323770 0.820012 -0.272813
O20   O     O_R   0.912995 0.204348 0.698308 -0.276093

loop_
_geom_bond_atom_site_label_1
_geom_bond_atom_site_label_2
_geom_bond_distance
_ccdc_geom_bond_type
C24   H14   1.083942 S    
N4    O11   1.298891 A    
C7    H5    1.113232 S    
C19   C20   1.402746 A    
C5    H18   1.113942 S    
C33   C39   1.408066 A    
N6    O15   1.300225 A    
C9    C12   1.558370 S    
C5    C7    1.519851 S    
C1    C27   1.427127 S    
C41   C42   1.393746 A    
C20   C21   1.411144 A    
C7    H3    1.114547 S    
C21   C22   1.414481 A    
N5    O14   1.298168 A    
O4    C2    1.288199 A    
O7    C4    1.285229 A    
C36   C38   1.407125 A    
C35   C36   1.423760 A    
Zn1   O5    2.013119 S    
C26   H8    1.083023 S    
C21   C26   1.390375 A    
O5    C3    1.291607 A    
C8    H6    1.108649 S    
N3    O9    1.301320 A    
C30   N2    1.373891 A    
C12   N7    1.482430 S    
C9    H21   1.109844 S    
N1    C31   1.371431 A    
C4    C11   1.457960 S    
C31   H16   1.082324 S    
C7    C11   1.558044 S    
C28   H9    1.085475 S    
C6    C8    1.534863 S    
C19   N8    1.433732 S    
C29   N1    1.373680 A    
N4    O12   1.301409 A    
C18   C25   1.398403 A    
O3    Zn1   2.011377 S    
C6    H19   1.113578 S    
C31   C33   1.419018 A    
C33   C35   1.406622 A    
C32   C34   1.417874 A    
C6    C10   1.545836 S    
C22   C23   1.415798 A    
C42   H13   1.081944 S    
C41   H12   1.081958 S    
N6    O16   1.302289 A    
C16   C19   1.410894 A    
C3    C14   1.432022 S    
C32   H17   1.082529 S    
N5    O13   1.301214 A    
O3    C2    1.282988 A    
C23   C24   1.398530 A    
C5    C10   1.555910 S    
C9    C10   1.547816 S    
C13   C18   1.382531 A    
C13   H7    1.081227 S    
C39   C40   1.410243 A    
N2    C32   1.370910 A    
Zn1   O7    2.012472 S    
C27   C28   1.390270 A    
C13   C14   1.388599 A    
C15   C16   1.390810 A    
Zn2   O8    2.011480 S    
N8    O20   1.300921 A    
C17   C18   1.415085 A    
C2    C10   1.454607 S    
C30   N5    1.427356 S    
Zn2   N2    2.014543 S    
C25   H15   1.084037 S    
Zn2   O6    2.010719 S    
C24   C25   1.386899 A    
N7    O18   1.300718 A    
C15   H22   1.081402 S    
C34   C36   1.406433 A    
C26   C27   1.392199 A    
C11   C12   1.588590 S    
C37   C42   1.407470 A    
C5    H1    1.110399 S    
C38   C41   1.406570 A    
O1    Zn1   2.010990 S    
C29   N4    1.424150 S    
O2    Zn2   2.013388 S    
Zn1   N1    2.014536 S    
C8    H4    1.114102 S    
O6    C3    1.284431 A    
O4    Zn2   2.012368 S    
C20   N3    1.436386 S    
C29   C37   1.415301 A    
C23   C28   1.382788 A    
C8    C11   1.558780 S    
C17   C22   1.392291 A    
C30   C38   1.415275 A    
C39   H10   1.083222 S    
C16   C17   1.413043 A    
O2    C1    1.286303 A    
O8    C4    1.286438 A    
C14   C15   1.394082 A    
C34   C40   1.408082 A    
N8    O19   1.300720 A    
C35   C37   1.405590 A    
C40   H11   1.083260 S    
N7    O17   1.301740 A    
C6    H2    1.113374 S    
C12   N6    1.487445 S    
C9    H20   1.110099 S    
N3    O10   1.301099 A    
O1    C1    1.287450 A    
