data_mof_unit_57269.cif
_audit_creation_date              2012-12-10T20:00:05-0500
_audit_creation_method            fapswitch 2.2
_symmetry_space_group_name_H-M    P1
_symmetry_Int_Tables_number       1
_space_group_crystal_system       triclinic
_cell_length_a                    14.98899
_cell_length_b                    14.250556
_cell_length_c                    8.891625
_cell_angle_alpha                 89.953937
_cell_angle_beta                  90.451589
_cell_angle_gamma                 90.254566
_cell_volume                      1899.18561702

loop_
_atom_site_label
_atom_site_type_symbol
_atom_type_description
_atom_site_fract_x
_atom_site_fract_y
_atom_site_fract_z
_atom_type_partial_charge
C1    C     C_R   0.327792 0.499930 0.501864 0.854637
C2    C     C_R   0.435579 0.894758 0.420974 -0.339569
C3    C     C_R   0.499832 0.500027 0.218750 0.946347
C4    C     C_R   0.500081 0.499988 0.781249 0.945079
C5    C     C_R   0.502601 0.053161 0.497377 0.103425
C6    C     C_R   0.502096 0.946523 0.497623 0.114972
C7    C     C_1   0.499856 0.500059 0.065432 -0.222874
C8    C     C_1   0.499950 0.500013 0.934562 -0.213950
C9    C     C_R   0.096826 0.580104 0.578327 -0.185853
C10   C     C_R   0.903900 0.424665 0.586692 -0.185893
C11   C     C_R   0.907428 0.580646 0.475208 -0.180472
C12   C     C_R   0.672130 0.500224 0.501934 0.851700
C13   C     C_R   0.091563 0.420370 0.482281 -0.181704
C14   C     C_R   0.188655 0.580152 0.566330 -0.198930
C15   C     C_R   0.812010 0.423504 0.574395 -0.193397
C16   C     C_R   0.815472 0.580022 0.464804 -0.202469
C17   C     C_R   0.183385 0.420039 0.472198 -0.197522
C18   C     C_R   0.231965 0.500161 0.512554 -0.019323
C19   C     C_R   0.767881 0.500948 0.512554 -0.015074
C20   C     C_R   0.048154 0.500543 0.534763 0.120070
C21   C     C_R   0.951749 0.502699 0.535211 0.118716
C22   C     C_3   0.321049 0.228925 0.244885 -0.820915
C23   C     C_R   0.457962 0.204003 0.386629 0.316400
C24   C     C_3   0.615863 0.751161 0.826241 -0.765674
C25   C     C_3   0.551097 0.244333 0.875835 -0.775963
C26   C     C_3   0.384019 0.750860 0.173269 -0.766016
C27   C     C_R   0.563938 0.795502 0.579613 0.314467
C28   C     C_R   0.543024 0.204293 0.612392 0.317254
C29   C     C_R   0.437071 0.795661 0.419200 0.312931
C30   C     C_R   0.460903 0.104869 0.381962 -0.328618
C31   C     C_R   0.567487 0.894525 0.575558 -0.341293
C32   C     C_R   0.544300 0.105132 0.612839 -0.335966
H1    H     H_    0.063770 0.642070 0.620582 0.128642
H2    H     H_    0.621701 0.929528 0.633883 0.143544
H3    H     H_    0.577241 0.069810 0.705237 0.148185
H4    H     H_    0.382030 0.930074 0.362022 0.146148
H5    H     H_    0.449557 0.256084 0.172076 0.222275
H6    H     H_    0.287841 0.285529 0.179745 0.243364
H7    H     H_    0.285814 0.219909 0.353424 0.241813
H8    H     H_    0.316077 0.162749 0.179358 0.221858
H9    H     H_    0.692687 0.761092 0.635013 0.203457
H10   H     H_    0.661623 0.701260 0.883393 0.235588
H11   H     H_    0.546240 0.732615 0.856795 0.256926
H12   H     H_    0.937678 0.364588 0.635026 0.129433
H13   H     H_    0.631102 0.823278 0.866739 0.211513
H14   H     H_    0.656647 0.241316 0.727622 0.196283
H15   H     H_    0.478731 0.261031 0.873304 0.254743
H16   H     H_    0.584920 0.293818 0.954279 0.239060
H17   H     H_    0.560511 0.171836 0.918961 0.210440
H18   H     H_    0.307760 0.761857 0.364906 0.203173
H19   H     H_    0.369578 0.822897 0.132039 0.211680
H20   H     H_    0.337524 0.700969 0.116947 0.235441
H21   H     H_    0.453341 0.731906 0.142503 0.257176
H22   H     H_    0.943957 0.640725 0.432787 0.129407
H23   H     H_    0.054407 0.359015 0.445700 0.130708
H24   H     H_    0.225655 0.642235 0.600117 0.149698
H25   H     H_    0.775559 0.362674 0.614226 0.146361
H26   H     H_    0.781802 0.640293 0.416832 0.146979
H27   H     H_    0.216097 0.358037 0.430500 0.158529
H28   H     H_    0.431270 0.069179 0.286619 0.151574
N1    N     N_R   0.500000 0.252470 0.500000 -0.124093
N2    N     N_R   0.500000 0.747530 0.500000 -0.118290
N3    N     N_2   0.413567 0.254090 0.270360 -0.252304
N4    N     N_2   0.628055 0.745220 0.665243 -0.256316
N5    N     N_2   0.589017 0.254284 0.727306 -0.257037
N6    N     N_2   0.372097 0.745518 0.334412 -0.256993
O1    O     O_R   0.369060 0.579480 0.500010 -0.612800
O2    O     O_R   0.630940 0.420520 0.499990 -0.622948
O3    O     O_R   0.630940 0.579480 0.499990 -0.610633
O4    O     O_R   0.369060 0.420520 0.500010 -0.605041
O5    O     O_R   0.500000 0.579460 0.285340 -0.603973
O6    O     O_R   0.500000 0.420540 0.714660 -0.591378
O7    O     O_R   0.500000 0.579460 0.714660 -0.607850
O8    O     O_R   0.500000 0.420540 0.285340 -0.613436
Zn1   Zn    Zn3+2 0.500000 0.606140 0.500000 0.966302
Zn2   Zn    Zn3+2 0.500000 0.393860 0.500000 0.968269

loop_
_geom_bond_atom_site_label_1
_geom_bond_atom_site_label_2
_ccdc_geom_bond_type
C3    O5    A    
C9    C14   A    
H18   N6    S    
O7    Zn1   S    
O3    Zn1   S    
C27   N2    A    
C26   H20   S    
O2    Zn2   S    
C12   O2    A    
C11   C16   A    
C14   C18   A    
C9    C20   A    
C14   H24   S    
C1    O4    A    
C13   C20   A    
C13   C17   A    
C4    C8    S    
C5    C32   A    
C22   H8    S    
C28   N1    A    
C20   C21   S    
C23   N3    S    
C6    C31   A    
C1    C18   S    
C31   H2    S    
C25   N5    S    
C7    C8    T    
C24   N4    S    
C16   H26   S    
C26   H19   S    
O1    Zn1   S    
C9    H1    S    
C15   H25   S    
C25   H16   S    
C4    O7    A    
C2    C6    A    
C11   H22   S    
O8    Zn2   S    
C17   H27   S    
C16   C19   A    
C24   H13   S    
C12   C19   S    
H5    N3    S    
C12   O3    A    
C17   C18   A    
C3    C7    S    
C10   C15   A    
C2    C29   A    
C10   C21   A    
O4    Zn2   S    
C5    C6    S    
C25   H17   S    
N2    Zn1   S    
O5    Zn1   S    
N1    Zn2   S    
C27   N4    S    
C22   H7    S    
C10   H12   S    
C29   N6    S    
C26   N6    S    
C26   H21   S    
C4    O6    A    
C24   H10   S    
C23   C30   A    
H14   N5    S    
C5    C30   A    
C23   N1    A    
C2    H4    S    
C3    O8    A    
C24   H11   S    
C25   H15   S    
C29   N2    A    
O6    Zn2   S    
H9    N4    S    
C1    O1    A    
C22   N3    S    
C15   C19   A    
C27   C31   A    
C11   C21   A    
C28   C32   A    
C32   H3    S    
C28   N5    S    
C30   H28   S    
C13   H23   S    
C22   H6    S    
