data_mof_unit_28883.cif
_audit_creation_date              2012-12-10T18:57:49-0500
_audit_creation_method            fapswitch 2.2
_symmetry_space_group_name_H-M    P1
_symmetry_Int_Tables_number       1
_space_group_crystal_system       triclinic
_cell_length_a                    10.667047
_cell_length_b                    10.037222
_cell_length_c                    8.894869
_cell_angle_alpha                 89.80024
_cell_angle_beta                  92.958564
_cell_angle_gamma                 89.48917
_cell_volume                      951.036959157

loop_
_atom_site_label
_atom_site_type_symbol
_atom_type_description
_atom_site_fract_x
_atom_site_fract_y
_atom_site_fract_z
_atom_type_partial_charge
C1    C     C_R   0.260836 0.500186 0.500251 1.018556
C2    C     C_R   0.059639 0.579573 0.394985 0.367003
C3    C     C_R   0.871886 0.500466 0.500241 -0.403532
C4    C     C_R   0.128112 0.499530 0.499756 -0.403534
C5    C     C_R   0.572684 0.070078 0.604599 0.171256
C6    C     C_R   0.427317 0.929922 0.395400 0.171254
C7    C     C_R   0.429694 0.073193 0.392950 0.190255
C8    C     C_R   0.570308 0.926807 0.607048 0.190275
C9    C     C_3   0.134566 0.204145 0.662295 -0.191638
C10   C     C_3   0.865440 0.795851 0.337681 -0.191517
C11   C     C_3   0.871198 0.422602 0.841569 -0.298297
C12   C     C_R   0.739164 0.499813 0.499750 1.018575
C13   C     C_3   0.128813 0.577411 0.158438 -0.298343
C14   C     C_3   0.659323 0.139534 0.717320 -0.761874
C15   C     C_3   0.340681 0.860466 0.282677 -0.761883
C16   C     C_3   0.362527 0.148571 0.264168 -0.820023
C17   C     C_3   0.637483 0.851430 0.735823 -0.820009
C18   C     C_R   0.499500 0.500154 0.219265 0.927625
C19   C     C_R   0.500500 0.499846 0.780735 0.927632
C20   C     C_1   0.499808 0.500218 0.065542 -0.192928
C21   C     C_1   0.500192 0.499782 0.934458 -0.192925
C22   C     C_R   0.069945 0.415417 0.600675 0.362356
C23   C     C_R   0.930052 0.584575 0.399318 0.362360
C24   C     C_R   0.940359 0.420426 0.605013 0.366984
H1    H     H_    0.041786 0.161373 0.685274 0.181143
H2    H     H_    0.184763 0.484648 0.181027 0.139334
H3    H     H_    0.034257 0.553170 0.108474 0.184084
H4    H     H_    0.177942 0.636692 0.074379 0.187681
H5    H     H_    0.757220 0.104090 0.705681 0.225636
H6    H     H_    0.663543 0.246082 0.700892 0.316082
H7    H     H_    0.629629 0.121197 0.833384 0.210159
H8    H     H_    0.336456 0.753918 0.299112 0.316087
H9    H     H_    0.242784 0.895914 0.294307 0.225636
H10   H     H_    0.370382 0.878794 0.166616 0.210160
H11   H     H_    0.285969 0.093567 0.204559 0.202121
H12   H     H_    0.154847 0.189238 0.541822 0.143801
H13   H     H_    0.315684 0.238741 0.303096 0.264194
H14   H     H_    0.430970 0.173593 0.178962 0.249077
H15   H     H_    0.569049 0.826411 0.821041 0.249068
H16   H     H_    0.684320 0.761257 0.696893 0.264203
H17   H     H_    0.714051 0.906432 0.795418 0.202117
H18   H     H_    0.206811 0.147506 0.730906 0.170518
H19   H     H_    0.958157 0.838654 0.314471 0.181177
H20   H     H_    0.793073 0.852458 0.269226 0.170504
H21   H     H_    0.845347 0.810766 0.458209 0.143680
H22   H     H_    0.822013 0.363354 0.925607 0.187666
H23   H     H_    0.815310 0.515405 0.818973 0.139315
H24   H     H_    0.965760 0.446775 0.891564 0.184112
N1    N     N_R   0.500000 0.857200 0.500000 -0.115233
N2    N     N_R   0.500000 0.142800 0.500000 -0.115230
O1    O     O_R   0.316770 0.614620 0.499990 -0.606571
O2    O     O_3   0.859042 0.660490 0.295331 -0.586195
O3    O     O_3   0.880581 0.345788 0.710290 -0.608851
O4    O     O_3   0.119415 0.654222 0.289716 -0.608854
O5    O     O_R   0.683230 0.385380 0.500010 -0.606577
O6    O     O_R   0.683230 0.614620 0.500010 -0.619573
O7    O     O_R   0.316770 0.385380 0.499990 -0.619594
O8    O     O_R   0.500010 0.614640 0.285340 -0.615860
O9    O     O_R   0.499990 0.385360 0.714660 -0.615856
O10   O     O_R   0.499990 0.614640 0.714660 -0.631283
O11   O     O_R   0.500010 0.385360 0.285340 -0.631284
O12   O     O_3   0.140950 0.339500 0.704666 -0.586174
Zn1   Zn    Zn3+2 0.500000 0.653120 0.500000 0.940978
Zn2   Zn    Zn3+2 0.500000 0.346880 0.500000 0.940972

loop_
_geom_bond_atom_site_label_1
_geom_bond_atom_site_label_2
_ccdc_geom_bond_type
O11   Zn2   S    
C2    C4    A    
C18   O11   A    
C6    C7    A    
N1    Zn1   S    
C1    O7    A    
C19   O10   A    
C22   O12   S    
C4    C22   A    
C16   H13   S    
C15   H10   S    
C11   H23   S    
C8    C17   S    
C11   O3    S    
O1    Zn1   S    
C14   H7    S    
C1    C4    S    
C10   O2    S    
O5    Zn2   S    
C10   H21   S    
C23   O2    S    
O6    Zn1   S    
C9    H1    S    
C15   H8    S    
C13   H4    S    
C11   H24   S    
C1    O1    A    
C9    H18   S    
C12   O6    A    
C14   H6    S    
O10   Zn1   S    
C7    C16   S    
C19   C21   S    
C15   H9    S    
C18   C20   S    
C16   H11   S    
C2    O4    S    
C13   H2    S    
C22   C24   A    
C5    N2    A    
C17   H17   S    
C14   H5    S    
C10   H20   S    
C9    O12   S    
C12   O5    A    
C9    H12   S    
O9    Zn2   S    
C2    C23   A    
N2    Zn2   S    
C20   C21   T    
C24   O3    S    
O7    Zn2   S    
C13   O4    S    
C17   H15   S    
C16   H14   S    
O8    Zn1   S    
C5    C8    A    
C10   H19   S    
C13   H3    S    
C11   H22   S    
C3    C12   S    
C19   O9    A    
C6    C15   S    
C3    C23   A    
C8    N1    A    
C18   O8    A    
C5    C14   S    
C6    N1    A    
C7    N2    A    
C3    C24   A    
C17   H16   S    
