data_mof_unit_59188.cif
_audit_creation_date              2012-12-10T17:47:42-0500
_audit_creation_method            fapswitch 2.2
_symmetry_space_group_name_H-M    P1
_symmetry_Int_Tables_number       1
_space_group_crystal_system       triclinic
_cell_length_a                    10.68038
_cell_length_b                    10.736543
_cell_length_c                    9.929118
_cell_angle_alpha                 89.113256
_cell_angle_beta                  90.422911
_cell_angle_gamma                 91.37373
_cell_volume                      1138.08398095

loop_
_atom_site_label
_atom_site_type_symbol
_atom_type_description
_atom_site_fract_x
_atom_site_fract_y
_atom_site_fract_z
_atom_type_partial_charge
Br1   Br    Br    0.883911 0.762089 0.419778 -0.471459
Br2   Br    Br    0.297825 0.856288 0.307507 -0.434339
Br3   Br    Br    0.681525 0.699710 0.152651 -0.444292
Br4   Br    Br    0.137292 0.150732 0.164540 -0.523228
C1    C     C_R   0.502309 0.260489 0.500803 0.855533
C2    C     C_R   0.598794 0.065714 0.581711 0.113938
C3    C     C_R   0.509860 0.128074 0.501700 -0.148779
C4    C     C_R   0.258263 0.497796 0.499393 0.853116
C5    C     C_R   0.425642 0.064176 0.419206 -0.219283
C6    C     C_R   0.424743 0.936576 0.416997 0.277228
C7    C     C_R   0.510262 0.871995 0.498544 -0.169676
C8    C     C_R   0.335179 0.337296 0.140665 -0.202467
C9    C     C_R   0.253485 0.258034 0.070446 0.287170
C10   C     C_R   0.255473 0.257200 0.931080 -0.221044
C11   C     C_R   0.338069 0.335864 0.861128 -0.204317
C12   C     C_3   0.879904 0.497089 0.504641 0.070118
C13   C     C_R   0.420352 0.418755 0.928394 0.162577
C14   C     C_R   0.419750 0.419077 0.072884 0.081123
C15   C     C_R   0.574733 0.579184 0.069020 0.325295
C16   C     C_R   0.502968 0.739495 0.499308 0.950209
C17   C     C_R   0.574616 0.578561 0.926666 -0.157400
C18   C     C_R   0.742544 0.497926 0.501250 0.851204
C19   C     C_3   0.074719 0.390463 0.594514 -0.431580
C20   C     C_3   0.930948 0.393340 0.605221 -0.024374
C21   C     C_3   0.078445 0.623904 0.547616 -0.395984
C22   C     C_3   0.069611 0.472198 0.356047 -0.388680
C23   C     C_3   0.934673 0.628094 0.542325 0.099461
C24   C     C_3   0.122582 0.496077 0.499098 0.097261
C25   C     C_3   0.862665 0.873798 0.838885 -0.405512
C26   C     C_3   0.998269 0.893862 0.794116 -0.796203
C27   C     C_3   0.891175 0.388315 0.757275 -0.393537
C28   C     C_3   0.924211 0.499618 0.845553 -0.806427
C29   C     C_3   0.927248 0.464875 0.360749 -0.401743
C30   C     C_R   0.688934 0.130805 0.658988 -0.213464
C31   C     C_R   0.771987 0.068663 0.742788 -0.145158
C32   C     C_R   0.772804 0.939304 0.745807 0.227558
C33   C     C_R   0.688759 0.872689 0.663050 -0.143536
C34   C     C_R   0.598955 0.935183 0.581722 0.054632
H1    H     H_    0.119522 0.399141 0.695291 0.200642
H2    H     H_    0.192285 0.195649 0.876213 0.167994
H3    H     H_    0.333845 0.329840 0.754453 0.213446
H4    H     H_    0.634787 0.643270 0.871441 0.151545
H5    H     H_    0.895300 0.302838 0.564990 0.128480
H6    H     H_    0.112498 0.641648 0.651692 0.158923
H7    H     H_    0.899480 0.656299 0.640990 0.133900
H8    H     H_    0.099756 0.548712 0.285528 0.232083
H9    H     H_    0.105043 0.383522 0.316627 0.204340
H10   H     H_    0.894225 0.369350 0.333212 0.189336
H11   H     H_    0.009221 0.866146 0.687733 0.274600
H12   H     H_    0.890329 0.529454 0.282160 0.256009
H13   H     H_    0.027675 0.993239 0.804049 0.257376
H14   H     H_    0.060601 0.836382 0.858429 0.267695
H15   H     H_    0.852115 0.908923 0.942814 0.259540
H16   H     H_    0.840444 0.772930 0.842999 0.191854
H17   H     H_    0.017905 0.540576 0.823956 0.256629
H18   H     H_    0.850820 0.569597 0.834825 0.241838
H19   H     H_    0.923847 0.469069 0.952989 0.256180
H20   H     H_    0.790198 0.368483 0.769721 0.227562
H21   H     H_    0.938252 0.307180 0.804222 0.202334
H22   H     H_    0.120747 0.699352 0.483584 0.229870
H23   H     H_    0.357890 0.114035 0.358683 0.200822
H24   H     H_    0.696356 0.230159 0.654044 0.148316
H25   H     H_    0.836435 0.121126 0.805498 0.139546
H26   H     H_    0.696584 0.772756 0.662168 0.149079
H27   H     H_    0.103143 0.298616 0.555565 0.159165
H28   H     H_    0.328770 0.332942 0.247438 0.205489
N1    N     N_R   0.498810 0.498800 0.142780 -0.135526
N2    N     N_R   0.498760 0.498720 0.857170 -0.134064
O1    O     O_R   0.500000 0.316780 0.614690 -0.646762
O2    O     O_R   0.499990 0.316750 0.385360 -0.630931
O3    O     O_R   0.314800 0.499990 0.614670 -0.643946
O4    O     O_R   0.314790 0.499970 0.385330 -0.632322
O5    O     O_R   0.500010 0.683250 0.614640 -0.636915
O6    O     O_R   0.500000 0.683220 0.385310 -0.524535
O7    O     O_R   0.685210 0.500030 0.614670 -0.648421
O8    O     O_R   0.685200 0.500010 0.385330 -0.576705
Zn1   Zn    Zn3+2 0.500010 0.500020 0.653130 0.927351
Zn2   Zn    Zn3+2 0.499990 0.499980 0.346870 1.014244

loop_
_geom_bond_atom_site_label_1
_geom_bond_atom_site_label_2
_ccdc_geom_bond_type
C26   H13   S    
O2    Zn2   S    
O1    Zn1   S    
C31   C32   A    
C18   O8    A    
C21   C24   S    
C25   C32   S    
C33   C34   A    
C5    H23   S    
C28   H19   S    
C27   H20   S    
C32   C33   A    
C15   C17   A    
O8    Zn2   S    
C25   H16   S    
C30   H24   S    
C3    C5    A    
C30   C31   A    
C27   H21   S    
Br4   C9    S    
O4    Zn2   S    
C13   N2    A    
C1    O1    A    
C19   C20   S    
C2    C34   A    
Br3   C15   S    
C21   H22   S    
C5    C6    A    
C28   H17   S    
C23   H7    S    
C12   C23   S    
C12   C20   S    
C9    C10   A    
C29   H10   S    
N1    Zn2   S    
C18   O7    A    
C21   H6    S    
C7    C16   S    
C4    O4    A    
C11   H3    S    
C1    C3    S    
C29   H12   S    
C8    H28   S    
C2    C30   A    
C7    C34   A    
C25   C26   S    
C12   C29   S    
C22   C29   S    
C27   C28   S    
C13   C14   A    
C16   O6    A    
C19   C24   S    
C15   N1    A    
O7    Zn1   S    
C22   H9    S    
C26   H11   S    
C17   N2    A    
C4    C24   S    
Br2   C6    S    
O3    Zn1   S    
C33   H26   S    
N2    Zn1   S    
C11   C13   A    
C26   H14   S    
C4    O3    A    
C12   C18   S    
C1    O2    A    
C2    C3    A    
C21   C23   S    
C22   C24   S    
C19   H27   S    
C14   N1    A    
C20   C27   S    
C25   H15   S    
C19   H1    S    
C16   O5    A    
C6    C7    A    
C22   H8    S    
C10   H2    S    
C17   H4    S    
C8    C9    A    
O6    Zn2   S    
C8    C14   A    
Br1   C23   S    
C20   H5    S    
O5    Zn1   S    
C10   C11   A    
C31   H25   S    
C28   H18   S    
