data_mof_unit_66845.cif
_audit_creation_date              2013-03-05T15:53:54-0500
_audit_creation_method            fapswitch 2.2
_symmetry_space_group_name_H-M    P1
_symmetry_Int_Tables_number       1
_space_group_crystal_system       triclinic
_cell_length_a                    8.513107
_cell_length_b                    14.511984
_cell_length_c                    16.394646
_cell_angle_alpha                 93.246264
_cell_angle_beta                  92.828253
_cell_angle_gamma                 90.990299
_cell_volume                      2019.30589552

loop_
_atom_site_label
_atom_site_type_symbol
_atom_site_description
_atom_site_fract_x
_atom_site_fract_y
_atom_site_fract_z
_atom_type_partial_charge
P1    P     P_3+3 0.934880 0.713230 0.554140 0.508984
O1    O     O_2   0.106830 0.727750 0.529310 -0.412375
O2    O     O_3   0.863420 0.611560 0.536200 -0.365899
O3    O     O_3   0.352370 0.670610 0.385960 -0.370918
O4    O     O_2   0.249896 0.844983 0.396098 -0.427125
O5    O     O_3   0.919802 0.750717 0.658815 -0.554917
O6    O     O_3   0.414785 0.799092 0.265338 -0.606989
H1    H     H_    0.169953 0.781759 0.257104 0.137643
C1    C     C_3   0.244569 0.889860 0.181082 -0.492057
H2    H     H_    0.198009 0.939291 0.227853 0.196117
P2    P     P_3+3 0.367500 0.426600 0.319160 0.509312
P3    P     P_3+3 0.910984 0.609815 0.241049 0.473043
O7    O     O_2   0.193140 0.454660 0.305430 -0.364991
O8    O     O_3   0.941260 0.623660 0.347470 -0.361465
O9    O     O_2   0.054535 0.559705 0.206507 -0.372138
O10   O     O_3   0.368407 0.304579 0.310430 -0.581463
O11   O     O_3   0.923129 0.720269 0.203994 -0.581966
C2    C     C_3   0.792522 0.772699 0.226333 0.349651
H3    H     H_    0.710642 0.737644 0.266078 0.094597
H4    H     H_    0.726045 0.789523 0.169500 0.107979
C3    C     C_3   0.848096 0.863611 0.269860 -0.977533
H5    H     H_    0.918549 0.850550 0.326591 0.273520
H6    H     H_    0.919899 0.904546 0.230189 0.248316
C4    C     C_3   0.740746 0.229566 0.297985 0.433533
H7    H     H_    0.635198 0.230772 0.334431 0.102470
C5    C     C_3   0.785762 0.129332 0.275153 -1.152711
H8    H     H_    0.865913 0.101853 0.322285 0.270637
H9    H     H_    0.678277 0.084371 0.266158 0.260934
H10   H     H_    0.847649 0.123582 0.217170 0.251843
Ba1   Ba    Ba6+2 0.152520 0.545410 0.458840 1.640767
C6    C     C_3   0.013896 0.712996 0.721787 0.244560
H11   H     H_    0.053333 0.643173 0.702256 -0.026006
C7    C     C_3   0.910115 0.708876 0.799865 -0.630325
H12   H     H_    0.792697 0.680682 0.777335 0.177549
C8    C     C_3   0.215406 0.265108 0.300156 0.582551
H13   H     H_    0.136813 0.304733 0.339375 0.158815
C9    C     C_3   0.151606 0.265197 0.209940 -0.759467
H14   H     H_    0.130892 0.336751 0.192341 0.220837
H15   H     H_    0.035985 0.229487 0.203571 0.163920
P4    P     P_3+3 0.875420 0.286760 0.445790 0.493926
O12   O     O_2   0.703470 0.272190 0.470670 -0.370556
O13   O     O_3   0.946880 0.388430 0.463740 -0.347398
O14   O     O_3   0.457930 0.329380 0.613970 -0.334107
O15   O     O_3   0.869168 0.279033 0.337744 -0.586203
P5    P     P_3+3 0.897247 0.389813 0.760282 0.554118
O16   O     O_3   0.367050 0.547540 0.594170 -0.410177
O17   O     O_3   0.869040 0.376330 0.652460 -0.315683
O18   O     O_2   0.765825 0.453634 0.788759 -0.283228
O19   O     O_3   0.838659 0.286539 0.801420 -0.483372
Ba2   Ba    Ba6+2 0.657660 0.454590 0.541090 1.638651
P6    P     P_3+3 0.393870 0.787636 0.370798 0.445601
C10   C     C_3   0.270470 0.795439 0.218935 0.594962
H16   H     H_    0.359775 0.918334 0.163890 0.225975
O20   O     O_3   0.443250 0.452450 0.405760 -0.362852
C11   C     C_3   0.539354 0.754034 0.677178 0.238533
H17   H     H_    0.653583 0.722208 0.668605 0.112868
C12   C     C_3   0.561252 0.849437 0.723176 -0.684508
H18   H     H_    0.612513 0.842718 0.785394 0.199490
H19   H     H_    0.446436 0.881720 0.731198 0.220559
P7    P     P_3+3 0.442084 0.578886 0.694959 0.487616
O21   O     O_2   0.617170 0.545280 0.694550 -0.333937
O22   O     O_3   0.445656 0.698122 0.723312 -0.593399
H20   H     H_    0.744697 0.905461 0.284624 0.244273
C13   C     C_3   0.969332 0.233134 0.822705 0.605820
H21   H     H_    0.077756 0.273933 0.839056 -0.016780
C14   C     C_3   0.934720 0.183450 0.900241 -0.875140
H22   H     H_    0.815458 0.151778 0.895453 0.298886
H23   H     H_    0.021068 0.129311 0.912301 0.228155
H24   H     H_    0.939649 0.234063 0.953563 0.230963
P8    P     P_3+3 0.438182 0.206653 0.612519 0.520874
C15   C     C_3   0.393416 0.191895 0.768054 0.341874
H25   H     H_    0.290122 0.228703 0.743258 -0.050876
O23   O     O_2   0.564603 0.168600 0.556573 -0.389483
O24   O     O_3   0.503299 0.170674 0.708550 -0.491710
H26   H     H_    0.270203 0.058339 0.752613 0.201771
C16   C     C_3   0.332392 0.101788 0.802499 -0.688744
H27   H     H_    0.246154 0.120114 0.848573 0.167151
C17   C     C_R   0.015994 0.935759 0.530772 -0.030458
C18   C     C_R   0.830864 0.801169 0.492158 0.258140
C19   C     C_R   0.693187 0.770757 0.448366 -0.457410
C20   C     C_R   0.580841 0.832914 0.421959 0.354431
C21   C     C_R   0.616320 0.927863 0.428552 -0.282510
C22   C     C_R   0.763385 0.961482 0.462194 0.060535
C23   C     C_R   0.871721 0.898603 0.495834 -0.033217
H28   H     H_    0.668569 0.697440 0.438968 0.195736
C24   C     C_R   0.947172 0.094333 0.496043 0.014876
C25   C     C_R   0.055290 0.031208 0.530733 0.034399
C26   C     C_R   0.989912 0.191538 0.497806 0.125820
C27   C     C_R   0.131832 0.219262 0.539380 -0.400236
C28   C     C_R   0.240941 0.158336 0.570856 0.134111
C29   C     C_R   0.202315 0.063962 0.566208 -0.261811
C30   C     C_R   0.800934 0.057389 0.463415 -0.206222
H29   H     H_    0.531538 0.975017 0.404347 0.152558
H30   H     H_    0.285893 0.016280 0.590954 0.227747
H31   H     H_    0.100398 0.891022 0.557894 0.228892
H32   H     H_    0.714875 0.102649 0.437711 0.184986
C31   C     C_R   0.625884 0.521410 0.264815 -0.376816
C32   C     C_R   0.480633 0.480032 0.241345 0.259832
C33   C     C_R   0.430891 0.470996 0.158220 -0.202961
C34   C     C_R   0.528196 0.503031 0.097774 0.173653
C35   C     C_R   0.676029 0.542748 0.122907 -0.345902
C36   C     C_R   0.724285 0.551838 0.206199 0.263517
C37   C     C_R   0.389194 0.515098 0.851704 -0.108198
C38   C     C_R   0.333020 0.518642 0.770208 0.293712
C39   C     C_R   0.295173 0.474457 0.909586 0.147931
N1    N     N_2   0.481298 0.500235 0.012461 -0.060643
N2    N     N_2   0.343429 0.471955 0.994502 -0.061385
C40   C     C_R   0.182490 0.485579 0.746617 -0.389389
H33   H     H_    0.503976 0.545069 0.869523 0.172712
H34   H     H_    0.751804 0.568526 0.077787 0.188474
C41   C     C_R   0.089441 0.442169 0.800721 0.182850
C42   C     C_R   0.144297 0.439136 0.883221 -0.297352
H35   H     H_    0.317633 0.439023 0.141148 0.161442
H36   H     H_    0.070082 0.409064 0.926894 0.165126
H37   H     H_    0.664484 0.528063 0.328823 0.159498
H38   H     H_    0.134870 0.496979 0.685933 0.185818
C43   C     C_2   0.152740 0.777855 0.742362 1.099048
O25   O     O_2   0.174611 0.844128 0.700903 -0.612634
O26   O     O_R   0.242657 0.769616 0.815151 -0.747203
H39   H     H_    0.318540 0.823395 0.829431 0.357273
C44   C     C_2   0.878926 0.801241 0.845441 1.076642
O27   O     O_2   0.937396 0.874101 0.825940 -0.606133
O28   O     O_R   0.781654 0.802029 0.912180 -0.802749
H40   H     H_    0.771097 0.866323 0.939168 0.308957
C45   C     C_2   0.967886 0.645524 0.865042 1.035703
O29   O     O_2   0.877745 0.586645 0.887695 -0.614045
O30   O     O_R   0.111464 0.662902 0.908947 -0.754163
H41   H     H_    0.123978 0.624877 0.958892 0.316901
N3    N     N_2   0.210359 0.171668 0.328748 -0.135407
H42   H     H_    0.136910 0.123529 0.296676 0.173926
C46   C     C_3   0.347655 0.134237 0.368840 -0.815677
H43   H     H_    0.312014 0.072560 0.400948 0.235711
H44   H     H_    0.402639 0.185473 0.414743 0.279948
H45   H     H_    0.432667 0.113126 0.322778 0.253718
N4    N     N_2   0.137199 0.881524 0.109035 -0.097752
H46   H     H_    0.031939 0.848094 0.116956 0.217786
C47   C     C_3   0.118815 0.963938 0.064306 -0.728211
H47   H     H_    0.039609 0.948566 0.009144 0.248116
H48   H     H_    0.234232 0.987439 0.043613 0.274904
H49   H     H_    0.066302 0.019335 0.103174 0.231985
C48   C     C_2   0.255803 0.217665 0.150217 1.206336
O31   O     O_2   0.289035 0.255642 0.088413 -0.618860
O32   O     O_R   0.312115 0.129648 0.164358 -0.811217
H50   H     H_    0.384969 0.106302 0.121020 0.338529
N5    N     N_2   0.273703 0.720680 0.155659 -0.101629
H51   H     H_    0.166409 0.704265 0.126141 0.202456
C49   C     C_3   0.400881 0.721669 0.100277 -0.788684
H52   H     H_    0.377191 0.668842 0.049471 0.248800
H53   H     H_    0.511691 0.704663 0.133283 0.231459
H54   H     H_    0.412761 0.789501 0.072949 0.258418
C50   C     C_2   0.460865 0.763574 0.595571 0.898155
O33   O     O_2   0.385478 0.831451 0.578499 -0.610293
O34   O     O_R   0.469114 0.690214 0.539839 -0.776926
H55   H     H_    0.359725 0.675481 0.518181 0.396111
C51   C     C_2   0.656223 0.915408 0.678167 1.088861
O35   O     O_2   0.797661 0.906983 0.675307 -0.612123
O36   O     O_R   0.581394 0.986612 0.639250 -0.757813
H56   H     H_    0.657934 0.024774 0.609508 0.342125
N6    N     N_2   0.004147 0.170535 0.754277 -0.155835
H57   H     H_    0.035495 0.204883 0.703851 0.145306
C52   C     C_3   0.894032 0.096242 0.732041 -0.674778
H58   H     H_    0.936293 0.057049 0.677954 0.241345
H59   H     H_    0.776872 0.124175 0.716369 0.300891
H60   H     H_    0.887443 0.048396 0.782446 0.300858
C53   C     C_2   0.468531 0.257656 0.833597 1.001375
O37   O     O_2   0.519771 0.331859 0.814185 -0.581101
O38   O     O_R   0.476956 0.236091 0.915816 -0.795051
H61   H     H_    0.529598 0.287055 0.952924 0.351015
C54   C     C_2   0.454989 0.044146 0.843567 1.196360
O39   O     O_2   0.594473 0.054370 0.830942 -0.658516
O40   O     O_R   0.406756 0.977995 0.896743 -0.816116
H62   H     H_    0.498279 0.943241 0.921212 0.310686
C55   C     C_2   0.173151 0.314848 0.548798 1.083896
O41   O     O_2   0.151178 0.357400 0.612798 -0.684614
O42   O     O_R   0.257272 0.353260 0.489165 -0.761437
H63   H     H_    0.308256 0.412189 0.512717 0.392379
C56   C     C_2   0.701812 0.275722 0.219712 0.975089
O43   O     O_2   0.587001 0.249911 0.176353 -0.641367
O44   O     O_R   0.802370 0.344491 0.194155 -0.795538
H64   H     H_    0.772689 0.362889 0.136783 0.319374

loop_
_geom_bond_atom_site_label_1
_geom_bond_atom_site_label_2
_geom_bond_distance
_ccdc_geom_bond_type
C17   C25   1.419380 A    
C14   H23   1.104498 S    
O40   H62   1.013912 S    
C53   O37   1.219598 D    
C25   C29   1.416714 A    
C51   O36   1.392090 S    
C2    C3    1.520566 S    
C54   O39   1.223330 D    
C41   C42   1.412292 A    
C4    C56   1.506093 S    
C27   C55   1.423129 S    
C11   H17   1.095625 S    
C46   H45   1.106031 S    
C48   O32   1.399558 S    
C42   H36   1.082955 S    
N5    H51   1.030075 S    
C12   H18   1.099650 S    
N4    H46   1.028976 S    
C55   O41   1.211302 D    
C22   C30   1.421444 A    
Ba1   O20   2.982933 S    
C5    H8    1.101797 S    
Ba2   O20   2.801041 S    
C9    C48   1.500575 S    
P2    C32   1.834072 S    
C8    C9    1.550352 S    
C9    H14   1.108079 S    
C4    C5    1.540964 S    
O6    C10   1.411344 S    
C2    H3    1.113280 S    
C43   O26   1.397680 S    
O10   C8    1.412316 S    
C18   C23   1.447479 A    
C24   C26   1.449035 A    
C12   H19   1.101688 S    
C14   H24   1.108184 S    
N1    N2    1.252287 D    
O32   H50   1.013798 S    
C11   O22   1.404762 S    
P4    Ba2   3.438104 S    
C30   H32   1.078535 S    
P7    O22   1.765444 S    
P1    O1    1.552664 D    
C6    C43   1.510972 S    
C49   H52   1.108126 S    
C52   H59   1.107085 S    
O36   H56   1.009212 S    
N6    H57   1.032947 S    
P2    Ba1   3.412009 S    
C56   O44   1.399138 S    
P3    O11   1.749232 S    
P8    O24   1.753752 S    
C50   O33   1.223053 D    
C6    C7    1.594092 S    
C31   H37   1.082547 S    
C1    H2    1.112276 S    
P6    C20   1.854316 S    
C31   C36   1.391015 A    
C39   N2    1.434590 S    
C38   C40   1.389534 A    
P4    O13   1.592396 S    
O5    C6    1.415881 S    
Ba1   Ba2   4.676861 S    
C53   O38   1.399682 S    
C21   H29   1.079920 S    
C3    H5    1.108850 S    
C7    C44   1.530984 S    
C54   O40   1.402382 S    
P8    C28   1.889327 S    
C1    C10   1.550652 S    
O8    Ba1   2.799857 S    
C8    N3    1.460227 S    
N5    C49   1.447315 S    
O2    Ba2   2.856638 S    
C31   C32   1.392432 A    
O17   Ba2   2.800553 S    
P5    O17   1.771446 S    
C47   H49   1.111168 S    
C49   H53   1.102904 S    
C3    H20   1.106853 S    
O3    P6    1.762522 S    
P1    O5    1.782094 S    
C35   C36   1.404710 A    
O7    Ba1   2.811785 S    
O28   H40   1.017094 S    
C49   H54   1.109491 S    
C16   H27   1.104086 S    
O38   H61   1.014213 S    
C10   N5    1.459572 S    
C24   C25   1.430497 A    
C35   H34   1.083215 S    
C20   C21   1.402525 A    
C18   C19   1.395400 A    
P7    O21   1.576485 D    
P1    O2    1.592379 S    
C8    H13   1.098009 S    
C13   C14   1.534926 S    
O2    Ba1   2.973066 S    
H26   C16   1.110901 S    
P3    C36   1.835819 S    
C19   H28   1.081767 S    
C47   H48   1.109618 S    
P2    O10   1.768631 S    
C33   C34   1.415718 A    
P3    O9    1.547686 D    
P5    O19   1.752612 S    
C17   H31   1.073687 S    
P8    O23   1.537883 D    
C7    C45   1.517882 S    
O11   C2    1.409667 S    
P7    C38   1.831797 S    
C37   C39   1.418107 A    
C4    H7    1.103207 S    
P2    O20   1.553483 S    
C44   O27   1.226277 D    
C55   O42   1.377087 S    
O13   Ba2   2.973909 S    
C1    N4    1.455600 S    
P4    O12   1.553021 D    
C39   C42   1.413033 A    
P3    O8    1.750719 S    
C32   C33   1.405224 A    
O14   P8    1.784738 S    
C11   C12   1.542464 S    
C45   O29   1.224049 D    
C4    O15   1.408907 S    
C22   C23   1.422431 A    
C1    H16   1.112902 S    
C46   H43   1.109062 S    
O12   Ba2   2.868018 S    
C37   C38   1.400730 A    
C52   H60   1.111914 S    
N3    H42   1.032648 S    
P5    O18   1.538134 D    
N4    C47   1.444686 S    
H1    C10   1.106472 S    
O16   P7    1.773715 S    
C34   N1    1.433618 S    
Ba1   O16   2.801674 S    
C6    H11   1.107971 S    
Ba1   O13   2.856156 S    
C19   C20   1.396057 A    
C46   H44   1.108217 S    
C33   H35   1.080032 S    
C15   O24   1.409819 S    
O26   H39   1.013986 S    
P5    C41   1.867300 S    
O14   Ba2   2.821343 S    
C11   C50   1.480412 S    
C47   H47   1.110892 S    
O16   Ba2   2.982000 S    
C5    H9    1.113514 S    
C40   C41   1.387986 A    
O1    Ba1   2.867350 S    
C37   H33   1.082628 S    
O19   C13   1.407847 S    
C13   H21   1.101408 S    
C40   H38   1.078283 S    
C3    H6    1.104529 S    
N6    C52   1.435581 S    
O34   H55   0.995431 S    
O6    P6    1.763707 S    
C15   H25   1.108777 S    
C9    H15   1.101999 S    
O42   H63   1.001019 S    
C24   C30   1.414992 A    
C43   O25   1.225553 D    
C29   H30   1.081658 S    
P2    O7    1.555013 D    
P4    C26   1.919577 S    
C28   C29   1.399914 A    
C15   C16   1.545246 S    
C52   H58   1.104837 S    
P1    C18   1.882145 S    
C13   N6    1.448567 S    
P1    Ba1   3.437419 S    
C7    H12   1.111455 S    
C14   H22   1.104602 S    
C2    H4    1.107497 S    
C50   O34   1.368175 S    
C16   C54   1.505638 S    
C44   O28   1.404067 S    
C56   O43   1.220473 D    
O44   H64   1.013481 S    
C17   C23   1.414229 A    
P4    O15   1.766679 S    
C26   C27   1.398935 A    
C5    H10   1.109128 S    
C21   C22   1.410658 A    
C15   C53   1.506404 S    
C51   O35   1.215307 D    
C45   O30   1.399170 S    
Ba2   O21   2.811946 S    
O4    P6    1.553456 D    
C34   C35   1.408093 A    
C27   C28   1.394113 A    
C48   O31   1.223351 D    
O3    Ba1   2.821874 S    
O30   H41   1.015350 S    
C12   C51   1.492278 S    
N3    C46   1.442152 S    
