data_mof_unit_59174.cif
_audit_creation_date              2012-12-10T16:44:45-0500
_audit_creation_method            fapswitch 2.2
_symmetry_space_group_name_H-M    P1
_symmetry_Int_Tables_number       1
_space_group_crystal_system       triclinic
_cell_length_a                    15.038028
_cell_length_b                    8.741271
_cell_length_c                    7.443782
_cell_angle_alpha                 102.893076
_cell_angle_beta                  94.541863
_cell_angle_gamma                 92.768345
_cell_volume                      948.637678178

loop_
_atom_site_label
_atom_site_type_symbol
_atom_type_description
_atom_site_fract_x
_atom_site_fract_y
_atom_site_fract_z
_atom_type_partial_charge
C1    C     C_R   0.492513 0.200042 0.453802 0.809624
C2    C     C_R   0.498547 0.799297 0.546485 0.805700
C3    C     C_R   0.030905 0.390302 0.167901 -0.217079
C4    C     C_R   0.969327 0.612973 0.832078 -0.210175
C5    C     C_2   0.480890 0.032265 0.427217 0.175989
C6    C     C_2   0.489786 0.965412 0.573883 0.174731
C7    C     C_R   0.328716 0.499035 0.501580 0.764649
C8    C     C_R   0.671322 0.501426 0.498487 0.814437
C9    C     C_R   0.822368 0.558153 0.663671 -0.242610
C10   C     C_R   0.177775 0.443973 0.336447 -0.261569
C11   C     C_R   0.768153 0.503936 0.496903 -0.067393
C12   C     C_R   0.231984 0.497747 0.503252 -0.060779
C13   C     C_R   0.806598 0.450597 0.330843 -0.245611
C14   C     C_R   0.193638 0.551968 0.669253 -0.270407
C15   C     C_R   0.899187 0.448593 0.331016 0.100275
C16   C     C_R   0.101060 0.554566 0.669017 0.105220
C17   C     C_R   0.953564 0.502614 0.499228 0.064993
C18   C     C_R   0.046666 0.500587 0.500800 0.067706
C19   C     C_R   0.914914 0.558416 0.665938 0.098074
C20   C     C_R   0.085287 0.444539 0.334102 0.099489
C21   C     C_R   0.938268 0.392509 0.166314 -0.214476
C22   C     C_R   0.061987 0.610925 0.833654 -0.225880
Cu1   Cu    Cu3+1 0.510010 0.517380 0.684380 0.983222
Cu2   Cu    Cu3+1 0.489990 0.482620 0.315620 0.970432
H1    H     H_    0.792618 0.600637 0.792031 0.158454
H2    H     H_    0.207480 0.401024 0.208116 0.150686
H3    H     H_    0.764547 0.408341 0.202258 0.164589
H4    H     H_    0.235743 0.594207 0.797807 0.147147
H5    H     H_    0.897247 0.350616 0.036451 0.156756
H6    H     H_    0.103026 0.652913 0.963486 0.148518
H7    H     H_    0.060034 0.346625 0.039208 0.154896
H8    H     H_    0.940198 0.656623 0.960764 0.157067
H9    H     H_    0.426353 0.385266 0.949283 0.220038
H10   H     H_    0.572331 0.617984 0.051108 0.240188
N1    N     N_2   0.474890 0.456420 0.038520 -0.203913
N2    N     N_2   0.525110 0.543580 0.961480 -0.192750
O1    O     O_R   0.506510 0.286130 0.619770 -0.554205
O2    O     O_R   0.493490 0.713870 0.380230 -0.560146
O3    O     O_R   0.489600 0.256770 0.308360 -0.557058
O4    O     O_R   0.510400 0.743230 0.691640 -0.547358
O5    O     O_R   0.378710 0.514640 0.655720 -0.607750
O6    O     O_R   0.621290 0.485360 0.344280 -0.589999
O7    O     O_R   0.361800 0.485290 0.344300 -0.604018
O8    O     O_R   0.638200 0.514710 0.655700 -0.586239
O9    O     O_3   0.463644 0.944010 0.246906 -0.545216
C23   C     C_3   0.370088 0.913921 0.208699 -0.287701
H11   H     H_    0.336526 0.024633 0.208500 0.126449
H12   H     H_    0.340812 0.852636 0.308638 0.140333
H13   H     H_    0.355970 0.834914 0.069295 0.187728
O10   O     O_3   0.492256 0.052134 0.754784 -0.539877
C24   C     C_3   0.403925 0.053650 0.806498 -0.257338
H14   H     H_    0.372893 0.932619 0.790932 0.139784
H15   H     H_    0.361594 0.119840 0.724982 0.110567
H16   H     H_    0.405562 0.114102 0.954318 0.211805

loop_
_geom_bond_atom_site_label_1
_geom_bond_atom_site_label_2
_ccdc_geom_bond_type
Cu2   O2    S    
Cu1   Cu2   S    
C7    O7    A    
C4    C22   A    
C2    O2    A    
C18   C20   A    
N1    N2    D    
Cu1   O5    S    
C1    O1    A    
C9    C11   A    
C24   H16   S    
C14   H4    S    
C10   H2    S    
C7    O5    A    
O10   C24   S    
C9    H1    S    
C3    C20   A    
C5    O9    S    
C2    C6    S    
O9    C23   S    
C6    O10   S    
C3    H7    S    
C11   C13   A    
C23   H13   S    
C8    O8    A    
C4    H8    S    
C10   C12   A    
C8    C11   S    
C1    C5    S    
H9    N1    S    
C8    O6    A    
C17   C18   A    
H10   N2    S    
C13   C15   A    
C5    C6    D    
C14   C16   A    
C7    C12   S    
C3    C21   A    
Cu2   N1    S    
C1    O3    A    
C24   H14   S    
C23   H12   S    
C2    O4    A    
C15   C21   A    
Cu2   O3    S    
Cu2   O6    S    
C16   C18   A    
Cu1   N2    S    
C10   C20   A    
C15   C17   A    
Cu2   O7    S    
C23   H11   S    
C13   H3    S    
C16   C22   A    
C22   H6    S    
C17   C19   A    
Cu1   O1    S    
C4    C19   A    
C21   H5    S    
C9    C19   A    
Cu1   O8    S    
Cu1   O4    S    
C12   C14   A    
C24   H15   S    
