data_mof_unit_11929.cif
_audit_creation_date              2012-12-10T20:45:29-0500
_audit_creation_method            fapswitch 2.2
_symmetry_space_group_name_H-M    P1
_symmetry_Int_Tables_number       1
_space_group_crystal_system       triclinic
_cell_length_a                    10.791256
_cell_length_b                    10.648362
_cell_length_c                    9.882644
_cell_angle_alpha                 90.023712
_cell_angle_beta                  91.245199
_cell_angle_gamma                 90.154799
_cell_volume                      1135.33427679

loop_
_atom_site_label
_atom_site_type_symbol
_atom_type_description
_atom_site_fract_x
_atom_site_fract_y
_atom_site_fract_z
_atom_type_partial_charge
C1    C     C_R   0.498302 0.260216 0.500108 0.900594
C2    C     C_R   0.189512 0.611687 0.981255 -0.232331
C3    C     C_R   0.931173 0.532841 0.384276 -0.186762
C4    C     C_R   0.872784 0.508091 0.505911 -0.097793
C5    C     C_R   0.942733 0.488893 0.626211 0.029978
C6    C     C_R   0.069419 0.486178 0.619088 -0.233738
C7    C     C_R   0.127676 0.506694 0.496277 -0.075133
C8    C     C_R   0.058060 0.532604 0.377435 0.076692
C9    C     C_R   0.869664 0.587069 0.837934 -0.121067
C10   C     C_R   0.824840 0.578694 0.969488 0.155734
C11   C     C_R   0.801707 0.459936 0.025298 -0.182939
C12   C     C_R   0.260090 0.502163 0.498347 0.887345
C13   C     C_R   0.822601 0.350951 0.950178 0.430608
C14   C     C_R   0.867038 0.359819 0.818738 -0.204782
C15   C     C_R   0.890110 0.478019 0.762173 0.037028
C16   C     C_R   0.532710 0.063905 0.615069 0.111615
C17   C     C_R   0.487503 0.128337 0.502278 -0.105893
C18   C     C_R   0.424991 0.064625 0.397127 -0.167370
C19   C     C_R   0.425424 0.934652 0.396693 -0.191758
C20   C     C_R   0.486903 0.871353 0.502500 -0.109228
C21   C     C_R   0.531684 0.935969 0.615624 0.149321
C22   C     C_3   0.656577 0.928208 0.683522 -0.461372
C23   C     C_R   0.498098 0.739696 0.500110 0.876542
C24   C     C_3   0.658331 0.070493 0.681605 -0.451245
C25   C     C_R   0.511983 0.390585 0.071150 0.226182
C26   C     C_R   0.497503 0.609495 0.071840 -0.115054
C27   C     C_R   0.497915 0.609539 0.928185 -0.111037
C28   C     C_R   0.511518 0.390592 0.928959 0.212162
C29   C     C_3   0.427288 0.279612 0.921373 -0.447508
C30   C     C_3   0.429099 0.278709 0.075034 -0.440605
C31   C     C_R   0.740072 0.502228 0.501971 0.881856
C32   C     C_R   0.186848 0.706866 0.078657 0.438562
C33   C     C_R   0.147382 0.679985 0.209452 -0.266682
C34   C     C_R   0.111186 0.557481 0.243416 -0.004499
C35   C     C_R   0.116179 0.461537 0.145688 0.428007
C36   C     C_R   0.154967 0.489357 0.015093 -0.274617
H1    H     H_    0.219005 0.632256 0.879624 0.187372
H2    H     H_    0.766433 0.451445 0.126353 0.180474
H3    H     H_    0.884002 0.275306 0.761061 0.169969
H4    H     H_    0.380233 0.114607 0.314321 0.187781
H5    H     H_    0.382396 0.884312 0.312661 0.197489
H6    H     H_    0.651618 0.888314 0.787209 0.210655
H7    H     H_    0.727568 0.884987 0.618244 0.199735
H8    H     H_    0.655890 0.112650 0.784117 0.239930
H9    H     H_    0.729714 0.110588 0.614387 0.207327
H10   H     H_    0.493570 0.697912 0.125247 0.178529
H11   H     H_    0.494307 0.697994 0.874719 0.170838
H12   H     H_    0.335344 0.302242 0.875142 0.210756
H13   H     H_    0.472791 0.196046 0.877735 0.219645
H14   H     H_    0.338035 0.299596 0.119736 0.239939
H15   H     H_    0.477760 0.195559 0.118111 0.227976
H16   H     H_    0.143087 0.754497 0.283873 0.176197
H17   H     H_    0.157408 0.415963 0.939736 0.176426
H18   H     H_    0.878181 0.552958 0.293142 0.164572
H19   H     H_    0.122480 0.468214 0.711189 0.165878
H20   H     H_    0.888889 0.678351 0.794466 0.153320
N1    N     N_R   0.499160 0.499140 0.142800 -0.124090
N2    N     N_R   0.499160 0.499180 0.857150 -0.118824
O1    O     O_R   0.500020 0.316790 0.614690 -0.620379
O2    O     O_R   0.500000 0.316760 0.385350 -0.612170
O3    O     O_R   0.316770 0.500030 0.614670 -0.634110
O4    O     O_R   0.316750 0.499990 0.385330 -0.607460
O5    O     O_R   0.500000 0.683240 0.614650 -0.625152
O6    O     O_R   0.499980 0.683210 0.385310 -0.633033
O7    O     O_R   0.683250 0.500010 0.614670 -0.612263
O8    O     O_R   0.683230 0.499970 0.385330 -0.626799
Zn1   Zn    Zn3+2 0.500010 0.500020 0.653130 0.950808
Zn2   Zn    Zn3+2 0.499990 0.499980 0.346870 0.960542
Cl1   Cl    Cl    0.793025 0.203247 0.021408 -0.598849
Cl2   Cl    Cl    0.231597 0.860135 0.036275 -0.635009
Cl3   Cl    Cl    0.074614 0.305913 0.184622 -0.573761
C37   C     C_3   0.802580 0.696647 0.048313 -0.864196
H21   H     H_    0.891982 0.745953 0.067707 0.271139
H22   H     H_    0.739626 0.759418 0.989464 0.241719
H23   H     H_    0.758877 0.676643 0.146602 0.236266

loop_
_geom_bond_atom_site_label_1
_geom_bond_atom_site_label_2
_ccdc_geom_bond_type
C31   O8    A    
O8    Zn2   S    
C30   H15   S    
C16   C21   A    
C35   C36   A    
C6    H19   S    
C7    C8    A    
C29   H13   S    
C33   H16   S    
C26   C27   A    
C24   H9    S    
O6    Zn2   S    
C28   C29   S    
C18   C19   A    
C1    O1    A    
C5    C6    A    
C3    H18   S    
C27   H11   S    
C2    C32   A    
C34   C35   A    
C18   H4    S    
C36   H17   S    
O1    Zn1   S    
C14   H3    S    
C19   C20   A    
C16   C17   A    
O7    Zn1   S    
C9    C10   A    
C23   O5    A    
C30   H14   S    
C35   Cl3   S    
C16   C24   S    
C21   C22   S    
C25   N1    A    
C37   H23   S    
C33   C34   A    
C7    C12   S    
O5    Zn1   S    
C29   H12   S    
C37   H22   S    
C3    C8    A    
C1    O2    A    
C4    C5    A    
C32   Cl2   S    
C25   C28   A    
C11   H2    S    
C29   C30   S    
C12   O4    A    
O3    Zn1   S    
C22   H7    S    
C20   C23   S    
C17   C18   A    
C9    H20   S    
C8    C34   S    
C23   O6    A    
C24   H8    S    
C22   C24   S    
N1    Zn2   S    
C3    C4    A    
C2    C36   A    
C25   C30   S    
C31   O7    A    
C37   H21   S    
C27   N2    A    
C6    C7    A    
C28   N2    A    
C1    C17   S    
O4    Zn2   S    
C32   C33   A    
C9    C15   A    
C12   O3    A    
C11   C13   A    
C2    H1    S    
C22   H6    S    
C13   Cl1   S    
C26   N1    A    
C5    C15   S    
C4    C31   S    
C10   C11   A    
C26   H10   S    
N2    Zn1   S    
C20   C21   A    
O2    Zn2   S    
C14   C15   A    
C13   C14   A    
C19   H5    S    
C10   C37   S    
