data_mof_unit_38919.cif
_audit_creation_date              2012-12-11T14:42:02-0500
_audit_creation_method            fapswitch 2.2
_symmetry_space_group_name_H-M    P1
_symmetry_Int_Tables_number       1
_space_group_crystal_system       triclinic
_cell_length_a                    18.966426
_cell_length_b                    10.91833
_cell_length_c                    18.848578
_cell_angle_alpha                 89.572188
_cell_angle_beta                  90.683835
_cell_angle_gamma                 89.827235
_cell_volume                      3902.7899307

loop_
_atom_site_label
_atom_site_type_symbol
_atom_type_description
_atom_site_fract_x
_atom_site_fract_y
_atom_site_fract_z
_atom_type_partial_charge
C1    C     C_R   0.726043 0.958711 0.855094 0.564081
C2    C     C_R   0.271957 0.955386 0.146651 0.564380
C3    C     C_R   0.226043 0.458711 0.855094 0.564081
C4    C     C_R   0.771957 0.455386 0.146651 0.564384
C5    C     C_R   0.695333 0.471943 0.036596 0.141861
C6    C     C_R   0.306233 0.448564 0.961885 0.127834
C7    C     C_R   0.195333 0.971943 0.036596 0.141860
C8    C     C_R   0.806233 0.948564 0.961885 0.127833
C9    C     C_R   0.750464 0.414260 0.076234 0.021113
C10   C     C_R   0.239387 0.433471 0.929784 0.029313
C11   C     C_R   0.250464 0.914260 0.076234 0.021112
C12   C     C_R   0.739387 0.933471 0.929784 0.029312
C13   C     C_R   0.796394 0.333939 0.042406 -0.137350
C14   C     C_R   0.179959 0.414236 0.972151 -0.138962
C15   C     C_R   0.296394 0.833939 0.042406 -0.137351
C16   C     C_R   0.679959 0.914236 0.972151 -0.138963
C17   C     C_R   0.794453 0.323492 0.969948 -0.102834
C18   C     C_R   0.186454 0.406341 0.044657 -0.116103
C19   C     C_R   0.294453 0.823492 0.969948 -0.102834
C20   C     C_R   0.686454 0.906341 0.044657 -0.116102
C21   C     C_R   0.743875 0.387978 0.929454 -0.009365
C22   C     C_R   0.252864 0.413601 0.076420 -0.014164
C23   C     C_R   0.243875 0.887978 0.929454 -0.009365
C24   C     C_R   0.752864 0.913601 0.076420 -0.014163
C25   C     C_R   0.472534 0.213018 0.546429 -0.045076
C26   C     C_R   0.451128 0.209015 0.476806 -0.075611
C27   C     C_R   0.972504 0.712829 0.546446 -0.044963
C28   C     C_R   0.951097 0.708820 0.476822 -0.075592
C29   C     C_R   0.496828 0.165187 0.425452 0.089517
C30   C     C_R   0.539568 0.170064 0.565125 0.049308
C31   C     C_R   0.996831 0.665178 0.425453 0.089543
C32   C     C_R   0.039582 0.670073 0.565123 0.049349
C33   C     C_R   0.562435 0.115097 0.443902 -0.056574
C34   C     C_R   0.584049 0.117675 0.514699 -0.103531
C35   C     C_R   0.062487 0.615285 0.443884 -0.056579
C36   C     C_R   0.084110 0.617880 0.514677 -0.103668
C37   C     C_R   0.815202 0.424744 0.548857 0.175043
C38   C     C_R   0.211468 0.290208 0.478697 0.150287
C39   C     C_R   0.315200 0.924767 0.548860 0.175102
C40   C     C_R   0.711477 0.790172 0.478701 0.150238
C41   C     C_R   0.824774 0.420953 0.475979 0.132345
C42   C     C_R   0.212948 0.303263 0.552103 0.147665
C43   C     C_R   0.324773 0.920973 0.475982 0.132378
C44   C     C_R   0.712947 0.803240 0.552108 0.147633
C45   C     C_R   0.528515 0.177100 0.849968 0.584494
C46   C     C_R   0.469894 0.176747 0.148796 0.570758
C47   C     C_R   0.028515 0.677100 0.849968 0.584487
C48   C     C_R   0.969893 0.676747 0.148796 0.570754
C49   C     C_R   0.764853 0.427880 0.429263 -0.002683
C50   C     C_R   0.254237 0.396596 0.582771 -0.010095
C51   C     C_R   0.264853 0.927894 0.429265 -0.002699
C52   C     C_R   0.754243 0.896565 0.582778 -0.010127
C53   C     C_R   0.696860 0.418896 0.456628 0.134236
C54   C     C_R   0.307400 0.452923 0.541799 0.094823
C55   C     C_R   0.196858 0.918921 0.456629 0.134205
C56   C     C_R   0.807428 0.952844 0.541814 0.094876
C57   C     C_R   0.688531 0.408276 0.529352 -0.111365
C58   C     C_R   0.312327 0.426228 0.470045 -0.163637
C59   C     C_R   0.188529 0.908292 0.529353 -0.111385
C60   C     C_R   0.812367 0.926125 0.470062 -0.163592
C61   C     C_R   0.747412 0.410382 0.575367 -0.009574
C62   C     C_R   0.263686 0.348228 0.437119 -0.063782
C63   C     C_R   0.247410 0.910391 0.575368 -0.009567
C64   C     C_R   0.763707 0.848169 0.437127 -0.063814
C65   C     C_R   0.737114 0.358449 0.854763 0.557150
C66   C     C_R   0.261762 0.364903 0.147511 0.553022
C67   C     C_R   0.237114 0.858448 0.854763 0.557153
C68   C     C_R   0.761762 0.864903 0.147511 0.553026
C69   C     C_R   0.729563 0.951223 0.649213 0.560893
C70   C     C_R   0.274961 0.958464 0.354651 0.576483
C71   C     C_R   0.229562 0.451228 0.649212 0.560923
C72   C     C_R   0.774960 0.458459 0.354650 0.576484
C73   C     C_R   0.562661 0.180685 0.637336 0.522795
C74   C     C_R   0.472445 0.175271 0.353718 0.551675
C75   C     C_R   0.062668 0.680688 0.637337 0.522788
C76   C     C_R   0.972443 0.675271 0.353720 0.551645
C77   C     C_R   0.738988 0.363747 0.646736 0.578494
C78   C     C_R   0.272325 0.317499 0.361840 0.545625
C79   C     C_R   0.238988 0.863748 0.646737 0.578497
C80   C     C_R   0.772332 0.817474 0.361839 0.545642
C81   C     C_2   0.496238 0.168554 0.920162 -0.097567
C82   C     C_2   0.498764 0.164785 0.076923 -0.116255
C83   C     C_2   0.996238 0.668554 0.920162 -0.097567
C84   C     C_2   0.998764 0.664785 0.076923 -0.116257
C85   C     C_2   0.490696 0.061462 0.037176 0.132726
C86   C     C_2   0.492939 0.062986 0.957793 0.125941
C87   C     C_2   0.990696 0.561462 0.037176 0.132726
C88   C     C_2   0.992939 0.562986 0.957793 0.125940
C89   C     C_R   0.692942 0.458656 0.963216 -0.105342
C90   C     C_R   0.312495 0.438519 0.035276 -0.109808
C91   C     C_R   0.192942 0.958656 0.963216 -0.105341
C92   C     C_R   0.812495 0.938519 0.035276 -0.109808
Cr1   Cr    Cr6+3 0.769270 0.163730 0.750710 1.153307
Cr2   Cr    Cr6+3 0.230730 0.163730 0.249290 1.151600
Cr3   Cr    Cr6+3 0.269270 0.663730 0.750710 1.153298
Cr4   Cr    Cr6+3 0.730730 0.663730 0.249290 1.151589
Cr5   Cr    Cr6+3 0.612620 0.009790 0.748780 1.150554
Cr6   Cr    Cr6+3 0.387380 0.009790 0.251220 1.126340
Cr7   Cr    Cr6+3 0.112620 0.509790 0.748780 1.150560
Cr8   Cr    Cr6+3 0.887380 0.509790 0.251220 1.126350
Cr9   Cr    Cr6+3 0.614160 0.322500 0.747710 1.108991
Cr10  Cr    Cr6+3 0.385840 0.322500 0.252290 1.088191
Cr11  Cr    Cr6+3 0.114160 0.822500 0.747710 1.109004
Cr12  Cr    Cr6+3 0.885840 0.822500 0.252290 1.088200
H1    H     H_    0.832268 0.262269 0.946046 0.214044
H2    H     H_    0.139993 0.387382 0.075618 0.208131
H3    H     H_    0.332268 0.762270 0.946046 0.214044
H4    H     H_    0.639993 0.887381 0.075618 0.208131
O1    O     O_R   0.784320 0.290430 0.830510 -0.478990
O2    O     O_R   0.215680 0.290430 0.169490 -0.470033
O3    O     O_R   0.284320 0.790430 0.830510 -0.478989
O4    O     O_R   0.715680 0.790430 0.169490 -0.470035
O5    O     O_R   0.554640 0.080370 0.673500 -0.439536
O6    O     O_R   0.445360 0.080370 0.326500 -0.478862
O7    O     O_R   0.054640 0.580370 0.673500 -0.439550
O8    O     O_R   0.945360 0.580370 0.326500 -0.478855
O9    O     O_R   0.543920 0.282180 0.666790 -0.488842
O10   O     O_R   0.456080 0.282180 0.333210 -0.483254
O11   O     O_R   0.043920 0.782180 0.666790 -0.488797
O12   O     O_R   0.956080 0.782180 0.333210 -0.483250
O13   O     O_R   0.679040 0.374160 0.674430 -0.507648
O14   O     O_R   0.320960 0.374160 0.325570 -0.502363
O15   O     O_R   0.179040 0.874160 0.674430 -0.507653
O16   O     O_R   0.820960 0.874160 0.325570 -0.502336
O17   O     O_3   0.665350 0.165340 0.749070 -0.335084
O18   O     O_3   0.334650 0.165340 0.250930 -0.316722
O19   O     O_3   0.165350 0.665340 0.749070 -0.335093
O20   O     O_3   0.834650 0.665340 0.250930 -0.316740
O21   O     O_R   0.762640 0.040960 0.825200 -0.464105
O22   O     O_R   0.237360 0.040960 0.174800 -0.454029
O23   O     O_R   0.262640 0.540960 0.825200 -0.464107
O24   O     O_R   0.737360 0.540960 0.174800 -0.454028
O25   O     O_R   0.667400 0.923970 0.829950 -0.499804
O26   O     O_R   0.332600 0.923970 0.170050 -0.491707
O27   O     O_R   0.167400 0.423970 0.829950 -0.499804
O28   O     O_R   0.832600 0.423970 0.170050 -0.491704
O29   O     O_R   0.553960 0.081340 0.821780 -0.454598
O30   O     O_R   0.446040 0.081340 0.178220 -0.448944
O31   O     O_R   0.053960 0.581340 0.821780 -0.454602
O32   O     O_R   0.946040 0.581340 0.178220 -0.448942
O33   O     O_R   0.543180 0.283240 0.826740 -0.479515
O34   O     O_R   0.456820 0.283240 0.173260 -0.493431
O35   O     O_R   0.043180 0.783240 0.826740 -0.479515
O36   O     O_R   0.956820 0.783240 0.173260 -0.493434
O37   O     O_R   0.678360 0.375140 0.822710 -0.501645
O38   O     O_R   0.321640 0.375140 0.177290 -0.505328
O39   O     O_R   0.178360 0.875140 0.822710 -0.501645
O40   O     O_R   0.821640 0.875140 0.177290 -0.505325
O41   O     O_R   0.785050 0.289380 0.670560 -0.434228
O42   O     O_R   0.214950 0.289380 0.329440 -0.446877
O43   O     O_R   0.285050 0.789380 0.670560 -0.434221
O44   O     O_R   0.714950 0.789380 0.329440 -0.446882
O45   O     O_R   0.763320 0.039990 0.676930 -0.464965
O46   O     O_R   0.236680 0.039990 0.323070 -0.461982
O47   O     O_R   0.263320 0.539990 0.676930 -0.464977
O48   O     O_R   0.736680 0.539990 0.323070 -0.461989
O49   O     O_R   0.668130 0.922920 0.670000 -0.465508
O50   O     O_R   0.331870 0.922920 0.330000 -0.474228
O51   O     O_R   0.168130 0.422920 0.670000 -0.465481
O52   O     O_R   0.831870 0.422920 0.330000 -0.474227
Br1   Br    Br    0.482407 0.900890 0.081261 -0.411522
Br2   Br    Br    0.481084 0.908706 0.908393 -0.383092
Br3   Br    Br    0.982407 0.400890 0.081261 -0.411519
Br4   Br    Br    0.981084 0.408706 0.908393 -0.383093
Br5   Br    Br    0.920191 0.386386 0.445938 -0.324457
Br6   Br    Br    0.158813 0.189835 0.609529 -0.360324
Br7   Br    Br    0.420192 0.886421 0.445944 -0.324521
Br8   Br    Br    0.658793 0.689836 0.609532 -0.360326
Br9   Br    Br    0.615169 0.403429 0.396117 -0.425675
Br10  Br    Br    0.376671 0.564830 0.578699 -0.343690
Br11  Br    Br    0.115165 0.903498 0.396117 -0.425648
Br12  Br    Br    0.876708 0.064723 0.578724 -0.343599
H5    H     H_    0.636099 0.392453 0.549574 0.185670
H6    H     H_    0.354012 0.468496 0.439734 0.204002
H7    H     H_    0.136097 0.892473 0.549575 0.185691
H8    H     H_    0.854067 0.968360 0.439758 0.204018
H9    H     H_    0.515227 0.250274 0.053071 0.098168
H10   H     H_    0.487475 0.255821 0.945339 0.121732
H11   H     H_    0.015227 0.750274 0.053071 0.098168
H12   H     H_    0.987474 0.755821 0.945339 0.121733
H13   H     H_    0.650969 0.502408 0.932767 0.181573
H14   H     H_    0.364553 0.442495 0.059425 0.177292
H15   H     H_    0.150969 0.002408 0.932767 0.181573
H16   H     H_    0.864553 0.942495 0.059425 0.177292
Br13  Br    Br    0.621000 0.568024 0.077226 -0.410576
Br14  Br    Br    0.390898 0.475227 0.909029 -0.451321
Br15  Br    Br    0.121000 0.068024 0.077226 -0.410575
Br16  Br    Br    0.890898 0.975228 0.909029 -0.451316
H17   H     H_    0.837018 0.284021 0.071448 0.194838
H18   H     H_    0.127633 0.406821 0.949470 0.203522
H19   H     H_    0.337018 0.784021 0.071448 0.194838
H20   H     H_    0.627633 0.906821 0.949470 0.203521
H21   H     H_    0.436935 0.249531 0.585627 0.172074
H22   H     H_    0.398877 0.240341 0.462455 0.102185
H23   H     H_    0.936872 0.749184 0.585663 0.172023
H24   H     H_    0.898812 0.739988 0.462486 0.102073
H25   H     H_    0.597033 0.078544 0.403894 0.145312
H26   H     H_    0.635652 0.082751 0.529818 0.105092
H27   H     H_    0.097114 0.578880 0.403863 0.145266
H28   H     H_    0.135750 0.583116 0.529782 0.104997
Br17  Br    Br    0.895117 0.446345 0.612657 -0.342126
Br18  Br    Br    0.129949 0.208567 0.439034 -0.289721
Br19  Br    Br    0.395109 0.946409 0.612661 -0.342074
Br20  Br    Br    0.629962 0.708525 0.439032 -0.289821

loop_
_geom_bond_atom_site_label_1
_geom_bond_atom_site_label_2
_ccdc_geom_bond_type
C58   C62   A    
C87   Br3   S    
C87   C88   S    
C72   O48   A    
C40   Br20  S    
C55   C59   A    
C85   Br1   S    
C14   C18   A    
C59   H7    S    
Cr1   O41   S    
C35   C36   A    
Cr8   O8    S    
C84   C87   D    
Cr5   O25   S    
Cr11  O15   S    
C32   C75   S    
C91   H15   S    
C13   H17   S    
C46   O34   A    
C63   C79   S    
C85   C86   S    
C8    Br16  S    
C15   C19   A    
Cr4   O4    S    
Cr9   O37   S    
Cr2   O22   S    
C83   H12   S    
Cr6   O30   S    
C3    O23   A    
C32   C36   A    
C7    Br15  S    
C56   C60   A    
C81   H10   S    
C38   C42   A    
C1    O21   A    
Cr1   O1    S    
C44   Br8   S    
Cr1   O21   S    
Cr6   O6    S    
Cr12  O12   S    
C74   O6    A    
C76   O8    A    
C29   C33   A    
C73   O5    A    
C48   O36   A    
C68   O4    A    
C23   C67   S    
C9    C13   A    
C22   C66   S    
C31   C35   A    
C52   C69   S    
C16   H20   S    
C2    O22   A    
C46   C82   S    
Cr9   O33   S    
C41   C49   A    
C71   O51   A    
C72   O52   A    
Cr6   O50   S    
C61   C77   S    
C49   C72   S    
C41   Br5   S    
C65   O37   A    
C69   O49   A    
Cr12  O36   S    
C86   Br2   S    
C51   C70   S    
C47   C83   S    
C23   C91   A    
Cr11  O19   S    
C3    O27   A    
C81   C86   D    
Cr10  O10   S    
C16   C20   A    
C46   O30   A    
C44   C52   A    
C83   C88   D    
C36   H28   S    
C71   O47   A    
Cr8   O20   S    
C56   Br12  S    
Cr3   O23   S    
C64   C80   S    
Cr7   O31   S    
C39   Br19  S    
C58   H6    S    
C1    C12   S    
C11   C15   A    
C1    O25   A    
C2    C11   S    
C24   C92   A    
Cr5   O29   S    
Cr1   O17   S    
Cr2   O18   S    
C39   C43   A    
C74   O10   A    
C45   C81   S    
Cr4   O44   S    
C73   O9    A    
C30   C34   A    
Cr11  O39   S    
C55   Br11  S    
C35   H27   S    
C12   C16   A    
C75   O11   A    
Cr5   O17   S    
C92   H16   S    
C77   O41   A    
C30   C73   S    
C48   O32   A    
C19   C23   A    
Cr7   O19   S    
C29   C74   S    
C51   C55   A    
C25   C26   A    
C88   Br4   S    
C79   O15   A    
Cr2   O2    S    
Cr9   O13   S    
C48   C84   S    
Cr11  O35   S    
C70   O50   A    
Cr5   O49   S    
C84   H11   S    
C7    C11   A    
C50   C71   S    
C18   H2    S    
C5    C9    A    
C17   H1    S    
Cr4   O20   S    
C34   H26   S    
Cr9   O17   S    
Cr12  O20   S    
C33   H25   S    
C8    C12   A    
C7    C91   A    
C45   O29   A    
C33   C34   A    
C22   C90   A    
Cr7   O27   S    
C76   O12   A    
C66   O2    A    
C65   O1    A    
C45   O33   A    
C8    C92   A    
Cr6   O18   S    
C67   O3    A    
C42   C50   A    
C43   Br7   S    
Cr8   O32   S    
C67   O39   A    
C60   H8    S    
C57   H5    S    
Cr7   O51   S    
C90   H14   S    
C26   H22   S    
C27   C28   A    
C25   H21   S    
C78   O42   A    
C69   O45   A    
C54   C58   A    
C79   O43   A    
C25   C30   A    
C80   O44   A    
C15   H19   S    
C53   C57   A    
C21   C65   S    
C27   C32   A    
C70   O46   A    
C62   C78   S    
C28   C31   A    
Cr11  O11   S    
C21   C89   A    
C47   O35   A    
Cr8   O52   S    
Cr10  O18   S    
C68   O40   A    
Cr6   O26   S    
C6    C10   A    
C37   C61   A    
C2    O26   A    
C57   C61   A    
Cr12  O16   S    
C53   Br9   S    
Cr2   O42   S    
C82   C85   D    
C39   C63   A    
C6    Br14  S    
C59   C63   A    
C40   C64   A    
C13   C17   A    
C5    Br13  S    
C60   C64   A    
Cr9   O9    S    
C18   C22   A    
Cr12  O40   S    
C50   C54   A    
C3    C10   S    
C6    C90   A    
Cr4   O24   S    
Cr10  O38   S    
Cr7   O7    S    
Cr2   O46   S    
C4    O24   A    
C43   C51   A    
C31   C76   S    
Cr4   O48   S    
C27   H23   S    
C52   C56   A    
C49   C53   A    
C82   H9    S    
Cr1   O45   S    
C28   H24   S    
Cr3   O47   S    
C37   C41   A    
C78   O14   A    
C17   C21   A    
C66   O38   A    
C77   O13   A    
C24   C68   S    
C75   O7    A    
C10   C14   A    
C14   H18   S    
Cr3   O19   S    
C4    O28   A    
C40   C44   A    
Cr3   O43   S    
C26   C29   A    
C38   Br18  S    
C47   O31   A    
C54   Br10  S    
C37   Br17  S    
Cr3   O3    S    
Cr10  O34   S    
C80   O16   A    
C20   H4    S    
C4    C9    S    
Cr10  O14   S    
Cr5   O5    S    
C20   C24   A    
C5    C89   A    
Cr8   O28   S    
C89   H13   S    
C42   Br6   S    
C38   C62   A    
C19   H3    S    
