data_mof_unit_51391.cif
_audit_creation_date              2012-12-10T17:10:22-0500
_audit_creation_method            fapswitch 2.2
_symmetry_space_group_name_H-M    P1
_symmetry_Int_Tables_number       1
_space_group_crystal_system       triclinic
_cell_length_a                    10.794742
_cell_length_b                    12.984428
_cell_length_c                    11.656218
_cell_angle_alpha                 100.417387
_cell_angle_beta                  93.674146
_cell_angle_gamma                 90.360301
_cell_volume                      1603.27815028

loop_
_atom_site_label
_atom_site_type_symbol
_atom_type_description
_atom_site_fract_x
_atom_site_fract_y
_atom_site_fract_z
_atom_type_partial_charge
C1    C     C_R   0.502732 0.298894 0.477701 0.778097
C2    C     C_R   0.497269 0.701106 0.522299 0.778091
C3    C     C_R   0.490302 0.815050 0.536424 -0.100057
C4    C     C_R   0.509697 0.184950 0.463575 -0.100058
C5    C     C_R   0.543089 0.011890 0.351391 -0.257646
C6    C     C_R   0.456904 0.988109 0.648605 -0.257648
C7    C     C_R   0.541940 0.120333 0.358005 -0.005173
C8    C     C_R   0.458058 0.879667 0.641994 -0.005176
C9    C     C_R   0.481876 0.139748 0.559393 -0.288394
C10   C     C_R   0.518119 0.860251 0.440605 -0.288395
C11   C     C_R   0.484816 0.032121 0.552328 0.158572
C12   C     C_R   0.515177 0.967878 0.447669 0.158572
C13   C     C_R   0.382747 0.401883 0.020817 -0.341228
C14   C     C_R   0.617253 0.598117 0.979182 -0.341223
C15   C     C_R   0.394084 0.411198 0.143238 0.123384
C16   C     C_R   0.605917 0.588801 0.856762 0.123387
C17   C     C_R   0.550658 0.542419 0.157635 0.022260
C18   C     C_R   0.449342 0.457581 0.842365 0.022256
C19   C     C_R   0.542608 0.535628 0.034612 0.057273
C20   C     C_R   0.457392 0.464371 0.965389 0.057279
C21   C     C_R   0.262754 0.500488 0.500431 0.793582
C22   C     C_R   0.737246 0.499511 0.499570 0.793587
C23   C     C_R   0.132149 0.326144 0.558289 -0.163741
C24   C     C_R   0.867839 0.673866 0.441713 -0.163732
C25   C     C_R   0.069101 0.241078 0.586389 -0.148197
C26   C     C_R   0.930886 0.758934 0.413621 -0.148187
C27   C     C_R   0.940462 0.241074 0.586873 -0.140856
C28   C     C_R   0.059539 0.758935 0.413150 -0.140830
C29   C     C_R   0.874393 0.326024 0.559009 -0.169684
C30   C     C_R   0.125613 0.673984 0.441011 -0.169695
C31   C     C_R   0.936456 0.413567 0.530199 0.067661
C32   C     C_R   0.063545 0.586439 0.469808 0.067662
C33   C     C_R   0.066942 0.413891 0.530547 0.073872
C34   C     C_R   0.933056 0.586115 0.469456 0.073883
C35   C     C_R   0.870912 0.499490 0.499153 -0.191696
C36   C     C_R   0.129088 0.500514 0.500849 -0.191691
Cu1   Cu    Cu3+1 0.509250 0.507730 0.615930 0.934853
Cu2   Cu    Cu3+1 0.490750 0.492270 0.384070 0.934858
H1    H     H_    0.108510 0.825295 0.391841 0.136294
H2    H     H_    0.891494 0.174716 0.608196 0.136293
H3    H     H_    0.316489 0.345947 0.970024 0.134914
H4    H     H_    0.683509 0.654053 0.029976 0.134915
H5    H     H_    0.232091 0.321620 0.557658 0.132042
H6    H     H_    0.767887 0.678395 0.442341 0.132033
H7    H     H_    0.120316 0.174711 0.607307 0.132434
H8    H     H_    0.879659 0.825302 0.392699 0.132419
H9    H     H_    0.774403 0.321491 0.559218 0.134272
H10   H     H_    0.225608 0.678521 0.440813 0.134260
H11   H     H_    0.543562 0.811566 0.360036 0.151296
H12   H     H_    0.456435 0.188434 0.639962 0.151296
H13   H     H_    0.567743 0.961821 0.271375 0.129956
H14   H     H_    0.432249 0.038178 0.728620 0.129959
H15   H     H_    0.384020 0.402994 0.788271 0.118133
H16   H     H_    0.615981 0.597006 0.211730 0.118131
H17   H     H_    0.663415 0.637650 0.814995 0.126428
H18   H     H_    0.336584 0.362350 0.185004 0.126425
N1    N     N_R   0.523180 0.519350 0.790130 -0.178422
N2    N     N_R   0.476820 0.480650 0.209870 -0.178418
O1    O     O_R   0.506570 0.354460 0.582000 -0.596967
O2    O     O_R   0.493430 0.645540 0.418000 -0.596966
O3    O     O_R   0.490940 0.341410 0.386200 -0.573325
O4    O     O_R   0.509060 0.658590 0.613800 -0.573327
O5    O     O_R   0.327470 0.506520 0.597900 -0.584828
O6    O     O_R   0.672530 0.493480 0.402100 -0.584825
O7    O     O_R   0.311840 0.493460 0.402100 -0.583386
O8    O     O_R   0.688160 0.506540 0.597900 -0.583391
C37   C     C_R   0.422151 0.838064 0.745871 0.129901
C38   C     C_R   0.491123 0.866866 0.853540 -0.169470
C39   C     C_R   0.456951 0.828527 0.951881 -0.149815
C40   C     C_R   0.353849 0.761280 0.943520 -0.108959
C41   C     C_R   0.283835 0.733304 0.837164 -0.115565
C42   C     C_R   0.316940 0.772354 0.738954 -0.088920
H19   H     H_    0.571657 0.918424 0.861046 0.129725
H20   H     H_    0.510837 0.850446 0.034409 0.124394
H21   H     H_    0.328238 0.730889 0.019446 0.130156
H22   H     H_    0.203764 0.681497 0.830821 0.128970
H23   H     H_    0.261357 0.750874 0.657475 0.107848
C43   C     C_R   0.577867 0.161939 0.254138 0.129908
C44   C     C_R   0.683083 0.227647 0.261074 -0.088931
C45   C     C_R   0.716206 0.266705 0.162878 -0.115563
C46   C     C_R   0.646204 0.238740 0.056515 -0.108961
C47   C     C_R   0.543098 0.171496 0.048134 -0.149807
C48   C     C_R   0.508908 0.133148 0.146462 -0.169471
H24   H     H_    0.738655 0.249117 0.342559 0.107845
H25   H     H_    0.796280 0.318510 0.169236 0.128972
H26   H     H_    0.671829 0.269138 0.980599 0.130156
H27   H     H_    0.489223 0.149586 0.965601 0.124396
H28   H     H_    0.428369 0.081594 0.138940 0.129724

loop_
_geom_bond_atom_site_label_1
_geom_bond_atom_site_label_2
_ccdc_geom_bond_type
C27   C29   A    
C19   C20   A    
C13   H3    S    
Cu1   O4    S    
C21   C36   S    
C22   C35   S    
C45   H25   S    
C29   H9    S    
C32   C36   A    
C30   H10   S    
Cu1   Cu2   S    
C24   C26   A    
C37   C42   A    
C1    O1    A    
C44   H24   S    
C2    O2    A    
C47   H27   S    
C33   C36   A    
C23   H5    S    
C34   C35   A    
C22   O8    A    
C18   H15   S    
Cu2   N2    S    
C43   C48   A    
C38   C39   A    
C23   C33   A    
C31   C33   A    
C40   C41   A    
C46   H26   S    
C17   N2    A    
C14   H4    S    
Cu2   O3    S    
C48   H28   S    
C4    C7    A    
Cu1   O5    S    
C46   C47   A    
Cu2   O6    S    
C37   C38   A    
C5    C12   A    
C3    C8    A    
C6    C11   A    
C5    C7    A    
C43   C44   A    
C6    C8    A    
C28   H1    S    
C38   H19   S    
C24   C34   A    
C32   C34   A    
C42   H23   S    
C18   N1    A    
Cu2   O7    S    
C27   H2    S    
Cu1   O8    S    
C39   H20   S    
C9    C11   A    
Cu1   O1    S    
C10   C12   A    
C7    C43   S    
Cu2   O2    S    
C13   C15   A    
C24   H6    S    
C15   N2    A    
C14   C16   A    
C25   H7    S    
C13   C20   A    
C21   O7    A    
C14   C19   A    
C9    H12   S    
C45   C46   A    
C1    O3    A    
C11   C12   A    
C25   C27   A    
C26   C28   A    
C1    C4    S    
C15   H18   S    
C28   C30   A    
C2    C3    S    
C16   H17   S    
C41   C42   A    
C29   C31   A    
C3    C10   A    
C30   C32   A    
C41   H22   S    
C31   C35   A    
C17   C19   A    
C18   C20   A    
C16   N1    A    
C23   C25   A    
C39   C40   A    
C21   O5    A    
C26   H8    S    
C22   O6    A    
C44   C45   A    
C8    C37   S    
C47   C48   A    
C40   H21   S    
C5    H13   S    
C6    H14   S    
C4    C9    A    
C10   H11   S    
C17   H16   S    
Cu1   N1    S    
C2    O4    A    
