data_mof_unit_56570.cif
_audit_creation_date              2012-10-26T19:52:49-0400
_audit_creation_method            fapswitch 2.2
_symmetry_space_group_name_H-M    P1
_symmetry_Int_Tables_number       1
_space_group_crystal_system       triclinic
_cell_length_a                    15.079712
_cell_length_b                    10.807503
_cell_length_c                    9.530953
_cell_angle_alpha                 90.066421
_cell_angle_beta                  89.90149
_cell_angle_gamma                 90.64497
_cell_volume                      1553.19612743

loop_
_atom_site_label
_atom_site_type_symbol
_atom_type_description
_atom_site_fract_x
_atom_site_fract_y
_atom_site_fract_z
_atom_type_partial_charge
C1    C     C_R   0.505209 0.262464 0.499556 0.542941
C2    C     C_R   0.182942 0.429203 0.614195 0.011568
C3    C     C_R   0.231274 0.483079 0.500782 -0.010782
C4    C     C_R   0.328618 0.492260 0.500266 0.542313
C5    C     C_R   0.185931 0.532596 0.385743 -0.156933
C6    C     C_R   0.488035 0.064088 0.618198 0.006482
C7    C     C_R   0.517299 0.129213 0.500289 0.019100
C8    C     C_R   0.559431 0.062635 0.389778 -0.013107
C9    C     C_R   0.555373 0.932661 0.392553 -0.149946
C10   C     C_R   0.512221 0.870413 0.502525 -0.007814
C11   C     C_R   0.485757 0.937061 0.619732 0.003757
C12   C     C_R   0.907978 0.542091 0.381934 0.013006
C13   C     C_3   0.399684 0.932613 0.697310 -0.268055
C14   C     C_3   0.402100 0.072880 0.695051 -0.278706
C15   C     C_R   0.562582 0.566303 0.073601 0.143218
C16   C     C_R   0.502063 0.737587 0.500290 0.549954
C17   C     C_R   0.444370 0.424607 0.074636 -0.019936
C18   C     C_R   0.444543 0.424395 0.925694 -0.013912
C19   C     C_R   0.562861 0.566147 0.926017 0.156349
C20   C     C_3   0.578742 0.702937 0.920553 -0.127866
C21   C     C_3   0.578307 0.702500 0.080350 -0.258813
C22   C     C_R   0.671293 0.502767 0.500019 0.530047
C23   C     C_R   0.949920 0.435950 0.747016 -0.147986
C24   C     C_R   0.815391 0.541271 0.380702 -0.144230
C25   C     C_R   0.767941 0.506057 0.501141 -0.021684
C26   C     C_R   0.812967 0.473964 0.624008 -0.146225
C27   C     C_R   0.905131 0.471807 0.625842 0.010627
C28   C     C_R   0.953102 0.504752 0.504243 0.061814
C29   C     C_3   0.668693 0.737642 0.854476 -0.273884
C30   C     C_3   0.687633 0.876241 0.867254 -0.454031
C31   C     C_3   0.225935 0.338082 0.715391 -0.275537
C32   C     C_3   0.183755 0.208588 0.705557 -0.458819
C33   C     C_3   0.608593 0.123961 0.268886 -0.263677
C34   C     C_R   0.041734 0.425887 0.745745 -0.138759
C35   C     C_3   0.693886 0.187253 0.318895 -0.408773
C36   C     C_R   0.090820 0.451377 0.622827 0.034189
C37   C     C_R   0.046105 0.498160 0.504153 0.044025
C38   C     C_R   0.093788 0.535208 0.383905 0.003217
C39   C     C_R   0.048649 0.576414 0.264449 -0.134594
C40   C     C_R   0.956195 0.578220 0.262791 -0.137722
Cu1   Cu    Cu3+1 0.500000 0.499980 0.640670 0.919514
Cu2   Cu    Cu3+1 0.500000 0.500020 0.359330 0.917606
H1    H     H_    0.780373 0.568267 0.286459 0.117837
H2    H     H_    0.643166 0.725367 0.129888 0.116987
H3    H     H_    0.776291 0.447493 0.717477 0.124724
H4    H     H_    0.520726 0.752836 0.124295 0.138687
H5    H     H_    0.913798 0.413220 0.842156 0.104971
H6    H     H_    0.073569 0.397442 0.841810 0.114085
H7    H     H_    0.222562 0.569221 0.296673 0.127919
H8    H     H_    0.084838 0.605367 0.171564 0.107025
H9    H     H_    0.922448 0.607943 0.168565 0.103197
H10   H     H_    0.634335 0.929818 0.815956 0.161841
H11   H     H_    0.692284 0.903963 0.979243 0.144252
H12   H     H_    0.584671 0.880077 0.308110 0.113199
H13   H     H_    0.751606 0.898955 0.814950 0.142586
H14   H     H_    0.723307 0.685471 0.904760 0.138379
H15   H     H_    0.667565 0.713094 0.741371 0.186907
H16   H     H_    0.112875 0.207529 0.735857 0.160569
H17   H     H_    0.189658 0.172584 0.596749 0.151833
H18   H     H_    0.218625 0.144969 0.777716 0.130745
H19   H     H_    0.296543 0.323421 0.691163 0.165827
H20   H     H_    0.222474 0.373401 0.824658 0.129109
H21   H     H_    0.726545 0.235380 0.229489 0.136478
H22   H     H_    0.679983 0.256101 0.401960 0.172499
H23   H     H_    0.344773 0.891780 0.634010 0.138309
H24   H     H_    0.740100 0.117342 0.361375 0.141683
H25   H     H_    0.627520 0.054239 0.188640 0.118898
H26   H     H_    0.565791 0.189982 0.212545 0.175166
H27   H     H_    0.406607 0.893855 0.804571 0.128731
H28   H     H_    0.349566 0.113266 0.628461 0.130218
H29   H     H_    0.410040 0.115150 0.800739 0.130915
H30   H     H_    0.398131 0.365451 0.130711 0.113759
H31   H     H_    0.398873 0.364503 0.870174 0.100117
H32   H     H_    0.521858 0.753436 0.875132 0.158164
N1    N     N_R   0.500570 0.500930 0.147930 -0.233216
N2    N     N_R   0.500570 0.500890 0.852020 -0.236139
O1    O     O_R   0.500000 0.319640 0.618810 -0.504887
O2    O     O_R   0.500010 0.319680 0.381230 -0.512391
O3    O     O_R   0.370250 0.499950 0.618800 -0.506846
O4    O     O_R   0.370260 0.499990 0.381220 -0.503985
O5    O     O_R   0.499990 0.680320 0.618770 -0.503070
O6    O     O_R   0.500000 0.680360 0.381190 -0.506022
O7    O     O_R   0.629740 0.500010 0.618780 -0.512026
O8    O     O_R   0.629750 0.500050 0.381200 -0.504967

loop_
_geom_bond_atom_site_label_1
_geom_bond_atom_site_label_2
_ccdc_geom_bond_type
C15   N1    A    
Cu2   O4    S    
C1    O1    A    
C14   H29   S    
C31   H19   S    
C19   C20   S    
Cu2   O6    S    
C32   H16   S    
C7    C8    A    
C13   H23   S    
C15   C19   A    
Cu2   N1    S    
C29   C30   S    
C12   C28   A    
C19   N2    A    
C4    O4    A    
Cu1   O1    S    
C38   C39   A    
Cu1   O7    S    
Cu1   Cu2   S    
C26   H3    S    
C8    C9    A    
C22   C25   S    
C35   H22   S    
C23   C27   A    
C9    C10   A    
C5    C38   A    
C1    O2    A    
C14   H28   S    
C31   H20   S    
C5    H7    S    
C20   C29   S    
C30   H11   S    
C23   H5    S    
Cu2   O8    S    
C24   C25   A    
C4    O3    A    
C39   C40   A    
C35   H24   S    
C25   C26   A    
C2    C31   S    
C22   O8    A    
C12   C40   A    
C37   C38   A    
C6    C14   S    
C21   H2    S    
C31   C32   S    
C23   C34   A    
Cu1   O5    S    
C16   O6    A    
C17   C18   A    
C26   C27   A    
C20   H32   S    
C29   H15   S    
Cu2   O2    S    
C18   H31   S    
C34   H6    S    
C32   H18   S    
C3    C4    S    
C6    C11   A    
C33   H25   S    
C21   H4    S    
C2    C36   A    
C30   H10   S    
C36   C37   A    
C18   N2    A    
C1    C7    S    
C3    C5    A    
Cu1   O3    S    
C6    C7    A    
C29   H14   S    
C40   H9    S    
C30   H13   S    
C12   C24   A    
C22   O7    A    
C2    C3    A    
C10   C16   S    
Cu1   N2    S    
C11   C13   S    
C13   H27   S    
C28   C37   A    
C16   O5    A    
C33   C35   S    
C34   C36   A    
C8    C33   S    
C10   C11   A    
C15   C21   S    
C39   H8    S    
C20   C21   S    
C17   H30   S    
C27   C28   A    
C17   N1    A    
C24   H1    S    
C35   H21   S    
C9    H12   S    
C32   H17   S    
C13   C14   S    
C33   H26   S    
