data_mof_unit_62702.cif
_audit_creation_date              2012-12-10T19:25:37-0500
_audit_creation_method            fapswitch 2.2
_symmetry_space_group_name_H-M    P1
_symmetry_Int_Tables_number       1
_space_group_crystal_system       triclinic
_cell_length_a                    17.799636
_cell_length_b                    16.432726
_cell_length_c                    15.071375
_cell_angle_alpha                 89.673665
_cell_angle_beta                  91.015971
_cell_angle_gamma                 89.168023
_cell_volume                      4407.08922929

loop_
_atom_site_label
_atom_site_type_symbol
_atom_type_description
_atom_site_fract_x
_atom_site_fract_y
_atom_site_fract_z
_atom_type_partial_charge
C1    C     C_R   0.355067 0.500623 0.501430 0.867689
C2    C     C_R   0.644933 0.499377 0.498570 0.867689
C3    C     C_R   0.417390 0.620297 0.043923 0.376608
C4    C     C_R   0.582610 0.379702 0.956077 0.376608
C5    C     C_R   0.845640 0.565958 0.462396 -0.146343
C6    C     C_R   0.154360 0.434042 0.537604 -0.146343
C7    C     C_R   0.150903 0.568602 0.472803 -0.150117
C8    C     C_R   0.849097 0.431397 0.527197 -0.150117
C9    C     C_R   0.767209 0.565886 0.460672 0.137832
C10   C     C_R   0.232791 0.434114 0.539328 0.137832
C11   C     C_R   0.229118 0.570579 0.473488 0.181693
C12   C     C_R   0.770882 0.429421 0.526512 0.181694
C13   C     C_R   0.728142 0.498087 0.495330 -0.149227
C14   C     C_R   0.271858 0.501913 0.504670 -0.149226
C15   C     C_R   0.886160 0.499434 0.496392 0.046371
C16   C     C_R   0.113840 0.500566 0.503608 0.046371
C17   C     C_1   0.966340 0.500034 0.498789 0.014514
C18   C     C_1   0.033660 0.499965 0.501211 0.014514
C19   C     C_R   0.533824 0.828101 0.569805 -0.219494
C20   C     C_R   0.466176 0.171899 0.430194 -0.219494
C21   C     C_R   0.467371 0.829921 0.429546 -0.214509
C22   C     C_R   0.532629 0.170079 0.570454 -0.214508
C23   C     C_R   0.533244 0.742274 0.568540 0.128408
C24   C     C_R   0.466756 0.257726 0.431460 0.128408
C25   C     C_R   0.468004 0.744091 0.430745 0.138259
C26   C     C_R   0.531996 0.255909 0.569255 0.138259
C27   C     C_R   0.500382 0.873138 0.499817 0.113765
C28   C     C_R   0.499618 0.126862 0.500183 0.113765
C29   C     C_1   0.500127 0.962713 0.499951 0.017119
C30   C     C_1   0.499873 0.037287 0.500049 0.017119
C31   C     C_R   0.500376 0.500166 0.328575 0.900573
C32   C     C_R   0.499624 0.499834 0.671425 0.900572
C33   C     C_R   0.552777 0.452528 0.815310 0.358489
C34   C     C_R   0.447223 0.547471 0.184690 0.358489
C35   C     C_R   0.499219 0.499536 0.767999 -0.219227
C36   C     C_R   0.500780 0.500463 0.232001 -0.219226
C37   C     C_R   0.445589 0.546517 0.812503 0.139159
C38   C     C_R   0.554411 0.453483 0.187497 0.139159
C39   C     C_R   0.453144 0.555939 0.905125 -0.055600
C40   C     C_R   0.546856 0.444061 0.094875 -0.055600
C41   C     C_R   0.499808 0.499837 0.953271 -0.084427
C42   C     C_R   0.500191 0.500162 0.046729 -0.084427
C43   C     C_R   0.546302 0.443623 0.907839 -0.079537
C44   C     C_R   0.453698 0.556376 0.092161 -0.079536
C45   C     C_R   0.417957 0.620501 0.950835 0.337308
C46   C     C_R   0.582043 0.379499 0.049165 0.337308
Cu1   Cu    Cu3+1 0.500000 0.580420 0.500000 1.031122
Cu2   Cu    Cu3+1 0.500000 0.419580 0.500000 1.031122
H1    H     H_    0.875151 0.617878 0.436337 0.173688
H2    H     H_    0.124849 0.382122 0.563663 0.173688
H3    H     H_    0.118645 0.620637 0.447968 0.172763
H4    H     H_    0.881355 0.379362 0.552032 0.172763
H5    H     H_    0.560349 0.858987 0.625107 0.162194
H6    H     H_    0.439651 0.141013 0.374893 0.162194
H7    H     H_    0.441236 0.862215 0.373990 0.173839
H8    H     H_    0.558763 0.137785 0.626010 0.173839
H9    H     H_    0.559870 0.708712 0.622696 0.144084
H10   H     H_    0.440130 0.291288 0.377304 0.144084
H11   H     H_    0.442518 0.711987 0.375845 0.186442
H12   H     H_    0.557482 0.288013 0.624155 0.186442
N1    N     N_R   0.500000 0.701220 0.500000 -0.188147
N2    N     N_R   0.500000 0.298780 0.500000 -0.188147
O1    O     O_R   0.391260 0.567930 0.500000 -0.550479
O2    O     O_R   0.608740 0.432070 0.500000 -0.550479
O3    O     O_R   0.608740 0.567930 0.500000 -0.570188
O4    O     O_R   0.391260 0.432070 0.500000 -0.570188
O5    O     O_R   0.499990 0.567920 0.370260 -0.564040
O6    O     O_R   0.500010 0.432080 0.629740 -0.564040
O7    O     O_R   0.500010 0.567920 0.629740 -0.586587
O8    O     O_R   0.499990 0.432080 0.370260 -0.586587
Cl1   Cl    Cl    0.633803 0.418387 0.759065 -0.531657
Cl2   Cl    Cl    0.366196 0.581612 0.240935 -0.531657
I1    I     I_    0.344297 0.581158 0.740844 -0.187438
I2    I     I_    0.655703 0.418842 0.259155 -0.187438
Cl3   Cl    Cl    0.388912 0.710988 0.894627 -0.444754
Cl4   Cl    Cl    0.611087 0.289012 0.105373 -0.444754
Cl5   Cl    Cl    0.382841 0.708763 0.097556 -0.405831
Cl6   Cl    Cl    0.617158 0.291237 0.902444 -0.405831
I3    I     I_    0.715563 0.669020 0.396792 -0.264042
I4    I     I_    0.284437 0.330980 0.603208 -0.264042
I5    I     I_    0.272724 0.682019 0.425587 -0.190277
I6    I     I_    0.727276 0.317981 0.574413 -0.190277

loop_
_geom_bond_atom_site_label_1
_geom_bond_atom_site_label_2
_ccdc_geom_bond_type
C27   C29   S    
C41   C42   A    
C2    O3    A    
C46   Cl4   S    
C39   C41   A    
C4    C46   A    
C11   I5    S    
C7    C11   A    
C5    C9    A    
C35   C37   A    
Cu1   O1    S    
C11   C14   A    
Cu2   O2    S    
C15   C17   S    
C9    I3    S    
C2    C13   S    
C9    C13   A    
Cu1   O7    S    
C37   I1    S    
C31   O8    A    
C20   C24   A    
C19   C27   A    
C8    H4    S    
C32   O6    A    
C19   H5    S    
C40   C42   A    
C21   C27   A    
C22   C28   A    
C41   C43   A    
C5    H1    S    
C42   C44   A    
C1    O1    A    
Cu1   O5    S    
C2    O2    A    
C1    O4    A    
C3    C44   A    
C33   C43   A    
C32   C35   S    
C34   C44   A    
C20   H6    S    
C10   C14   A    
C21   H7    S    
C33   Cl1   S    
C22   H8    S    
C20   C28   A    
C3    C45   A    
Cu2   O6    S    
C19   C23   A    
C4    Cl6   S    
C29   C30   T    
Cu2   N2    S    
Cu1   Cu2   S    
C8    C12   A    
C17   C18   T    
C12   I6    S    
C25   N1    A    
C6    H2    S    
C24   H10   S    
C7    C16   A    
C8    C15   A    
C40   C46   A    
C3    Cl5   S    
C34   Cl2   S    
C38   I2    S    
C23   H9    S    
C21   C25   A    
C24   N2    A    
Cu2   O8    S    
Cu1   N1    S    
C32   O7    A    
C4    C43   A    
C10   I4    S    
C39   C45   A    
C45   Cl3   S    
C28   C30   S    
C26   N2    A    
C7    H3    S    
C37   C39   A    
C38   C40   A    
C36   C38   A    
C33   C35   A    
C34   C36   A    
C5    C15   A    
C6    C10   A    
C31   O5    A    
C6    C16   A    
C23   N1    A    
C12   C13   A    
C16   C18   S    
C22   C26   A    
C31   C36   S    
C1    C14   S    
C25   H11   S    
Cu2   O4    S    
C26   H12   S    
Cu1   O3    S    
