data_mof_unit_9837.cif
_audit_creation_date              2012-12-10T17:12:34-0500
_audit_creation_method            fapswitch 2.2
_symmetry_space_group_name_H-M    P1
_symmetry_Int_Tables_number       1
_space_group_crystal_system       triclinic
_cell_length_a                    22.704031
_cell_length_b                    10.712756
_cell_length_c                    10.055804
_cell_angle_alpha                 88.835167
_cell_angle_beta                  90.296137
_cell_angle_gamma                 90.49323
_cell_volume                      2445.17371236

loop_
_atom_site_label
_atom_site_type_symbol
_atom_type_description
_atom_site_fract_x
_atom_site_fract_y
_atom_site_fract_z
_atom_type_partial_charge
C1    C     C_R   0.503091 0.262889 0.501133 0.829640
C2    C     C_R   0.128709 0.513596 0.728946 0.586802
C3    C     C_R   0.232994 0.572599 0.567637 0.565417
C4    C     C_R   0.388854 0.497095 0.499814 0.905614
C5    C     C_R   0.292434 0.586495 0.539097 -0.278979
C6    C     C_R   0.325151 0.484206 0.501557 -0.180139
C7    C     C_R   0.296824 0.369867 0.474017 -0.132401
C8    C     C_R   0.235695 0.357910 0.499036 -0.085241
C9    C     C_R   0.207997 0.450013 0.577322 0.038641
C10   C     C_R   0.772238 0.436942 0.440200 0.418993
C11   C     C_R   0.711105 0.446716 0.418188 0.315223
C12   C     C_R   0.967983 0.202711 0.625501 -0.106957
C13   C     C_R   0.676169 0.512379 0.508231 -0.287580
C14   C     C_R   0.703114 0.570856 0.618463 -0.109374
C15   C     C_R   0.761643 0.545381 0.648149 -0.230625
C16   C     C_R   0.498265 0.737108 0.498649 0.938159
C17   C     C_R   0.796582 0.478778 0.560766 0.114010
C18   C     C_2   0.512870 0.934524 0.391454 -0.146957
C19   C     C_2   0.492228 0.868468 0.494812 -0.233829
C20   C     C_2   0.509617 0.068434 0.391370 -0.326647
C21   C     C_2   0.515455 0.132499 0.504123 0.323344
C22   C     C_2   0.533561 0.571160 0.925206 -0.202081
C23   C     C_R   0.030190 0.194538 0.637336 -0.094105
C24   C     C_2   0.540606 0.554877 0.073096 -0.002093
C25   C     C_R   0.611526 0.504722 0.500810 0.949041
C26   C     C_R   0.890788 0.560167 0.631191 0.536301
C27   C     C_R   0.879832 0.340804 0.600425 0.592583
C28   C     C_R   0.940053 0.321300 0.632083 -0.121836
C29   C     C_R   0.973767 0.426260 0.670122 -0.023356
C30   C     C_R   0.946952 0.543560 0.686191 -0.089198
C31   C     C_2   0.933174 0.085958 0.610114 1.044310
C32   C     C_3   0.674197 0.269151 0.328349 0.158111
C33   C     C_3   0.641085 0.217407 0.208712 -0.345708
C34   C     C_R   0.064090 0.303646 0.662283 -0.095262
C35   C     C_3   0.678005 0.227197 0.082367 -0.708967
C36   C     C_2   0.672406 0.663056 0.701544 0.972018
C37   C     C_3   0.594772 0.086592 0.634638 0.112527
C38   C     C_3   0.614040 0.025208 0.765837 -0.316654
C39   C     C_3   0.681015 0.026059 0.780251 -0.897845
C40   C     C_2   0.486121 0.377922 0.897732 1.060439
C41   C     C_2   0.595248 0.606267 0.130265 1.001434
C42   C     C_2   0.058890 0.071817 0.622895 1.039924
C43   C     C_2   0.949683 0.753377 0.803236 1.004253
C44   C     C_3   0.160241 0.698954 0.481443 0.057752
C45   C     C_R   0.034875 0.416224 0.687758 0.004606
C46   C     C_3   0.188170 0.777725 0.369285 -0.356958
C47   C     C_3   0.143510 0.807594 0.259524 -0.780625
C48   C     C_2   0.331033 0.263437 0.423550 0.970819
C49   C     C_2   0.199083 0.273860 0.414756 1.001045
C50   C     C_3   0.821937 0.460603 0.245410 0.093852
C51   C     C_3   0.854540 0.389642 0.138292 -0.322522
C52   C     C_3   0.871386 0.475016 0.020930 -0.872157
C53   C     C_R   0.067566 0.519637 0.731873 -0.068757
C54   C     C_R   0.039070 0.627770 0.770841 -0.228408
C55   C     C_R   0.978571 0.641234 0.749309 -0.045343
C56   C     C_R   0.126552 0.309162 0.656495 0.580430
H1    H     H_    0.781296 0.581636 0.738054 0.232816
H2    H     H_    0.645730 0.254853 0.417263 0.032322
H3    H     H_    0.715708 0.215935 0.343490 0.176988
H4    H     H_    0.629463 0.117822 0.228852 0.161576
H5    H     H_    0.599529 0.270089 0.193667 0.260499
H6    H     H_    0.690944 0.325628 0.060374 0.310730
H7    H     H_    0.651673 0.193156 0.997397 0.244589
H8    H     H_    0.718252 0.169558 0.093025 0.231388
H9    H     H_    0.665968 0.745784 0.879313 0.335969
H10   H     H_    0.609179 0.186345 0.634598 0.118514
H11   H     H_    0.616327 0.037765 0.551164 0.152591
H12   H     H_    0.530874 0.890633 0.304426 0.211213
H13   H     H_    0.594220 0.075934 0.849528 0.226508
H14   H     H_    0.597533 0.927387 0.770924 0.257357
H15   H     H_    0.701242 0.970821 0.700372 0.294423
H16   H     H_    0.693550 0.983929 0.878026 0.265468
H17   H     H_    0.698416 0.123265 0.774647 0.269569
H18   H     H_    0.512333 0.218488 0.990059 0.331395
H19   H     H_    0.633595 0.731258 0.251031 0.331244
H20   H     H_    0.100381 0.927243 0.712769 0.357308
H21   H     H_    0.878282 0.826725 0.890275 0.370933
H22   H     H_    0.122369 0.750912 0.521806 0.196122
H23   H     H_    0.470272 0.910531 0.578156 0.201961
H24   H     H_    0.141650 0.610381 0.441637 0.135989
H25   H     H_    0.205473 0.866522 0.410178 0.282554
H26   H     H_    0.225497 0.726121 0.326002 0.219423
H27   H     H_    0.126362 0.720071 0.215633 0.259874
H28   H     H_    0.165056 0.864646 0.179902 0.283630
H29   H     H_    0.106219 0.861328 0.299844 0.291697
H30   H     H_    0.354437 0.083243 0.448401 0.341219
H31   H     H_    0.122957 0.249943 0.313356 0.366577
H32   H     H_    0.851249 0.535971 0.283496 0.148685
H33   H     H_    0.781910 0.503209 0.199227 0.191885
H34   H     H_    0.500936 0.114556 0.296119 0.179561
H35   H     H_    0.895125 0.347948 0.181923 0.246192
H36   H     H_    0.825873 0.312795 0.101823 0.239555
H37   H     H_    0.831368 0.516229 0.974321 0.285085
H38   H     H_    0.894679 0.420263 0.945066 0.263316
H39   H     H_    0.901126 0.551107 0.054494 0.279829
H40   H     H_    0.557515 0.647266 0.876682 0.173266
H41   H     H_    0.460321 0.484094 0.104517 0.181914
H42   H     H_    0.064266 0.703708 0.813357 0.215375
H43   H     H_    0.313203 0.677582 0.547152 0.171646
H44   H     H_    0.913056 0.938144 0.497085 0.366975
N1    N     N_R   0.857543 0.459295 0.594804 -0.326606
N2    N     N_R   0.154472 0.423473 0.655108 -0.325321
N3    N     N_2   0.500610 0.501330 0.852150 -0.173063
N4    N     N_2   0.500630 0.501360 0.147810 -0.212676
O1    O     O_R   0.499990 0.319060 0.613040 -0.580625
O2    O     O_R   0.583840 0.500020 0.613040 -0.621410
O3    O     O_R   0.583850 0.500060 0.386900 -0.565506
O4    O     O_2   0.870356 0.676555 0.607862 -0.539299
O5    O     O_2   0.899883 0.051025 0.698815 -0.564709
O6    O     O_R   0.938671 0.016148 0.495018 -0.758424
O7    O     O_3   0.686071 0.397271 0.305259 -0.575728
O8    O     O_2   0.633621 0.728286 0.652958 -0.663161
O9    O     O_R   0.689661 0.679360 0.833800 -0.781033
O10   O     O_3   0.532927 0.077406 0.623838 -0.623246
O11   O     O_2   0.437936 0.333574 0.870164 -0.582809
O12   O     O_2   0.843906 0.243768 0.573126 -0.515302
O13   O     O_R   0.527877 0.304899 0.965639 -0.839584
O14   O     O_2   0.642752 0.568169 0.092341 -0.592102
O15   O     O_R   0.593032 0.703177 0.220625 -0.809370
O16   O     O_2   0.063187 0.026236 0.512939 -0.602264
O17   O     O_R   0.081538 0.009616 0.735186 -0.718097
O18   O     O_2   0.976790 0.852271 0.808518 -0.602899
O19   O     O_R   0.892655 0.744559 0.854754 -0.776647
O20   O     O_3   0.201189 0.680470 0.586596 -0.590580
O21   O     O_2   0.361061 0.276468 0.323586 -0.605906
O22   O     O_R   0.328959 0.148274 0.491361 -0.731559
O23   O     O_2   0.158715 0.204199 0.656159 -0.503874
O24   O     O_2   0.216517 0.170565 0.384766 -0.562511
O25   O     O_R   0.144178 0.314744 0.368436 -0.828819
O26   O     O_3   0.807017 0.376299 0.349822 -0.608685
O27   O     O_2   0.161557 0.594075 0.799962 -0.487736
O28   O     O_R   0.500010 0.319100 0.386900 -0.632625
O29   O     O_R   0.416150 0.499940 0.613100 -0.585094
O30   O     O_R   0.416160 0.499980 0.386960 -0.582541
O31   O     O_R   0.499990 0.680900 0.613100 -0.602598
O32   O     O_R   0.500010 0.680940 0.386960 -0.584299
Zn1   Zn    Zn3+2 0.499990 0.499970 0.650990 1.025987
Zn2   Zn    Zn3+2 0.500010 0.500030 0.349010 1.010312

loop_
_geom_bond_atom_site_label_1
_geom_bond_atom_site_label_2
_ccdc_geom_bond_type
C38   H14   S    
H44   O6    S    
C1    C21   S    
C32   O7    S    
H30   O22   S    
C54   C55   A    
C32   H2    S    
C1    O28   A    
C7    C8    A    
C53   C54   A    
O29   Zn1   S    
C12   C23   A    
C29   C30   A    
C23   C42   S    
C12   C28   A    
H21   O19   S    
H20   O17   S    
C47   H29   S    
C28   C29   A    
O1    Zn1   S    
N3    Zn1   S    
C26   N1    A    
C14   C36   S    
C38   C39   S    
C40   O11   D    
C2    N2    A    
C10   C17   A    
C18   H12   S    
C52   H39   S    
O31   Zn1   S    
C18   C19   D    
C56   O23   S    
C49   O24   D    
C17   N1    S    
C50   O26   S    
C51   H35   S    
C48   O21   D    
C46   H26   S    
C5    H43   S    
N4    Zn2   S    
C8    C9    A    
C36   O8    D    
C39   H16   S    
C52   H38   S    
C35   H8    S    
C47   H27   S    
C41   O14   D    
C50   H32   S    
C34   C56   A    
C27   O12   S    
C40   O13   S    
C38   H13   S    
C45   C53   A    
C13   C14   A    
C24   C41   S    
C15   H1    S    
C13   C25   S    
H9    O9    S    
C36   O9    S    
C44   C46   S    
C25   O2    A    
C2    O27   S    
C11   O7    S    
C51   C52   S    
C44   H24   S    
H19   O15   S    
O32   Zn2   S    
C26   O4    S    
C9    N2    S    
O2    Zn1   S    
C37   O10   S    
C20   H34   S    
C44   O20   S    
C22   N3    D    
C29   C45   A    
C24   N4    D    
C10   O26   S    
C37   C38   S    
C3    C9    A    
C51   H36   S    
C46   H25   S    
C50   H33   S    
C23   C34   A    
C37   H10   S    
C50   C51   S    
C31   O5    D    
C52   H37   S    
C34   C45   A    
C47   H28   S    
C41   O15   S    
C19   H23   S    
C43   O18   D    
C4    C6    S    
C26   C30   A    
C33   H4    S    
C12   C31   S    
C22   C24   S    
C16   O32   A    
C43   O19   S    
C3    O20   S    
C25   O3    A    
C4    O30   A    
C43   C55   S    
C15   C17   A    
H18   O13   S    
C46   C47   S    
C22   H40   S    
C21   O10   S    
C3    C5    A    
C2    C53   A    
O30   Zn2   S    
C6    C7    A    
C30   C55   A    
C7    C48   S    
H31   O25   S    
O3    Zn2   S    
C44   H22   S    
C56   N2    A    
C32   C33   S    
C40   N3    S    
C11   C13   A    
C42   O16   D    
C5    C6    A    
C49   O25   S    
C16   C19   S    
C37   H11   S    
C33   C35   S    
C31   O6    S    
C27   N1    A    
C35   H6    S    
C18   C20   S    
C39   H17   S    
H41   N4    S    
C10   C11   A    
C48   O22   S    
C20   C21   D    
C33   H5    S    
C27   C28   A    
C39   H15   S    
C14   C15   A    
C54   H42   S    
C35   H7    S    
C32   H3    S    
C16   O31   A    
O28   Zn2   S    
C8    C49   S    
C42   O17   S    
C1    O1    A    
C4    O29   A    
