data_mof_unit_39370.cif
_audit_creation_date              2012-10-26T18:34:48-0400
_audit_creation_method            fapswitch 2.2
_symmetry_space_group_name_H-M    P1
_symmetry_Int_Tables_number       1
_space_group_crystal_system       monoclinic
_cell_length_a                    10.841823
_cell_length_b                    9.691119
_cell_length_c                    17.710188
_cell_angle_alpha                 90.0
_cell_angle_beta                  100.810987
_cell_angle_gamma                 90.0
_cell_volume                      1827.77201349

loop_
_atom_site_label
_atom_site_type_symbol
_atom_type_description
_atom_site_fract_x
_atom_site_fract_y
_atom_site_fract_z
_atom_type_partial_charge
C1    C     C_R   0.262847 0.500214 0.501411 0.577192
C2    C     C_R   0.497680 0.499935 0.643996 0.570172
C3    C     C_R   0.871115 0.501162 0.498231 0.004547
C4    C     C_R   0.128885 0.501162 0.501768 0.004540
C5    C     C_R   0.469006 0.621266 0.842536 -0.092760
C6    C     C_R   0.477543 0.378139 0.151257 -0.101427
C7    C     C_R   0.530991 0.621266 0.157464 -0.092761
C8    C     C_R   0.522457 0.378139 0.848743 -0.101427
C9    C     C_R   0.468131 0.621066 0.763697 -0.097404
C10   C     C_R   0.478377 0.377714 0.230067 -0.106742
C11   C     C_R   0.531867 0.621066 0.236303 -0.097405
C12   C     C_R   0.737153 0.500214 0.498589 0.577201
C13   C     C_R   0.521623 0.377714 0.769933 -0.106749
C14   C     C_R   0.495763 0.499601 0.726836 0.002884
C15   C     C_R   0.504236 0.499601 0.273164 0.002887
C16   C     C_R   0.412570 0.075379 0.446556 0.281053
C17   C     C_R   0.586221 0.924352 0.554297 0.280165
C18   C     C_R   0.587430 0.075379 0.553444 0.281054
C19   C     C_R   0.413779 0.924352 0.445703 0.280165
C20   C     C_R   0.496752 0.499999 0.885046 0.034524
C21   C     C_R   0.503246 0.499999 0.114954 0.034524
C22   C     C_1   0.498973 0.500484 0.966011 -0.008492
C23   C     C_1   0.501026 0.500484 0.033988 -0.008492
C24   C     C_R   0.064285 0.376360 0.502156 -0.106862
C25   C     C_R   0.935924 0.626652 0.499530 -0.106627
C26   C     C_R   0.935715 0.376360 0.497845 -0.106854
C27   C     C_R   0.064076 0.626652 0.500469 -0.106627
C28   C     C_R   0.502320 0.499936 0.356004 0.570176
Cu1   Cu    Cu3+1 0.500000 0.640660 0.500000 1.136026
Cu2   Cu    Cu3+1 0.500000 0.359340 0.500000 1.135831
H1    H     H_    0.444924 0.715550 0.731599 0.170184
H2    H     H_    0.766912 0.644629 0.687024 0.350660
H3    H     H_    0.801709 0.351643 0.669528 0.350309
H4    H     H_    0.233083 0.644631 0.312977 0.350660
H5    H     H_    0.112727 0.278629 0.505814 0.196732
H6    H     H_    0.887918 0.724673 0.499558 0.177891
H7    H     H_    0.887273 0.278629 0.494188 0.196732
H8    H     H_    0.112082 0.724673 0.500440 0.177893
H9    H     H_    0.457853 0.282365 0.257009 0.189643
H10   H     H_    0.555073 0.715551 0.268400 0.170183
H11   H     H_    0.542148 0.282365 0.742991 0.189642
H12   H     H_    0.448090 0.715793 0.870299 0.132067
H13   H     H_    0.456503 0.283687 0.118632 0.135161
H14   H     H_    0.551907 0.715793 0.129701 0.132067
H15   H     H_    0.543497 0.283687 0.881368 0.135161
H16   H     H_    0.198275 0.351648 0.330490 0.350310
N1    N     N_R   0.500000 0.852070 0.500000 -0.327164
N2    N     N_R   0.500000 0.147930 0.500000 -0.324570
O1    O     O_R   0.319640 0.618740 0.499990 -0.461396
O2    O     O_2   0.166526 0.129771 0.405193 -0.286106
O3    O     O_3   0.280467 0.334358 0.364403 -0.499042
O4    O     O_2   0.821464 0.893264 0.645207 -0.204517
O5    O     O_2   0.637723 0.861585 0.704617 -0.285896
O6    O     O_3   0.720744 0.665378 0.634476 -0.491355
O7    O     O_2   0.718045 0.108050 0.700357 -0.225521
O8    O     O_2   0.833474 0.129770 0.594809 -0.286092
O9    O     O_3   0.719533 0.334359 0.635597 -0.499044
O10   O     O_2   0.178535 0.893264 0.354794 -0.204521
O11   O     O_2   0.362274 0.861586 0.295383 -0.285895
O12   O     O_R   0.680360 0.381260 0.500010 -0.454516
O13   O     O_3   0.279256 0.665378 0.365523 -0.491355
O14   O     O_R   0.680360 0.618740 0.500010 -0.461398
O15   O     O_R   0.319640 0.381260 0.499990 -0.454520
O16   O     O_R   0.500000 0.618830 0.391250 -0.449652
O17   O     O_R   0.500000 0.381170 0.608750 -0.457410
O18   O     O_R   0.500000 0.618830 0.608750 -0.449652
O19   O     O_R   0.500000 0.381170 0.391250 -0.457410
O20   O     O_2   0.281951 0.108050 0.299643 -0.225505
S1    S     S_3+6 0.287135 0.163767 0.379214 0.079889
S2    S     S_3+6 0.691295 0.834926 0.633610 0.092578
S3    S     S_3+6 0.712864 0.163767 0.620787 0.079888
S4    S     S_3+6 0.308704 0.834926 0.366390 0.092577

loop_
_geom_bond_atom_site_label_1
_geom_bond_atom_site_label_2
_ccdc_geom_bond_type
C6    C10   A    
C18   N2    A    
C5    H12   S    
C26   H7    S    
C5    C9    A    
C8    C13   A    
C3    C12   S    
C25   C27   A    
C12   O14   A    
Cu2   O19   S    
O6    S2    S    
C20   C22   S    
O11   S4    D    
C9    C14   A    
C2    O17   A    
C16   N2    A    
C13   H11   S    
C17   C18   A    
C19   S4    S    
Cu1   O16   S    
C17   S2    S    
C5    C20   A    
Cu1   O1    S    
C13   C14   A    
O9    S3    S    
C7    C11   A    
O10   S4    D    
C15   C28   S    
Cu1   Cu2   S    
C11   C15   A    
C8    C20   A    
C16   C19   A    
C4    C24   A    
O5    S2    D    
C1    O15   A    
O13   S4    S    
H2    O6    S    
C1    C4    S    
O2    S1    D    
Cu1   N1    S    
C22   C23   T    
C6    H13   S    
C21   C23   S    
C7    C21   A    
C11   H10   S    
C2    C14   S    
C19   N1    A    
Cu2   O17   S    
O4    S2    D    
C9    H1    S    
C25   H6    S    
Cu1   O18   S    
C24   H5    S    
C28   O16   A    
C3    C25   A    
C28   O19   A    
Cu2   O12   S    
C27   H8    S    
Cu1   O14   S    
H4    O13   S    
Cu2   N2    S    
C18   S3    S    
C8    H15   S    
O20   S1    D    
H3    O9    S    
C4    C27   A    
O3    S1    S    
C7    H14   S    
C10   C15   A    
Cu2   O15   S    
C6    C21   A    
C1    O1    A    
H16   O3    S    
C3    C26   A    
O7    S3    D    
C16   S1    S    
C17   N1    A    
O8    S3    D    
C24   C26   A    
C10   H9    S    
C2    O18   A    
C12   O12   A    
