data_mof_unit_56137.cif
_audit_creation_date              2012-12-11T15:48:03-0500
_audit_creation_method            fapswitch 2.2
_symmetry_space_group_name_H-M    P1
_symmetry_Int_Tables_number       1
_space_group_crystal_system       triclinic
_cell_length_a                    6.918823
_cell_length_b                    17.620498
_cell_length_c                    19.510995
_cell_angle_alpha                 108.47804
_cell_angle_beta                  89.302641
_cell_angle_gamma                 90.416962
_cell_volume                      2255.83363298

loop_
_atom_site_label
_atom_site_type_symbol
_atom_type_description
_atom_site_fract_x
_atom_site_fract_y
_atom_site_fract_z
_atom_type_partial_charge
O1    O     O_R   0.494330 0.415710 0.413720 -0.522413
O2    O     O_R   0.819360 0.430070 0.560210 -0.500193
O3    O     O_R   0.994320 0.584290 0.586280 -0.536961
C1    C     C_R   0.650012 0.414461 0.581487 0.769980
O4    O     O_R   0.823740 0.406290 0.412670 -0.515776
O5    O     O_R   0.998730 0.560340 0.437690 -0.545725
C2    C     C_R   0.655235 0.383479 0.384271 0.777573
O6    O     O_R   0.489920 0.439660 0.562310 -0.538209
O7    O     O_3   0.662330 0.550570 0.508380 -0.396424
V1    V     V_3+5 0.935370 0.490620 0.498440 1.580027
O8    O     O_R   0.328720 0.569930 0.439790 -0.541145
C3    C     C_R   0.161291 0.583080 0.416477 0.700600
O9    O     O_R   0.324340 0.593710 0.587330 -0.549398
C4    C     C_R   0.153876 0.616842 0.615393 0.737319
V2    V     V_3+5 0.435940 0.509380 0.501560 1.500719
O10   O     O_3   0.159110 0.449430 0.491620 -0.341885
C5    C     C_R   0.300592 0.735697 0.707508 -0.278352
H1    H     H_    0.431415 0.724874 0.674927 0.132046
C6    C     C_R   0.294956 0.800677 0.772296 0.381667
C7    C     C_R   0.124370 0.815695 0.815355 -0.148596
C8    C     C_R   0.963721 0.765568 0.791830 -0.255371
H2    H     H_    0.831903 0.775624 0.823952 0.177350
C9    C     C_R   0.967932 0.702397 0.726751 0.352189
C10   C     C_R   0.139352 0.685771 0.683784 -0.160329
C11   C     C_R   0.300879 0.623893 0.311375 0.290694
C12   C     C_R   0.154344 0.629809 0.364797 -0.167613
C13   C     C_R   0.997719 0.681588 0.369146 -0.212186
C14   C     C_R   0.986112 0.728650 0.323264 0.018289
C15   C     C_R   0.132289 0.724375 0.271468 0.008866
C16   C     C_R   0.290825 0.672303 0.265857 0.092816
C17   C     C_R   0.828945 0.779684 0.328448 -0.180592
C18   C     C_R   0.813061 0.826509 0.282763 0.381493
C19   C     C_R   0.962919 0.825578 0.231566 -0.041101
C20   C     C_R   0.120260 0.772251 0.225216 -0.019210
C21   C     C_R   0.267801 0.767267 0.173349 0.122915
C22   C     C_R   0.422916 0.714788 0.167528 -0.208993
C23   C     C_R   0.434962 0.668251 0.213347 -0.127229
C24   C     C_R   0.965333 0.878331 0.189244 0.311847
C25   C     C_R   0.109149 0.869514 0.134413 -0.162476
C26   C     C_R   0.259237 0.814580 0.127831 -0.249341
H3    H     H_    0.713976 0.781987 0.367328 0.151640
H4    H     H_    0.370600 0.808668 0.086868 0.144845
H5    H     H_    0.558378 0.629146 0.207417 0.173601
C27   C     C_R   0.783652 0.181958 0.867178 -0.222635
C28   C     C_R   0.622608 0.133769 0.868912 -0.085260
C29   C     C_R   0.466198 0.132461 0.823557 -0.153788
C30   C     C_R   0.471044 0.177178 0.775722 0.074688
C31   C     C_R   0.630107 0.227429 0.775117 0.061834
C32   C     C_R   0.786512 0.231604 0.822692 0.022896
C33   C     C_R   0.319542 0.170885 0.727660 -0.186903
C34   C     C_R   0.324773 0.211742 0.677057 0.378951
C35   C     C_R   0.479879 0.265239 0.676682 -0.013333
C36   C     C_R   0.632725 0.272931 0.726636 -0.100716
C37   C     C_R   0.789726 0.324983 0.727736 -0.032728
C38   C     C_R   0.945377 0.327400 0.774250 -0.110426
C39   C     C_R   0.943481 0.283662 0.822634 0.318953
C40   C     C_R   0.487670 0.309864 0.627477 0.274371
C41   C     C_R   0.642235 0.364270 0.630405 -0.213409
C42   C     C_R   0.789660 0.373176 0.681869 0.344451
H6    H     H_    0.904747 0.180207 0.901120 0.134951
H7    H     H_    0.072259 0.363547 0.773885 0.156339
C43   C     C_R   0.796045 0.259815 0.292432 0.319876
C44   C     C_R   0.781273 0.196097 0.227249 -0.288112
C45   C     C_R   0.617347 0.185887 0.183596 -0.170560
C46   C     C_R   0.464788 0.241522 0.205726 0.244323
C47   C     C_R   0.478668 0.306942 0.270321 0.281056
C48   C     C_R   0.643810 0.315745 0.314714 -0.169410
O11   O     O_R   0.774940 0.060470 0.937800 -0.544685
O12   O     O_R   0.440880 0.093730 0.087350 -0.534528
O13   O     O_R   0.266130 0.939630 0.062280 -0.540425
C49   C     C_R   0.608889 0.117232 0.115150 0.765830
O14   O     O_R   0.445480 0.069960 0.939820 -0.538324
O15   O     O_R   0.270770 0.915690 0.913690 -0.507266
C50   C     C_R   0.614746 0.084865 0.918167 0.732601
O16   O     O_R   0.770300 0.084410 0.086380 -0.550261
O17   O     O_3   0.602600 0.949510 0.991670 -0.362689
V3    V     V_3+5 0.329470 0.009370 0.001550 1.485593
O18   O     O_R   0.940760 0.906160 0.912560 -0.548701
C51   C     C_R   0.110907 0.883580 0.884312 0.743022
O19   O     O_R   0.936150 0.929930 0.060100 -0.538876
C52   C     C_R   0.103601 0.916602 0.083160 0.688773
V4    V     V_3+5 0.828930 0.990450 0.998310 1.452829
O20   O     O_3   0.105670 0.050490 0.008320 -0.374806
H8    H     H_    0.537070 0.710469 0.127943 0.126631
H9    H     H_    0.342211 0.094558 0.823962 0.122072
H10   H     H_    0.197872 0.131712 0.727637 0.142717
O21   O     O_3   0.175281 0.197644 0.628851 -0.612191
H11   H     H_    0.234301 0.173017 0.580357 0.320819
O22   O     O_3   0.342440 0.300433 0.577585 -0.606220
H12   H     H_    0.402060 0.300042 0.531048 0.287141
O23   O     O_3   0.929611 0.431111 0.687308 -0.614949
H13   H     H_    0.954413 0.458518 0.739200 0.284294
O24   O     O_3   0.453362 0.850542 0.793448 -0.641880
H14   H     H_    0.558998 0.832097 0.757275 0.278043
O25   O     O_3   0.098861 0.293799 0.868386 -0.643020
H15   H     H_    0.052394 0.290403 0.915449 0.291818
O26   O     O_3   0.956587 0.267307 0.335605 -0.621294
H16   H     H_    0.049834 0.224193 0.312001 0.291533
H17   H     H_    0.897907 0.153202 0.211164 0.127351
O27   O     O_3   0.304531 0.234606 0.163226 -0.638820
H18   H     H_    0.224764 0.191692 0.172249 0.285155
O28   O     O_3   0.333720 0.363725 0.290959 -0.636250
H19   H     H_    0.226766 0.350219 0.255903 0.333947
O29   O     O_3   0.803465 0.656731 0.707953 -0.632006
H20   H     H_    0.756626 0.665320 0.663200 0.283313
O30   O     O_3   0.452180 0.570496 0.300948 -0.649514
H21   H     H_    0.407578 0.523013 0.313415 0.316497
H22   H     H_    0.884905 0.686098 0.409322 0.142566
O31   O     O_3   0.646619 0.870717 0.289231 -0.613521
H23   H     H_    0.601223 0.864369 0.239814 0.330309
O32   O     O_3   0.835312 0.940933 0.205615 -0.637037
H24   H     H_    0.891984 0.985952 0.192005 0.282044

loop_
_geom_bond_atom_site_label_1
_geom_bond_atom_site_label_2
_ccdc_geom_bond_type
C27   C32   A    
C39   O25   S    
O21   H11   S    
O24   H14   S    
C47   O28   S    
O12   V3    S    
O25   H15   S    
C1    O6    A    
O26   H16   S    
C36   C37   A    
C35   C36   A    
C12   C13   A    
C43   C44   A    
C40   O22   S    
C43   C48   A    
C8    H2    S    
C14   C15   A    
C22   H8    S    
O5    C3    A    
C24   C25   A    
O30   H21   S    
V3    O20   S    
O11   C50   A    
V2    O10   S    
C20   C21   A    
C45   C49   S    
C4    C10   S    
O12   C49   A    
O13   C52   A    
C44   H17   S    
O14   V3    S    
C29   C30   A    
O8    V2    S    
C30   C31   A    
C9    C10   A    
O1    V2    S    
O7    V1    S    
C6    O24   S    
C29   H9    S    
C26   H4    S    
C47   C48   A    
O9    C4    A    
O13   V3    S    
O29   H20   S    
C11   O30   S    
C5    H1    S    
C30   C33   A    
C37   C42   A    
C14   C17   A    
C31   C36   A    
C5    C10   A    
C18   O31   S    
C34   C35   A    
O17   V3    S    
C25   C52   S    
O14   C50   A    
O17   V4    S    
O23   H13   S    
O4    C2    A    
O18   C51   A    
C33   C34   A    
C41   C42   A    
C28   C29   A    
C15   C20   A    
C16   C23   A    
C3    C12   S    
C28   C50   S    
C21   C22   A    
C23   H5    S    
O2    C1    A    
C15   C16   A    
C43   O26   S    
O18   V4    S    
C9    O29   S    
C38   C39   A    
C19   C20   A    
O15   C51   A    
C42   O23   S    
O3    C4    A    
O19   V4    S    
C31   C32   A    
V4    O20   S    
O6    V2    S    
C8    C9    A    
C34   O21   S    
O2    V1    S    
C25   C26   A    
C27   C28   A    
C11   C16   A    
C37   C38   A    
C22   C23   A    
C17   H3    S    
O32   H24   S    
O1    C2    A    
C17   C18   A    
C46   O27   S    
O19   C52   A    
O5    V1    S    
O8    C3    A    
O16   V4    S    
C32   C39   A    
C19   C24   A    
O11   V4    S    
C45   C46   A    
C6    C7    A    
O9    V2    S    
C21   C26   A    
C11   C12   A    
O4    V1    S    
O3    V1    S    
V1    O10   S    
O31   H23   S    
C18   C19   A    
C49   O16   A    
C40   C41   A    
C13   H22   S    
C27   H6    S    
C38   H7    S    
O27   H18   S    
C5    C6    A    
O7    V2    S    
O28   H19   S    
C35   C40   A    
C33   H10   S    
C2    C48   S    
C44   C45   A    
C7    C8    A    
C46   C47   A    
C1    C41   S    
C13   C14   A    
O15   V3    S    
C24   O32   S    
O22   H12   S    
C7    C51   S    
