data_mof_unit_56904.cif
_audit_creation_date              2012-12-11T15:57:06-0500
_audit_creation_method            fapswitch 2.2
_symmetry_space_group_name_H-M    P1
_symmetry_Int_Tables_number       1
_space_group_crystal_system       triclinic
_cell_length_a                    17.460628
_cell_length_b                    24.447695
_cell_length_c                    14.892297
_cell_angle_alpha                 89.994573
_cell_angle_beta                  125.930852
_cell_angle_gamma                 90.006376
_cell_volume                      5147.5127482

loop_
_atom_site_label
_atom_site_type_symbol
_atom_type_description
_atom_site_fract_x
_atom_site_fract_y
_atom_site_fract_z
_atom_type_partial_charge
C1    C     C_R   0.356235 0.153148 0.907729 -0.246038
C2    C     C_R   0.356208 0.846857 0.907790 -0.243872
C3    C     C_R   0.856184 0.653121 0.907726 -0.246419
C4    C     C_R   0.856261 0.346830 0.907790 -0.243702
C5    C     C_R   0.687696 0.127695 0.091709 -0.056205
C6    C     C_R   0.687573 0.872165 0.091644 -0.060279
C7    C     C_R   0.187550 0.627870 0.091672 -0.053985
C8    C     C_R   0.187747 0.372374 0.091694 -0.062455
C9    C     C_R   0.593599 0.872862 0.905473 -0.141683
C10   C     C_R   0.593750 0.127013 0.905514 -0.140739
C11   C     C_R   0.093748 0.373015 0.905504 -0.140922
C12   C     C_R   0.093622 0.627150 0.905494 -0.141468
C13   C     C_R   0.432250 0.000069 0.630278 0.063515
C14   C     C_R   0.932274 0.499923 0.630289 0.063298
C15   C     C_R   0.813313 0.999701 0.357215 -0.026039
C16   C     C_R   0.313077 0.500345 0.357507 -0.026067
C17   C     C_R   0.680705 0.143210 0.997205 -0.040877
C18   C     C_R   0.680441 0.856549 0.997124 -0.041806
C19   C     C_R   0.180496 0.643413 0.997167 -0.041111
C20   C     C_R   0.180684 0.356782 0.997178 -0.041687
C21   C     C_3   0.999561 0.960547 0.621616 -0.160013
C22   C     C_3   0.008240 0.049239 0.601526 -0.161782
C23   C     C_3   0.508867 0.450277 0.599985 -0.160355
C24   C     C_3   0.498994 0.538465 0.623126 -0.159677
C25   C     C_3   0.929423 0.009423 0.578445 -0.119996
C26   C     C_3   0.429564 0.489172 0.578438 -0.121001
C27   C     C_3   0.904766 0.999503 0.462681 0.190281
C28   C     C_3   0.404539 0.500566 0.462934 0.190502
C29   C     C_3   0.972448 0.950793 0.503740 -0.163910
C30   C     C_3   0.981412 0.039227 0.484024 -0.161009
C31   C     C_3   0.481693 0.461759 0.482780 -0.158204
C32   C     C_3   0.471485 0.549694 0.505482 -0.165179
C33   C     C_3   0.049666 0.990607 0.525613 -0.132819
C34   C     C_3   0.549212 0.510786 0.525839 -0.134518
C35   C     C_R   0.451447 0.845676 0.092050 0.499393
C36   C     C_R   0.451484 0.154376 0.091945 0.467392
C37   C     C_R   0.951563 0.345623 0.091995 0.474794
C38   C     C_R   0.951363 0.654324 0.091995 0.493053
C39   C     C_3   0.075857 0.000444 0.642359 0.175242
C40   C     C_3   0.575783 0.499480 0.642332 0.174729
C41   C     C_3   0.281606 0.785293 0.040522 -0.433030
C42   C     C_3   0.283249 0.215143 0.042676 -0.440466
C43   C     C_3   0.781748 0.285136 0.040500 -0.438743
C44   C     C_3   0.783042 0.714959 0.042602 -0.435078
C45   C     C_3   0.725717 0.238248 0.042604 -0.349612
C46   C     C_3   0.726353 0.761689 0.043814 -0.352959
C47   C     C_3   0.225536 0.738431 0.042612 -0.355500
C48   C     C_3   0.226600 0.261906 0.043889 -0.346795
C49   C     C_3   0.903613 0.216608 0.069210 -0.300885
C50   C     C_3   0.903131 0.783709 0.066976 -0.297802
C51   C     C_3   0.403404 0.716710 0.069185 -0.302194
C52   C     C_3   0.403359 0.283828 0.066953 -0.296332
C53   C     C_3   0.267357 0.743443 0.876673 -0.388055
C54   C     C_3   0.266012 0.255872 0.876254 -0.391626
C55   C     C_3   0.767556 0.243301 0.876687 -0.386594
C56   C     C_3   0.765845 0.755746 0.876232 -0.392926
C57   C     C_3   0.338481 0.765288 0.996899 0.378771
C58   C     C_3   0.338552 0.234790 0.996767 0.373883
C59   C     C_3   0.838651 0.265173 0.996894 0.377081
C60   C     C_3   0.838370 0.734668 0.996758 0.375824
C61   C     C_3   0.738811 0.185617 0.994959 0.385417
C62   C     C_3   0.738478 0.814129 0.994848 0.392377
C63   C     C_3   0.238581 0.685799 0.994922 0.390347
C64   C     C_3   0.238740 0.314332 0.994908 0.387378
C65   C     C_3   0.844110 0.168918 0.065558 -0.471276
C66   C     C_3   0.843632 0.831120 0.064305 -0.474393
C67   C     C_3   0.343857 0.669049 0.065488 -0.471214
C68   C     C_3   0.343918 0.331272 0.064348 -0.474486
C69   C     C_3   0.707501 0.197397 0.875247 -0.399547
C70   C     C_3   0.706252 0.801858 0.874936 -0.405513
C71   C     C_3   0.207253 0.697578 0.875208 -0.404815
C72   C     C_3   0.206491 0.302034 0.874989 -0.400407
C73   C     C_3   0.529775 0.993970 0.565903 -0.518343
C74   C     C_3   0.366084 0.952184 0.449329 -0.525263
C75   C     C_3   0.866029 0.547756 0.449276 -0.521290
C76   C     C_3   0.029780 0.506058 0.565890 -0.518348
C77   C     C_R   0.472966 0.045715 0.239564 0.014695
C78   C     C_R   0.473723 0.954542 0.241048 -0.124222
C79   C     C_R   0.973743 0.545459 0.241062 -0.119930
C80   C     C_R   0.972925 0.454288 0.239525 0.010209
C81   C     C_3   0.533802 0.997094 0.466440 0.322462
C82   C     C_3   0.373329 0.950316 0.350693 0.321546
C83   C     C_3   0.873231 0.549614 0.350608 0.321416
C84   C     C_3   0.033800 0.502941 0.466422 0.321390
C85   C     C_3   0.384403 0.054408 0.462241 -0.402772
C86   C     C_3   0.884493 0.445542 0.462321 -0.407237
C87   C     C_3   0.426770 0.000147 0.528057 0.290589
C88   C     C_3   0.926787 0.499829 0.528063 0.291284
C89   C     C_3   0.431393 0.000548 0.356584 0.228728
C90   C     C_3   0.931391 0.499427 0.356578 0.230127
C91   C     C_3   0.382206 0.053430 0.357676 -0.328152
C92   C     C_3   0.882313 0.446506 0.357767 -0.331004
C93   C     C_R   0.230852 0.954104 0.753273 -0.131079
C94   C     C_R   0.231014 0.046208 0.752665 -0.124816
C95   C     C_R   0.731011 0.453756 0.752531 -0.123777
C96   C     C_R   0.730824 0.545873 0.753191 -0.132094
C97   C     C_R   0.390851 0.186418 0.999048 -0.110047
C98   C     C_R   0.390856 0.813598 0.999175 -0.136930
C99   C     C_R   0.890735 0.686357 0.999074 -0.119743
C100  C     C_R   0.890974 0.313535 0.999142 -0.127365
C101  C     C_R   0.441746 0.000284 0.265017 -0.030082
C102  C     C_R   0.941736 0.499713 0.265004 -0.030144
C103  C     C_R   0.176082 0.000296 0.728796 0.026207
C104  C     C_R   0.676058 0.499652 0.728555 0.026471
C105  C     C_R   0.449135 0.045504 0.694125 -0.155460
C106  C     C_R   0.449735 0.954563 0.694204 -0.145745
C107  C     C_R   0.949758 0.545434 0.694203 -0.146760
C108  C     C_R   0.949134 0.454492 0.694136 -0.154448
C109  C     C_R   0.762694 0.953931 0.299853 -0.092613
C110  C     C_R   0.762582 0.045714 0.300770 -0.090095
C111  C     C_R   0.262462 0.454316 0.300967 -0.091037
C112  C     C_R   0.262578 0.546094 0.299947 -0.091244
H1    H     H_    0.315882 0.165545 0.821791 0.129215
H2    H     H_    0.315897 0.834473 0.821857 0.130363
H3    H     H_    0.815781 0.665497 0.821772 0.128864
H4    H     H_    0.816006 0.334427 0.821874 0.130825
H5    H     H_    0.009711 0.928676 0.680802 0.116585
H6    H     H_    0.024997 0.089331 0.644215 0.112812
H7    H     H_    0.526176 0.409763 0.641266 0.114293
H8    H     H_    0.508811 0.569523 0.683435 0.116205
H9    H     H_    0.956765 0.910554 0.461785 0.115792
H10   H     H_    0.972294 0.071187 0.425470 0.113283
H11   H     H_    0.472910 0.430613 0.423106 0.115708
H12   H     H_    0.455209 0.590360 0.464937 0.111807
H13   H     H_    0.100672 0.982932 0.505363 0.118023
H14   H     H_    0.599945 0.519606 0.505634 0.117905
H15   H     H_    0.329423 0.802304 0.125749 0.199679
H16   H     H_    0.332182 0.199038 0.128501 0.190414
H17   H     H_    0.829556 0.302152 0.125722 0.197931
H18   H     H_    0.831946 0.698835 0.128417 0.191907
H19   H     H_    0.232219 0.818665 0.986601 0.164702
H20   H     H_    0.234402 0.181188 0.990626 0.162019
H21   H     H_    0.732329 0.318494 0.986566 0.161882
H22   H     H_    0.734223 0.681003 0.990506 0.164998
H23   H     H_    0.149334 0.749880 0.993436 0.169665
H24   H     H_    0.150560 0.250122 0.995100 0.165667
H25   H     H_    0.649503 0.249672 0.993413 0.169113
H26   H     H_    0.650321 0.749887 0.995008 0.166237
H27   H     H_    0.750353 0.231727 0.129749 0.177920
H28   H     H_    0.751027 0.768586 0.130866 0.181260
H29   H     H_    0.250179 0.731908 0.129758 0.177362
H30   H     H_    0.251289 0.268819 0.130943 0.182081
H31   H     H_    0.952388 0.228338 0.156864 0.245791
H32   H     H_    0.953878 0.772532 0.154641 0.246027
H33   H     H_    0.452176 0.728423 0.156849 0.246478
H34   H     H_    0.454154 0.272645 0.154609 0.245344
H35   H     H_    0.869052 0.158221 0.151412 0.161324
H36   H     H_    0.869237 0.841682 0.150449 0.164156
H37   H     H_    0.368804 0.658332 0.151335 0.161577
H38   H     H_    0.369546 0.341823 0.150505 0.164034
H39   H     H_    0.306056 0.728307 0.843139 0.159701
H40   H     H_    0.303479 0.270512 0.840838 0.160304
H41   H     H_    0.806277 0.228188 0.843167 0.161853
H42   H     H_    0.803329 0.770428 0.840863 0.158141
H43   H     H_    0.217941 0.776206 0.820629 0.157026
H44   H     H_    0.216437 0.222770 0.821779 0.155782
H45   H     H_    0.718110 0.276049 0.820621 0.157208
H46   H     H_    0.716310 0.722637 0.821730 0.155711
H47   H     H_    0.132049 0.711007 0.821663 0.153789
H48   H     H_    0.131222 0.288691 0.822160 0.152886
H49   H     H_    0.632279 0.210791 0.821671 0.154784
H50   H     H_    0.631001 0.788478 0.822102 0.151948
H51   H     H_    0.714302 0.159902 0.837999 0.162269
H52   H     H_    0.712760 0.839140 0.836919 0.156576
H53   H     H_    0.213998 0.660077 0.837925 0.157940
H54   H     H_    0.213041 0.339299 0.836968 0.160971
H55   H     H_    0.946314 0.202678 0.040170 0.164374
H56   H     H_    0.943825 0.797743 0.035333 0.168212
H57   H     H_    0.446099 0.702768 0.040144 0.164652
H58   H     H_    0.444010 0.297841 0.035241 0.167894
H59   H     H_    0.853798 0.132059 0.029349 0.170868
H60   H     H_    0.852518 0.868126 0.027717 0.170574
H61   H     H_    0.353491 0.632192 0.029225 0.171027
H62   H     H_    0.352836 0.368276 0.027783 0.170369
H63   H     H_    0.575286 0.026379 0.627349 0.200765
H64   H     H_    0.291283 0.957416 0.419559 0.201132
H65   H     H_    0.791244 0.542490 0.419547 0.201172
H66   H     H_    0.075330 0.473667 0.627364 0.199989
H67   H     H_    0.559181 0.953916 0.608424 0.135687
H68   H     H_    0.390766 0.912225 0.492897 0.134488
H69   H     H_    0.890674 0.587729 0.492791 0.137578
H70   H     H_    0.059143 0.546124 0.608372 0.137694
H71   H     H_    0.568677 0.959053 0.465186 0.052793
H72   H     H_    0.410981 0.911863 0.358141 0.047046
H73   H     H_    0.910785 0.588095 0.357944 0.048068
H74   H     H_    0.068616 0.541003 0.465121 0.057943
H75   H     H_    0.428307 0.089878 0.513600 0.174643
H76   H     H_    0.311683 0.060646 0.438905 0.163442
H77   H     H_    0.811776 0.439270 0.438978 0.162638
H78   H     H_    0.928438 0.410095 0.513734 0.171901
H79   H     H_    0.462912 0.088053 0.249817 0.145342
H80   H     H_    0.464636 0.912350 0.253727 0.160151
H81   H     H_    0.964723 0.587654 0.253788 0.153874
H82   H     H_    0.962783 0.411955 0.249707 0.151577
H83   H     H_    0.418192 0.090994 0.358396 0.190317
H84   H     H_    0.307883 0.055305 0.282248 0.189914
H85   H     H_    0.808001 0.444562 0.282330 0.189592
H86   H     H_    0.918397 0.408969 0.358590 0.190068
H87   H     H_    0.207532 0.911993 0.737361 0.104789
H88   H     H_    0.208205 0.088400 0.736547 0.099559
H89   H     H_    0.708263 0.411553 0.736452 0.100463
H90   H     H_    0.707484 0.587978 0.737308 0.103608
H91   H     H_    0.434553 0.087681 0.667629 0.093616
H92   H     H_    0.436780 0.912355 0.667913 0.091537
H93   H     H_    0.936827 0.587642 0.667903 0.092987
H94   H     H_    0.934524 0.412317 0.667643 0.092203
H95   H     H_    0.778398 0.912186 0.329290 0.139313
H96   H     H_    0.778813 0.087352 0.330881 0.138718
H97   H     H_    0.278694 0.412677 0.331083 0.143451
H98   H     H_    0.278222 0.587854 0.329279 0.134992
H99   H     H_    0.744307 0.136766 0.176976 0.096858
H100  H     H_    0.744177 0.863010 0.176844 0.102916
H101  H     H_    0.244071 0.637094 0.176870 0.096651
H102  H     H_    0.244462 0.363408 0.176975 0.103390
H103  H     H_    0.562508 0.866233 0.818905 0.097650
H104  H     H_    0.562716 0.133595 0.818930 0.100966
H105  H     H_    0.062712 0.366470 0.818911 0.100099
H106  H     H_    0.062541 0.633815 0.818936 0.098501
H107  H     H_    0.876903 0.017056 0.596282 0.118266
H108  H     H_    0.377284 0.480402 0.596188 0.118441
N1    N     N_R   0.392450 0.103580 0.942190 -0.064942
N2    N     N_R   0.392450 0.896420 0.942190 -0.064207
N3    N     N_R   0.892450 0.603580 0.942190 -0.064085
N4    N     N_R   0.892450 0.396420 0.942190 -0.065140
N5    N     N_R   0.450490 0.896000 0.057360 -0.097896
N6    N     N_R   0.450490 0.104000 0.057360 -0.106085
N7    N     N_R   0.950490 0.396000 0.057360 -0.106286
N8    N     N_R   0.950490 0.604000 0.057360 -0.097851
N9    N     N_R   0.525490 0.028390 0.207550 -0.033095
N10   N     N_R   0.525490 0.971610 0.207550 -0.028298
N11   N     N_R   0.025490 0.528390 0.207550 -0.028184
N12   N     N_R   0.025490 0.471610 0.207550 -0.033001
N13   N     N_R   0.317450 0.971190 0.792000 -0.040412
N14   N     N_R   0.317450 0.028810 0.792000 -0.040105
N15   N     N_R   0.817450 0.471190 0.792000 -0.040146
N16   N     N_R   0.817450 0.528810 0.792000 -0.040277
N17   N     N_R   0.473900 0.028390 0.792280 -0.039409
N18   N     N_R   0.473900 0.971610 0.792280 -0.040001
N19   N     N_R   0.973900 0.528390 0.792280 -0.040144
N20   N     N_R   0.973900 0.471610 0.792280 -0.039242
N21   N     N_R   0.682310 0.971180 0.208170 -0.043061
N22   N     N_R   0.682310 0.028820 0.208170 -0.044297
N23   N     N_R   0.182310 0.471180 0.208170 -0.044261
N24   N     N_R   0.182310 0.528820 0.208170 -0.043386
N25   N     N_R   0.606470 0.103570 0.057210 -0.025051
N26   N     N_R   0.606470 0.896430 0.057210 -0.026605
N27   N     N_R   0.106470 0.603570 0.057210 -0.024926
N28   N     N_R   0.106470 0.396430 0.057210 -0.026740
N29   N     N_R   0.549740 0.896000 0.943240 -0.042815
N30   N     N_R   0.549740 0.104000 0.943240 -0.041580
N31   N     N_R   0.049740 0.396000 0.943240 -0.042218
N32   N     N_R   0.049740 0.604000 0.943240 -0.042187
Ni1   Ni    Ni4+2 0.433780 0.065390 0.868430 0.197487
Ni2   Ni    Ni4+2 0.433780 0.934610 0.868430 0.196517
Ni3   Ni    Ni4+2 0.933780 0.565390 0.868430 0.197333
Ni4   Ni    Ni4+2 0.933780 0.434610 0.868430 0.196702
Ni5   Ni    Ni4+2 0.565800 0.934190 0.131570 0.324965
Ni6   Ni    Ni4+2 0.565800 0.065810 0.131570 0.327489
Ni7   Ni    Ni4+2 0.065800 0.434190 0.131570 0.328433
Ni8   Ni    Ni4+2 0.065800 0.565810 0.131570 0.324023
S1    S     S_3+6 0.549128 0.821800 0.222590 -0.125411
O1    O     O_2   0.596651 0.775700 0.206007 -0.341358
O2    O     O_2   0.619852 0.866817 0.284830 -0.338506
O3    O     O_3   0.512008 0.800134 0.298302 -0.613431
H109  H     H_    0.569379 0.785562 0.367511 0.373442
S2    S     S_3+6 0.549550 0.178474 0.221919 -0.108893
O4    O     O_2   0.517124 0.198696 0.289816 -0.342901
O5    O     O_2   0.620114 0.133416 0.284430 -0.320403
O6    O     O_3   0.602660 0.229454 0.201744 -0.588710
H110  H     H_    0.657121 0.240279 0.277081 0.370329
S3    S     S_3+6 0.049284 0.321750 0.222533 -0.113265
O7    O     O_2   0.096842 0.275672 0.205952 -0.341606
O8    O     O_2   0.119958 0.366789 0.284770 -0.319309
O9    O     O_3   0.012193 0.300058 0.298261 -0.600599
H111  H     H_    0.069702 0.285849 0.367797 0.379399
S4    S     S_3+6 0.049348 0.678421 0.222006 -0.122030
O10   O     O_2   0.016827 0.698583 0.289845 -0.359486
O11   O     O_2   0.119973 0.633394 0.284529 -0.339319
O12   O     O_3   0.102438 0.729453 0.201926 -0.587580
H112  H     H_    0.156314 0.740637 0.277331 0.369220
O13   O     O_3   0.587784 0.042830 0.477473 -0.716109
H113  H     H_    0.655332 0.032586 0.531106 0.320312
O14   O     O_3   0.282733 0.950083 0.249436 -0.749426
H114  H     H_    0.255994 0.913042 0.241233 0.321415
O15   O     O_3   0.782619 0.549763 0.249372 -0.749787
H115  H     H_    0.755792 0.586781 0.241099 0.323937
O16   O     O_3   0.087846 0.457236 0.477497 -0.721895
H116  H     H_    0.155380 0.467515 0.531118 0.319766

loop_
_geom_bond_atom_site_label_1
_geom_bond_atom_site_label_2
_ccdc_geom_bond_type
N25   N30   A    
C55   C59   S    
C67   H37   S    
C15   C109  A    
C77   C101  A    
C42   C58   S    
N27   N32   A    
C46   C62   S    
N15   Ni4   S    
C8    H102  S    
C54   H44   S    
C86   C88   S    
C51   H33   S    
C44   H18   S    
S3    O7    D    
C29   C33   S    
C45   H27   S    
C62   C70   S    
C1    N1    A    
O9    H111  S    
C43   H21   S    
C21   H5    S    
C17   C61   S    
C30   H10   S    
C19   C63   S    
C111  N23   A    
C79   C102  A    
C36   C97   A    
C51   C57   S    
C65   H35   S    
C66   H36   S    
C42   H16   S    
C85   H76   S    
C78   C101  A    
N22   Ni6   S    
N6    Ni6   S    
C1    H1    S    
C70   H50   S    
C73   C81   S    
C44   C46   S    
N2    Ni2   S    
C11   C20   A    
C24   H8    S    
C86   H78   S    
C28   C32   S    
C81   O13   S    
C56   H42   S    
C52   H58   S    
C41   H19   S    
C94   N14   A    
C54   H40   S    
C21   C29   S    
C32   C34   S    
C73   H63   S    
C24   C32   S    
C74   H64   S    
N9    N10   A    
N28   Ni7   S    
C91   H83   S    
C110  N22   A    
C90   C92   S    
C33   H13   S    
N25   Ni6   S    
C79   N11   A    
C52   C58   S    
C14   C107  A    
N18   Ni2   S    
C7    C19   A    
C96   C104  A    
N19   Ni3   S    
C53   C71   S    
N4    Ni4   S    
C22   H6    S    
C52   H34   S    
C89   C101  S    
C35   N5    A    
C72   H54   S    
C6    N26   A    
C13   C106  A    
C96   H90   S    
C47   H29   S    
C77   N9    A    
C14   C88   S    
C2    H2    S    
N31   Ni4   S    
N16   Ni3   S    
C75   H65   S    
C107  H93   S    
C105  H91   S    
C61   C65   S    
C112  N24   A    
C105  N17   A    
N23   N24   A    
C16   C111  A    
C27   C29   S    
C41   H15   S    
N24   Ni8   S    
C93   C103  A    
C9    H103  S    
C82   C89   S    
C64   C68   S    
C24   C26   S    
C23   H7    S    
S1    O1    D    
C82   H72   S    
N21   N22   A    
C90   C102  S    
O3    H109  S    
N12   Ni7   S    
C74   C87   S    
C89   C91   S    
N13   N14   A    
C43   C59   S    
N9    Ni6   S    
N17   N18   A    
C59   C100  S    
C84   C90   S    
C80   N12   A    
C92   H86   S    
C50   H32   S    
C44   H22   S    
N1    Ni1   S    
N20   Ni4   S    
C62   C66   S    
C48   H30   S    
C43   H17   S    
C18   C62   S    
C51   C67   S    
N2    N5    A    
C106  H92   S    
C80   C102  A    
C10   N30   A    
N10   Ni5   S    
C37   N7    A    
N15   N16   A    
C13   C87   S    
C41   C47   S    
C31   C34   S    
C42   C48   S    
C44   C60   S    
C43   C45   S    
C55   C69   S    
S2    O5    D    
N13   Ni2   S    
N32   Ni3   S    
C53   H43   S    
C50   H56   S    
C55   H41   S    
C21   C25   S    
C3    N3    A    
C22   C30   S    
C47   H23   S    
C48   H24   S    
S2    O6    S    
S1    O3    S    
C42   H20   S    
N8    Ni8   S    
C95   H89   S    
C79   H81   S    
C50   C60   S    
N26   Ni5   S    
C10   H104  S    
N30   Ni1   S    
C22   C39   S    
C68   H38   S    
C3    C99   A    
C9    C18   A    
S4    O10   D    
C71   H53   S    
O14   H114  S    
C53   H39   S    
C37   S3    S    
C37   C100  A    
N26   N29   A    
C85   H75   S    
S3    O9    S    
C84   H74   S    
N19   N20   A    
C76   C84   S    
N27   Ni8   S    
N17   Ni1   S    
C93   H87   S    
C76   H66   S    
C47   C63   S    
C48   C64   S    
C5    C17   A    
C23   C40   S    
C2    N2    A    
C23   C26   S    
C12   H106  S    
C109  H95   S    
C73   C87   S    
C29   H9    S    
O12   H112  S    
C35   C98   A    
C11   H105  S    
C83   O15   S    
C81   C89   S    
C14   C108  A    
N29   Ni2   S    
O6    H110  S    
C15   C110  A    
C74   C82   S    
C5    H99   S    
C77   H79   S    
C78   H80   S    
C13   C105  A    
C53   C57   S    
C93   N13   A    
C107  N19   A    
N1    N6    A    
C56   C60   S    
C112  H98   S    
O15   H115  S    
O16   H116  S    
S4    O12   S    
C109  N21   A    
C34   H14   S    
C8    C20   A    
N21   Ni5   S    
C108  H94   S    
C84   O16   S    
C94   C103  A    
C25   H107  S    
N4    N7    A    
C80   H82   S    
C16   C112  A    
C46   H28   S    
C36   N6    A    
C4    H4    S    
C28   C31   S    
C5    N25   A    
C38   C99   A    
C49   C59   S    
C39   C103  S    
C78   N10   A    
N11   Ni8   S    
C12   N32   A    
C35   S1    S    
C41   C57   S    
C3    H3    S    
C91   H84   S    
C75   C83   S    
C67   H61   S    
C57   C98   S    
C49   H31   S    
C12   C19   A    
C45   C61   S    
C94   H88   S    
C31   H11   S    
C55   H45   S    
C8    N28   A    
C106  N18   A    
C110  H96   S    
C51   H57   S    
C23   C31   S    
C16   C28   S    
C7    N27   A    
C32   H12   S    
C60   C99   S    
C85   C91   S    
C33   C39   S    
C49   C65   S    
C65   H59   S    
C34   C40   S    
C66   H60   S    
C69   H49   S    
C49   H55   S    
C6    H100  S    
C10   C17   A    
C56   H46   S    
C15   C27   S    
C108  N20   A    
C76   C88   S    
C52   C68   S    
N28   N31   A    
N7    Ni7   S    
C46   H26   S    
C27   C30   S    
C58   C97   S    
C95   N15   A    
C76   H70   S    
C82   O14   S    
C85   C87   S    
C6    C18   A    
C63   C67   S    
C26   H108  S    
C1    C97   A    
S1    O2    D    
C68   H62   S    
N3    N8    A    
N23   Ni7   S    
O13   H113  S    
C4    N4    A    
C22   C25   S    
C11   N31   A    
C20   C64   S    
C9    N29   A    
C111  H97   S    
C40   C104  S    
C21   C39   S    
C45   H25   S    
C96   N16   A    
C74   H68   S    
C50   C66   S    
N14   Ni1   S    
C7    H101  S    
S4    O11   D    
C56   C70   S    
C4    C100  A    
C81   H71   S    
C92   H85   S    
C75   H69   S    
C95   C104  A    
C38   N8    A    
C54   C58   S    
C61   C69   S    
S3    O8    D    
C83   C90   S    
C86   H77   S    
C30   C33   S    
C36   S2    S    
C69   H51   S    
C63   C71   S    
C70   H52   S    
C25   C27   S    
C71   H47   S    
C26   C28   S    
C72   H48   S    
N5    Ni5   S    
C86   C92   S    
C38   S4    S    
C24   C40   S    
C64   C72   S    
S2    O4    D    
C73   H67   S    
N3    Ni3   S    
C75   C88   S    
C54   C72   S    
C2    C98   A    
N11   N12   A    
C83   H73   S    
