data_mof_unit_45690.cif
_audit_creation_date              2012-10-26T21:05:19-0400
_audit_creation_method            fapswitch 2.2
_symmetry_space_group_name_H-M    P1
_symmetry_Int_Tables_number       1
_space_group_crystal_system       triclinic
_cell_length_a                    9.641527
_cell_length_b                    10.783116
_cell_length_c                    13.869682
_cell_angle_alpha                 94.016355
_cell_angle_beta                  84.324232
_cell_angle_gamma                 91.435139
_cell_volume                      1431.13954011

loop_
_atom_site_label
_atom_site_type_symbol
_atom_type_description
_atom_site_fract_x
_atom_site_fract_y
_atom_site_fract_z
_atom_type_partial_charge
C1    C     C_R   0.503455 0.737480 0.496931 0.544860
C2    C     C_R   0.431855 0.940484 0.569080 -0.153295
C3    C     C_R   0.428495 0.068583 0.569002 -0.168540
C4    C     C_R   0.476859 0.500901 0.682891 0.543423
C5    C     C_R   0.493010 0.128271 0.490029 0.030693
C6    C     C_R   0.871209 0.333663 0.369530 -0.085164
C7    C     C_R   0.949849 0.250472 0.306920 -0.173456
C8    C     C_R   0.092651 0.249139 0.308079 -0.167378
C9    C     C_R   0.157768 0.331617 0.371344 -0.068768
C10   C     C_R   0.081716 0.417838 0.436421 0.122636
C11   C     C_R   0.932710 0.418066 0.436288 0.098414
C12   C     C_1   0.462483 0.503083 0.786452 -0.020357
C13   C     C_R   0.916144 0.580666 0.559485 0.352148
C14   C     C_R   0.064997 0.579056 0.562715 0.115694
C15   C     C_R   0.498207 0.262616 0.497472 0.603596
C16   C     C_R   0.523175 0.501354 0.317230 0.578148
C17   C     C_1   0.537419 0.498900 0.213688 -0.022621
C18   C     C_2   0.556499 0.491204 0.022461 -0.133000
C19   C     C_2   0.442909 0.508272 0.977654 -0.125744
C20   C     C_1   0.452299 0.505386 0.873626 -0.056171
C21   C     C_1   0.547348 0.495296 0.126503 -0.072893
C22   C     C_3   0.124811 0.662410 0.642454 -0.235037
C23   C     C_R   0.689380 0.876055 0.348846 0.020083
C24   C     C_3   0.081246 0.616756 0.743223 -0.434310
C25   C     C_3   0.811391 0.809090 0.382736 -0.255232
C26   C     C_3   0.952492 0.873220 0.356675 -0.461013
C27   C     C_3   0.770451 0.838354 0.167611 -0.278605
C28   C     C_3   0.669511 0.804312 0.091257 -0.430995
C29   C     C_R   0.700476 0.915719 0.253311 0.020955
C30   C     C_R   0.648346 0.031860 0.238107 -0.119288
C31   C     C_R   0.584306 0.107348 0.315751 0.205645
C32   C     C_R   0.557419 0.058889 0.408290 0.048960
C33   C     C_R   0.589033 0.933904 0.418785 -0.030733
C34   C     C_R   0.512896 0.872321 0.495751 -0.000173
Cu1   Cu    Cu3+1 0.359340 0.500010 0.500010 0.924532
Cu2   Cu    Cu3+1 0.640660 0.499990 0.499990 0.982570
H1    H     H_    0.342504 0.525015 0.018836 0.132478
H2    H     H_    0.967128 0.623740 0.762165 0.179705
H3    H     H_    0.111700 0.518516 0.746071 0.170472
H4    H     H_    0.134201 0.674549 0.798609 0.124240
H5    H     H_    0.237469 0.670692 0.635458 0.213410
H6    H     H_    0.093877 0.760255 0.639504 0.084211
H7    H     H_    0.985275 0.861712 0.277828 0.146069
H8    H     H_    0.947596 0.973948 0.379720 0.168333
H9    H     H_    0.033608 0.831074 0.395010 0.144490
H10   H     H_    0.802547 0.812637 0.463089 0.187101
H11   H     H_    0.813519 0.710530 0.353598 0.170857
H12   H     H_    0.762745 0.328364 0.362398 0.214594
H13   H     H_    0.572914 0.760715 0.125244 0.169485
H14   H     H_    0.719443 0.737545 0.034489 0.145144
H15   H     H_    0.641610 0.888014 0.055643 0.143998
H16   H     H_    0.860930 0.891211 0.134001 0.133925
H17   H     H_    0.809374 0.750125 0.190567 0.150328
H18   H     H_    0.558304 0.239246 0.230734 0.309663
H19   H     H_    0.878511 0.742842 0.625326 0.290269
H20   H     H_    0.899510 0.186733 0.256937 0.123971
H21   H     H_    0.153778 0.184065 0.259286 0.130231
H22   H     H_    0.267823 0.323726 0.366304 0.215589
H23   H     H_    0.657007 0.474852 0.981322 0.134043
H24   H     H_    0.374998 0.894568 0.628330 0.110492
H25   H     H_    0.661837 0.065609 0.165978 0.097659
H26   H     H_    0.374294 0.121321 0.630132 0.119180
N1    N     N_R   0.852210 0.498790 0.499090 -0.230123
N2    N     N_R   0.148080 0.498710 0.499060 -0.263887
O1    O     O_R   0.381190 0.680360 0.500010 -0.524576
O2    O     O_3   0.831340 0.660809 0.619093 -0.672145
O3    O     O_R   0.618760 0.680340 0.500000 -0.477828
O4    O     O_R   0.364420 0.499990 0.637850 -0.524924
O5    O     O_R   0.601990 0.499960 0.637840 -0.431176
O6    O     O_R   0.381240 0.319660 0.500000 -0.507950
O7    O     O_R   0.618810 0.319640 0.499990 -0.509232
O8    O     O_R   0.398010 0.500040 0.362160 -0.501595
O9    O     O_R   0.635580 0.500010 0.362150 -0.524879
O10   O     O_3   0.534086 0.221997 0.299705 -0.741208

loop_
_geom_bond_atom_site_label_1
_geom_bond_atom_site_label_2
_ccdc_geom_bond_type
Cu1   O8    S    
C24   H2    S    
C17   C21   T    
C27   H17   S    
C6    C7    A    
C8    H21   S    
C4    C12   S    
Cu2   N1    S    
C15   O7    A    
C9    C10   A    
C25   H11   S    
C1    O1    A    
Cu1   Cu2   S    
C16   O8    A    
Cu2   O7    S    
C3    C5    A    
C5    C32   A    
C14   N2    A    
C32   C33   A    
C14   C22   S    
C33   C34   A    
C25   C26   S    
Cu2   O3    S    
C26   H8    S    
C7    C8    A    
C13   C14   A    
C27   H16   S    
Cu1   N2    S    
C24   H3    S    
C12   C20   T    
C22   H6    S    
C2    H24   S    
C6    H12   S    
C7    H20   S    
Cu1   O4    S    
C4    O5    A    
C1    O3    A    
C26   H7    S    
C2    C3    A    
C11   N1    A    
C13   O2    S    
C23   C25   S    
C30   C31   A    
C28   H15   S    
C22   C24   S    
C25   H10   S    
C5    C15   S    
C22   H5    S    
C27   C29   S    
C10   C11   A    
Cu1   O1    S    
C1    C34   S    
C29   C30   A    
C16   O9    A    
C18   C21   S    
C16   C17   S    
C23   C29   A    
C18   H23   S    
C27   C28   S    
H19   O2    S    
Cu2   O5    S    
C3    H26   S    
C18   C19   D    
C28   H13   S    
C30   H25   S    
C6    C11   A    
C4    O4    A    
C15   O6    A    
C9    H22   S    
C31   O10   S    
C19   H1    S    
C26   H9    S    
C24   H4    S    
C2    C34   A    
H18   O10   S    
C28   H14   S    
Cu2   O9    S    
C31   C32   A    
C10   N2    A    
C19   C20   S    
Cu1   O6    S    
C8    C9    A    
C23   C33   A    
C13   N1    A    
