data_mof_unit_35194.cif
_audit_creation_date              2012-12-11T14:15:19-0500
_audit_creation_method            fapswitch 2.2
_symmetry_space_group_name_H-M    P1
_symmetry_Int_Tables_number       1
_space_group_crystal_system       triclinic
_cell_length_a                    11.131951
_cell_length_b                    12.723327
_cell_length_c                    23.521282
_cell_angle_alpha                 90.819802
_cell_angle_beta                  96.668118
_cell_angle_gamma                 68.62505
_cell_volume                      3079.89527104

loop_
_atom_site_label
_atom_site_type_symbol
_atom_type_description
_atom_site_fract_x
_atom_site_fract_y
_atom_site_fract_z
_atom_type_partial_charge
C1    C     C_R   0.149451 0.616091 0.428702 0.541581
C2    C     C_R   0.750240 0.522356 0.303464 0.100205
C3    C     C_R   0.706119 0.724716 0.315038 0.154310
C4    C     C_R   0.716827 0.735394 0.256148 0.053561
C5    C     C_R   0.731686 0.639869 0.221711 -0.036284
C6    C     C_R   0.717356 0.650359 0.162602 -0.125434
C7    C     C_R   0.684478 0.847707 0.169089 -0.107433
C8    C     C_R   0.708563 0.837069 0.228715 0.179708
C9    C     C_1   0.235368 0.162985 0.123025 0.013901
C10   C     C_2   0.180747 0.232893 0.226864 -0.108654
C11   C     C_2   0.157149 0.164116 0.263052 -0.080049
C12   C     C_R   0.759308 0.598240 0.401691 0.578886
C13   C     C_1   0.134136 0.197380 0.320895 0.017105
C14   C     C_1   0.210043 0.197828 0.169852 -0.026195
C15   C     C_1   0.117360 0.230742 0.368681 0.063419
C16   C     C_1   0.164886 0.753594 0.123721 0.021816
C17   C     C_2   0.133954 0.709131 0.229722 -0.069882
C18   C     C_2   0.236556 0.650813 0.267411 0.278821
C19   C     C_1   0.215048 0.639888 0.326696 -0.049440
C20   C     C_1   0.149208 0.731042 0.171333 0.017219
C21   C     C_1   0.191284 0.629950 0.374699 -0.006064
C22   C     C_1   0.625472 0.759523 0.864745 0.041116
C23   C     C_R   0.101520 0.281686 0.423511 0.547658
C24   C     C_2   0.681297 0.733078 0.758300 -0.089144
C25   C     C_2   0.642475 0.661481 0.725634 0.257563
C26   C     C_1   0.668068 0.649464 0.666713 -0.028552
C27   C     C_1   0.655529 0.747435 0.816948 0.035618
C28   C     C_1   0.697982 0.632882 0.619004 0.001175
C29   C     C_R   0.201090 0.184936 0.855391 -0.001688
C30   C     C_R   0.105197 0.225731 0.641555 -0.047100
C31   C     C_R   0.990284 0.197648 0.719253 0.251924
C32   C     C_R   0.993841 0.213597 0.660554 0.102797
C33   C     C_R   0.213912 0.213967 0.681510 0.220736
C34   C     C_R   0.150027 0.616286 0.591422 0.560468
C35   C     C_R   0.200691 0.217471 0.739477 0.000314
C36   C     C_R   0.092944 0.201643 0.758989 -0.025045
C37   C     C_R   0.094692 0.183881 0.817806 -0.113841
C38   C     C_R   0.291045 0.225967 0.836180 -0.113085
C39   C     C_R   0.294016 0.237745 0.778357 -0.096658
C40   C     C_R   0.119614 0.737854 0.855422 0.054224
C41   C     C_R   0.191656 0.634153 0.651387 0.012303
C42   C     C_R   0.293563 0.547629 0.744692 -0.080632
C43   C     C_R   0.289698 0.546880 0.685306 0.126259
C44   C     C_R   0.109271 0.728085 0.678607 0.241446
C45   C     C_R   0.749445 0.602186 0.565808 0.549918
C46   C     C_R   0.105884 0.722243 0.737441 -0.027256
C47   C     C_R   0.203313 0.635505 0.771626 -0.029063
C48   C     C_R   0.209522 0.642393 0.831819 0.247361
C49   C     C_R   0.005936 0.805053 0.821018 0.085249
C50   C     C_R   0.001736 0.799012 0.762145 -0.129515
C51   C     C_R   0.265572 0.110336 0.069420 0.543877
C52   C     C_R   0.601707 0.775136 0.080491 0.552935
C53   C     C_R   0.188700 0.788062 0.069534 0.548048
C54   C     C_R   0.240556 0.117404 0.908550 0.540669
C55   C     C_R   0.574536 0.776347 0.918522 0.546883
C56   C     C_R   0.099268 0.278222 0.585376 0.567593
C57   C     C_R   0.161729 0.784013 0.908451 0.577957
C58   C     C_R   0.677611 0.756485 0.136665 -0.021726
C59   C     C_R   0.730239 0.616845 0.339332 0.015838
C60   C     C_R   0.748901 0.535792 0.245484 -0.113030
Cr1   Cr    Cr6+3 0.189770 0.415650 0.511620 1.114629
Cr2   Cr    Cr6+3 0.930400 0.667320 0.496770 1.109333
Cr3   Cr    Cr6+3 0.879870 0.417010 0.491650 1.133807
Cr4   Cr    Cr6+3 0.149500 0.973980 0.985330 1.067242
Cr5   Cr    Cr6+3 0.457000 0.976510 0.994660 1.060160
Cr6   Cr    Cr6+3 0.411170 0.724270 0.995270 1.030967
H1    H     H_    0.720078 0.578143 0.136881 0.139430
H2    H     H_    0.037167 0.744339 0.243023 0.113575
H3    H     H_    0.731072 0.782250 0.740857 0.104962
H4    H     H_    0.021178 0.158985 0.833672 0.170985
H5    H     H_    0.369601 0.234823 0.865213 0.154671
H6    H     H_    0.372270 0.258487 0.764311 0.179715
H7    H     H_    0.664235 0.928968 0.148491 0.166989
H8    H     H_    0.366393 0.477410 0.768869 0.158245
H9    H     H_    0.917159 0.855317 0.735734 0.167840
H10   H     H_    0.760503 0.463699 0.218468 0.152884
H11   H     H_    0.157810 0.081757 0.249791 0.156140
H12   H     H_    0.180891 0.314938 0.240315 0.131867
O1    O     O_R   0.196340 0.303200 0.448500 -0.508947
O2    O     O_R   0.811960 0.658090 0.547150 -0.489776
O3    O     O_R   0.757930 0.506140 0.547110 -0.463904
O4    O     O_R   0.988670 0.321620 0.556040 -0.466849
O5    O     O_3   0.000020 0.499990 0.500010 -0.301786
O6    O     O_R   0.113660 0.883270 0.047820 -0.500863
O7    O     O_R   0.186930 0.068530 0.043990 -0.496022
O8    O     O_R   0.377770 0.089040 0.054220 -0.503108
O9    O     O_R   0.562800 0.872960 0.056970 -0.500591
O10   O     O_R   0.555390 0.700940 0.062700 -0.508831
O11   O     O_R   0.295020 0.731920 0.049950 -0.486257
O12   O     O_R   0.199310 0.519670 0.454880 -0.494998
O13   O     O_R   0.094290 0.884230 0.921550 -0.463933
O14   O     O_R   0.168980 0.069410 0.926940 -0.500038
O15   O     O_R   0.358400 0.089990 0.927950 -0.510979
O16   O     O_R   0.544850 0.873850 0.939920 -0.471159
O17   O     O_R   0.536020 0.701900 0.936430 -0.550378
O18   O     O_R   0.277070 0.732810 0.932890 -0.492956
O19   O     O_3   0.339220 0.891590 0.991750 -0.261674
O20   O     O_R   0.045660 0.691380 0.441680 -0.484954
O21   O     O_R   0.811930 0.659460 0.430950 -0.466658
O22   O     O_R   0.757900 0.507620 0.421760 -0.465724
O23   O     O_R   0.988630 0.322990 0.439840 -0.457047
O24   O     O_R   0.196380 0.301720 0.573850 -0.432219
O25   O     O_R   0.199350 0.518300 0.571080 -0.456963
O26   O     O_R   0.045700 0.689900 0.567030 -0.459659
O27   O     O_3   0.579193 0.598796 0.748237 -0.575999
C61   C     C_3   0.663227 0.484473 0.753036 -0.066184
H13   H     H_    0.755432 0.473741 0.780684 0.125356
H14   H     H_    0.684256 0.448528 0.710301 0.204944
H15   H     H_    0.614997 0.435120 0.773495 0.150318
O28   O     O_3   0.877774 0.196299 0.738157 -0.553068
C62   C     C_3   0.884007 0.083954 0.739851 -0.086495
H16   H     H_    0.795314 0.082841 0.756504 0.189260
H17   H     H_    0.969813 0.029742 0.768895 0.127556
H18   H     H_    0.885724 0.048339 0.696448 0.168205
Br1   Br    Br    0.842129 0.219900 0.609224 -0.429520
O29   O     O_3   0.330156 0.210251 0.664277 -0.506182
C63   C     C_3   0.405852 0.096587 0.655558 -0.078531
H19   H     H_    0.357119 0.060309 0.620931 0.109148
H20   H     H_    0.428361 0.044543 0.695832 0.103689
H21   H     H_    0.499478 0.092868 0.642019 0.181028
O30   O     O_3   0.290230 0.552704 0.867952 -0.571410
C64   C     C_3   0.422163 0.540850 0.870529 -0.074859
H22   H     H_    0.439555 0.608207 0.846737 0.153808
H23   H     H_    0.479183 0.457132 0.854615 0.100145
H24   H     H_    0.461295 0.539887 0.916096 0.177592
Br2   Br    Br    0.855070 0.908017 0.851678 -0.567189
Br3   Br    Br    0.424237 0.425343 0.654182 -0.412115
O31   O     O_3   0.024218 0.822924 0.647495 -0.553088
C65   C     C_3   0.093786 0.891993 0.636397 -0.108079
H25   H     H_    0.175122 0.847671 0.610964 0.124661
H26   H     H_    0.130962 0.922160 0.676913 0.096254
H27   H     H_    0.026970 0.967214 0.610676 0.179597
Br4   Br    Br    0.742434 0.960093 0.266558 -0.419606
Br5   Br    Br    0.779822 0.369469 0.327391 -0.491296
Br6   Br    Br    0.625797 0.854761 0.360032 -0.388915
O32   O     O_3   0.359456 0.607733 0.249065 -0.553711
C66   C     C_3   0.437503 0.505657 0.278582 -0.068934
H28   H     H_    0.384994 0.446265 0.280137 0.121897
H29   H     H_    0.474201 0.522322 0.322461 0.166640
H30   H     H_    0.522092 0.463539 0.254977 0.183220

loop_
_geom_bond_atom_site_label_1
_geom_bond_atom_site_label_2
_ccdc_geom_bond_type
Cr2   O5    S    
C1    C21   S    
C1    O12   A    
C6    C58   A    
C35   C36   A    
C9    C51   S    
C24   C27   S    
Cr3   O23   S    
O31   C65   S    
C51   O7    A    
C10   H12   S    
C25   O27   S    
C7    C8    A    
C7    H7    S    
C23   O23   A    
C49   Br2   S    
C66   H29   S    
C2    Br5   S    
Cr3   O3    S    
C53   O6    A    
Cr6   O19   S    
Cr2   O2    S    
C36   C37   A    
C19   C21   T    
C63   H20   S    
Cr6   O10   S    
C5    C6    A    
C2    C60   A    
C61   H13   S    
C40   C49   A    
C17   C20   S    
O29   C63   S    
C18   C19   S    
C46   C47   A    
C16   C53   S    
Cr4   O6    S    
C54   O15   A    
C11   H11   S    
Cr2   O20   S    
C12   C59   S    
C62   H16   S    
C33   O29   S    
C57   O18   A    
Cr5   O8    S    
C29   C38   A    
C39   H6    S    
C18   O32   S    
C45   O2    A    
C7    C58   A    
C5    C60   A    
C4    C8    A    
C65   H27   S    
Cr5   O15   S    
C37   H4    S    
C41   C43   A    
C34   C41   S    
C55   O16   A    
C51   O8    A    
C44   C46   A    
C24   H3    S    
Cr5   O9    S    
Cr6   O11   S    
Cr2   O26   S    
C66   H30   S    
C28   C45   S    
C42   H8    S    
Cr3   O4    S    
C47   C48   A    
C52   O10   A    
C24   C25   D    
C55   O17   A    
Cr1   O5    S    
C63   H21   S    
C43   Br3   S    
C48   O30   S    
C2    C59   A    
O32   C66   S    
C25   C26   S    
C30   C56   S    
C60   H10   S    
C34   O26   A    
O28   C62   S    
Cr3   O5    S    
C35   C39   A    
C9    C14   T    
C54   O14   A    
Cr3   O22   S    
C31   C32   A    
Cr4   O19   S    
C16   C20   T    
C17   C18   D    
C62   H17   S    
O30   C64   S    
C52   C58   S    
Cr5   O16   S    
C22   C27   T    
C13   C15   T    
C53   O11   A    
C41   C44   A    
C42   C43   A    
Cr4   O14   S    
C64   H23   S    
C3    C4    A    
Cr4   O7    S    
Cr1   O12   S    
Cr6   O18   S    
C65   H25   S    
C66   H28   S    
C40   C48   A    
C38   H5    S    
C44   O31   S    
C17   H2    S    
C40   C57   S    
C57   O13   A    
C30   C33   A    
Cr1   O25   S    
C8    Br4   S    
C52   O9    A    
C45   O3    A    
C4    C5    A    
C1    O20   A    
C12   O21   A    
C56   O4    A    
C22   C55   S    
O27   C61   S    
C46   C50   A    
C26   C28   T    
C34   O25   A    
C64   H24   S    
Cr1   O24   S    
C56   O24   A    
C6    H1    S    
C50   H9    S    
C30   C32   A    
C11   C13   S    
C38   C39   A    
C61   H14   S    
Cr1   O1    S    
C15   C23   S    
C33   C35   A    
C31   O28   S    
C62   H18   S    
C3    Br6   S    
C42   C47   A    
C32   Br1   S    
C12   O22   A    
C10   C11   D    
Cr5   O19   S    
Cr2   O21   S    
C49   C50   A    
C29   C54   S    
C29   C37   A    
C31   C36   A    
Cr4   O13   S    
C23   O1    A    
C64   H22   S    
C63   H19   S    
C10   C14   S    
Cr6   O17   S    
C65   H26   S    
C61   H15   S    
C3    C59   A    
