data_mof_unit_18254.cif
_audit_creation_date              2012-12-10T18:20:37-0500
_audit_creation_method            fapswitch 2.2
_symmetry_space_group_name_H-M    P1
_symmetry_Int_Tables_number       1
_space_group_crystal_system       triclinic
_cell_length_a                    15.852494
_cell_length_b                    10.645497
_cell_length_c                    9.450503
_cell_angle_alpha                 90.059794
_cell_angle_beta                  91.660118
_cell_angle_gamma                 89.867702
_cell_volume                      1594.17051721

loop_
_atom_site_label
_atom_site_type_symbol
_atom_type_description
_atom_site_fract_x
_atom_site_fract_y
_atom_site_fract_z
_atom_type_partial_charge
C1    C     C_R   0.501326 0.259925 0.499637 0.822238
C2    C     C_R   0.498732 0.740042 0.500319 0.826365
C3    C     C_3   0.577850 0.956468 0.486399 0.262207
C4    C     C_3   0.422365 0.043345 0.512941 0.255310
C5    C     C_3   0.498294 0.876215 0.501309 -0.181516
C6    C     C_3   0.501869 0.123677 0.498309 -0.187367
C7    C     C_3   0.470073 0.962046 0.622140 0.290207
C8    C     C_3   0.530125 0.037859 0.377099 0.266103
C9    C     C_3   0.510416 0.613220 0.051689 -0.109887
C10   C     C_3   0.489585 0.386778 0.948324 -0.108428
C11   C     C_3   0.439655 0.570688 0.945944 -0.149864
C12   C     C_3   0.560318 0.429282 0.054081 -0.149181
C13   C     C_3   0.569388 0.541510 0.955520 0.396459
C14   C     C_3   0.430619 0.458457 0.044555 0.401054
C15   C     C_R   0.340149 0.499949 0.498168 0.819013
C16   C     C_R   0.659858 0.500178 0.501864 0.821368
C17   C     C_3   0.973955 0.388836 0.543380 0.189802
C18   C     C_3   0.025891 0.615510 0.463190 0.199950
C19   C     C_3   0.024485 0.414150 0.409288 -0.109349
C20   C     C_3   0.975069 0.589534 0.597329 -0.068137
C21   C     C_1   0.250698 0.500436 0.494246 -0.187326
C22   C     C_1   0.749330 0.500674 0.506253 -0.172327
C23   C     C_3   0.032812 0.475654 0.631707 0.235300
C24   C     C_3   0.967553 0.528525 0.374694 0.197528
C25   C     C_3   0.083876 0.501564 0.497926 -0.060225
C26   C     C_3   0.916311 0.502162 0.507935 -0.062809
C27   C     C_1   0.175296 0.501029 0.493869 -0.019655
C28   C     C_1   0.824761 0.501230 0.508540 -0.002085
C29   C     C_3   0.550683 0.041971 0.609602 -0.281286
C30   C     C_3   0.449443 0.957875 0.389791 -0.319176
Cu1   Cu    Cu3+1 0.500020 0.499990 0.643150 0.955629
Cu2   Cu    Cu3+1 0.499980 0.500010 0.356850 0.944682
H1    H     H_    0.591436 0.077436 0.698365 0.155920
H2    H     H_    0.408437 0.922303 0.301414 0.157828
H3    H     H_    0.388355 0.628127 0.896134 0.136522
H4    H     H_    0.611559 0.371755 0.103913 0.143087
H5    H     H_    0.519449 0.707547 0.099379 0.129993
H6    H     H_    0.480604 0.292496 0.900568 0.132722
N1    N     N_3   0.500060 0.499970 0.858290 -0.183961
N2    N     N_3   0.499940 0.500030 0.141710 -0.183630
O1    O     O_R   0.500040 0.316850 0.620870 -0.582525
O2    O     O_R   0.499960 0.683150 0.379130 -0.593669
O3    O     O_R   0.500000 0.316860 0.379090 -0.578923
O4    O     O_R   0.500000 0.683140 0.620910 -0.570870
O5    O     O_R   0.379090 0.499980 0.620870 -0.576699
O6    O     O_R   0.620910 0.500020 0.379130 -0.580780
O7    O     O_R   0.379060 0.499990 0.379090 -0.574701
O8    O     O_R   0.620940 0.500010 0.620910 -0.570603
C31   C     C_1   0.052531 0.317488 0.310040 0.260327
N3    N     N_1   0.074715 0.241270 0.231973 -0.308881
C32   C     C_1   0.943813 0.682530 0.698167 0.258638
N4    N     N_1   0.919046 0.755876 0.777400 -0.317565
N5    N     N_2   0.939267 0.268262 0.582818 -0.408237
H7    H     H_    0.894935 0.236129 0.509493 0.255330
C33   C     C_3   0.999223 0.172454 0.626968 -0.663098
H8    H     H_    0.967482 0.079520 0.627682 0.227712
H9    H     H_    0.022809 0.191371 0.736321 0.242777
H10   H     H_    0.052728 0.167359 0.553898 0.217803
N6    N     N_2   0.059134 0.736184 0.421135 -0.417017
H11   H     H_    0.103875 0.729429 0.344496 0.251065
C34   C     C_3   0.997963 0.834900 0.394055 -0.684109
H12   H     H_    0.031508 0.924864 0.377185 0.235293
H13   H     H_    0.956436 0.847414 0.485338 0.235450
H14   H     H_    0.958977 0.813637 0.297750 0.226281
N7    N     N_2   0.926683 0.556472 0.239129 -0.418734
H15   H     H_    0.880719 0.624776 0.244875 0.251139
C35   C     C_3   0.981609 0.572779 0.121246 -0.646414
H16   H     H_    0.942791 0.586379 0.022787 0.246705
H17   H     H_    0.021374 0.488310 0.106921 0.251186
H18   H     H_    0.022445 0.656283 0.137576 0.215901
N8    N     N_2   0.071070 0.444159 0.768548 -0.406681
H19   H     H_    0.104982 0.361647 0.765659 0.257005
C36   C     C_3   0.119273 0.543041 0.837936 -0.702578
H20   H     H_    0.144099 0.508954 0.942055 0.222640
H21   H     H_    0.079156 0.626213 0.857214 0.245576
H22   H     H_    0.173594 0.570799 0.773564 0.234409
N9    N     N_2   0.661554 0.903247 0.475064 -0.420123
H23   H     H_    0.665269 0.831131 0.402693 0.241257
C37   C     C_3   0.729446 0.993222 0.468152 -0.657680
H24   H     H_    0.790864 0.942783 0.470294 0.221640
H25   H     H_    0.728646 0.057736 0.560535 0.232249
H26   H     H_    0.723733 0.048569 0.368810 0.242203
N10   N     N_2   0.338653 0.095830 0.526939 -0.433210
H27   H     H_    0.326249 0.168723 0.457606 0.251240
C38   C     C_3   0.271174 0.004785 0.528965 -0.654735
H28   H     H_    0.210958 0.053241 0.551713 0.224515
H29   H     H_    0.283612 0.933549 0.612753 0.256994
H30   H     H_    0.264402 0.957246 0.424544 0.217327
N11   N     N_2   0.437422 0.917596 0.754703 -0.421368
H31   H     H_    0.475508 0.850531 0.802555 0.270251
C39   C     C_3   0.414286 0.015026 0.852905 -0.722212
H32   H     H_    0.385309 0.971845 0.946663 0.221268
H33   H     H_    0.367620 0.080306 0.803164 0.268495
H34   H     H_    0.471126 0.068200 0.888746 0.217420
N12   N     N_2   0.562212 0.083310 0.244444 -0.416212
H35   H     H_    0.524621 0.152288 0.199181 0.272140
C40   C     C_3   0.582363 0.987154 0.142779 -0.735201
H36   H     H_    0.608740 0.031519 0.047456 0.228599
H37   H     H_    0.524643 0.934416 0.110375 0.221981
H38   H     H_    0.630340 0.921570 0.187510 0.240564
N13   N     N_2   0.649039 0.584647 0.902565 -0.394703
H39   H     H_    0.683825 0.512249 0.861093 0.265657
C41   C     C_3   0.698881 0.660533 0.000276 -0.714889
H40   H     H_    0.759439 0.685778 0.951493 0.252024
H41   H     H_    0.712789 0.607839 0.099794 0.227878
H42   H     H_    0.664851 0.748809 0.024266 0.227944
N14   N     N_2   0.351099 0.415190 0.097889 -0.402440
H43   H     H_    0.315401 0.487818 0.136707 0.257084
C42   C     C_3   0.302665 0.335049 0.002693 -0.739552
H44   H     H_    0.241695 0.311086 0.050880 0.246943
H45   H     H_    0.337452 0.246281 0.984277 0.235418
H46   H     H_    0.289637 0.383577 0.900229 0.235001

loop_
_geom_bond_atom_site_label_1
_geom_bond_atom_site_label_2
_ccdc_geom_bond_type
C33   H8    S    
N13   H39   S    
C7    C29   S    
C36   H21   S    
C36   H20   S    
N12   H35   S    
C15   O7    A    
C16   O8    A    
C40   H36   S    
N9    H23   S    
C18   C25   S    
C17   C23   S    
C18   C24   S    
C17   C26   S    
C24   C26   S    
C20   C32   S    
C42   H45   S    
C11   C14   S    
C7    N11   S    
C29   H1    S    
C3    C29   S    
C34   H13   S    
C9    C13   S    
C17   C19   S    
C1    O3    A    
Cu1   Cu2   S    
C2    O4    A    
N7    C35   S    
N14   H43   S    
N11   C39   S    
C38   H29   S    
C21   C27   T    
N6    H11   S    
N13   C41   S    
C22   C28   T    
N14   C42   S    
C8    N12   S    
C4    C7    S    
C40   H37   S    
N5    C33   S    
N6    C34   S    
Cu1   O4    S    
C30   H2    S    
C35   H16   S    
C23   N8    S    
C4    C6    S    
C3    C8    S    
C10   C14   S    
C42   H46   S    
C16   O6    A    
C39   H32   S    
C5    C7    S    
C6    C8    S    
C38   H28   S    
C9    N2    S    
C32   N4    T    
C10   N1    S    
C35   H17   S    
C12   N2    S    
C34   H14   S    
C39   H33   S    
C19   C31   S    
N10   H27   S    
C20   C23   S    
C6    C29   S    
C9    H5    S    
N9    C37   S    
C41   H41   S    
C11   N1    S    
C9    C11   S    
C10   C12   S    
C24   N7    S    
C1    O1    A    
C14   N14   S    
N10   C38   S    
N7    H15   S    
Cu1   O8    S    
C33   H9    S    
Cu2   O7    S    
C2    C5    S    
C12   H4    S    
C15   O5    A    
C13   N13   S    
C3    N9    S    
C17   N5    S    
C41   H40   S    
C40   H38   S    
N8    C36   S    
C5    C30   S    
C38   H30   S    
C16   C22   S    
Cu1   O1    S    
Cu2   O6    S    
C3    C5    S    
C37   H26   S    
N12   C40   S    
N5    H7    S    
C25   C27   S    
C26   C28   S    
C10   H6    S    
C35   H18   S    
C8    C30   S    
C11   H3    S    
C19   C24   S    
N8    H19   S    
C42   H44   S    
C39   H34   S    
C4    N10   S    
C20   C26   S    
C2    O2    A    
C36   H22   S    
Cu2   O3    S    
Cu1   N1    S    
C41   H42   S    
C18   C20   S    
Cu2   N2    S    
C37   H25   S    
C34   H12   S    
C19   C25   S    
C13   N1    S    
C14   N2    S    
C37   H24   S    
C18   N6    S    
C15   C21   S    
C23   C25   S    
C12   C13   S    
C31   N3    T    
Cu1   O5    S    
C33   H10   S    
C1    C6    S    
Cu2   O2    S    
N11   H31   S    
C4    C30   S    
