data_mof_unit_23773.cif
_audit_creation_date              2012-12-10T19:08:05-0500
_audit_creation_method            fapswitch 2.2
_symmetry_space_group_name_H-M    P1
_symmetry_Int_Tables_number       1
_space_group_crystal_system       triclinic
_cell_length_a                    9.135869
_cell_length_b                    10.835042
_cell_length_c                    9.573452
_cell_angle_alpha                 90.480464
_cell_angle_beta                  90.937727
_cell_angle_gamma                 90.855009
_cell_volume                      947.384600678

loop_
_atom_site_label
_atom_site_type_symbol
_atom_type_description
_atom_site_fract_x
_atom_site_fract_y
_atom_site_fract_z
_atom_type_partial_charge
C1    C     C_R   0.496129 0.262447 0.499386 0.794118
C2    C     C_R   0.465697 0.934290 0.372246 -0.219985
C3    C     C_R   0.481744 0.870871 0.499260 -0.094584
C4    C     C_R   0.475554 0.937861 0.624066 0.129012
C5    C     C_3   0.574883 0.935932 0.749221 -0.489795
C6    C     C_3   0.571672 0.075633 0.749618 -0.465350
C7    C     C_R   0.540774 0.603523 0.076244 0.235464
C8    C     C_R   0.444562 0.402750 0.072514 -0.080613
C9    C     C_R   0.445163 0.402590 0.924048 -0.127795
C10   C     C_R   0.548033 0.601169 0.929331 0.201195
C11   C     C_3   0.699462 0.659051 0.938344 -0.263413
C12   C     C_R   0.220638 0.499817 0.499224 0.834156
C13   C     C_3   0.682034 0.670920 0.095281 -0.526564
C14   C     C_R   0.497181 0.737718 0.500181 0.790362
C15   C     C_R   0.779342 0.500106 0.500697 0.844463
C16   C     C_1   0.065390 0.499865 0.498728 -0.181840
C17   C     C_1   0.934541 0.499976 0.500770 -0.177461
C18   C     C_R   0.474067 0.064992 0.623483 0.120866
C19   C     C_R   0.479814 0.129334 0.498097 -0.093096
C20   C     C_R   0.464929 0.063085 0.371644 -0.222760
Cu1   Cu    Cu3+1 0.499990 0.499980 0.640670 0.931587
Cu2   Cu    Cu3+1 0.500010 0.500020 0.359330 0.940292
H1    H     H_    0.460318 0.110102 0.272310 0.155140
H2    H     H_    0.705111 0.750208 0.888003 0.144355
H3    H     H_    0.763223 0.619706 0.159153 0.228740
H4    H     H_    0.665721 0.767640 0.130716 0.177409
H5    H     H_    0.461081 0.885280 0.273176 0.160293
H6    H     H_    0.520355 0.894829 0.841179 0.191737
H7    H     H_    0.684584 0.899457 0.724178 0.190426
H8    H     H_    0.514347 0.114446 0.841161 0.185005
H9    H     H_    0.679542 0.119529 0.727293 0.199969
H10   H     H_    0.402276 0.322752 0.126143 0.136696
H11   H     H_    0.405409 0.321717 0.867891 0.136324
N1    N     N_R   0.500920 0.500930 0.147930 -0.178938
N2    N     N_R   0.500930 0.500890 0.852020 -0.190548
O1    O     O_R   0.500000 0.319640 0.618810 -0.587754
O2    O     O_R   0.500020 0.319680 0.381230 -0.592686
O3    O     O_R   0.288380 0.499980 0.618770 -0.596827
O4    O     O_R   0.288400 0.500020 0.381190 -0.570185
O5    O     O_R   0.499980 0.680320 0.618770 -0.585318
O6    O     O_R   0.500000 0.680360 0.381190 -0.584813
O7    O     O_R   0.711600 0.499980 0.618810 -0.562571
O8    O     O_R   0.711620 0.500020 0.381230 -0.583847
C21   C     C_R   0.827741 0.577775 0.904596 0.223917
C22   C     C_R   0.959256 0.635058 0.865220 -0.194084
C23   C     C_R   0.084326 0.565316 0.845981 -0.106054
C24   C     C_R   0.077438 0.437029 0.859318 -0.081788
C25   C     C_R   0.948704 0.379181 0.901180 -0.196352
C26   C     C_R   0.825585 0.449272 0.927593 -0.070944
H12   H     H_    0.966078 0.734273 0.853077 0.116909
H13   H     H_    0.186025 0.611299 0.820190 0.159889
H14   H     H_    0.171073 0.381678 0.837470 0.137628
H15   H     H_    0.945008 0.280180 0.915370 0.126740
H16   H     H_    0.730770 0.402455 0.967763 0.133273

loop_
_geom_bond_atom_site_label_1
_geom_bond_atom_site_label_2
_ccdc_geom_bond_type
C21   C26   A    
C7    C10   A    
C10   N2    A    
Cu1   N2    S    
C5    H6    S    
C19   C20   A    
C20   H1    S    
C1    O2    A    
C4    C18   A    
C12   O4    A    
C6    H9    S    
C15   O8    A    
C11   C21   S    
Cu1   O1    S    
C8    N1    A    
C22   C23   A    
Cu2   N1    S    
C9    H11   S    
C11   C13   S    
C13   H3    S    
C2    H5    S    
C3    C14   S    
C22   H12   S    
C14   O6    A    
C5    C6    S    
Cu2   O4    S    
C25   C26   A    
C6    H8    S    
C2    C3    A    
C5    H7    S    
C12   O3    A    
C25   H15   S    
C6    C18   S    
C7    N1    A    
C13   H4    S    
C1    C19   S    
Cu2   O6    S    
C16   C17   T    
C10   C11   S    
C2    C20   A    
C26   H16   S    
C8    H10   S    
C24   C25   A    
C12   C16   S    
C11   H2    S    
C7    C13   S    
C21   C22   A    
C15   O7    A    
C15   C17   S    
C18   C19   A    
C24   H14   S    
C9    N2    A    
C23   C24   A    
C8    C9    A    
Cu1   O7    S    
Cu1   Cu2   S    
Cu2   O2    S    
C14   O5    A    
C23   H13   S    
Cu2   O8    S    
Cu1   O3    S    
C3    C4    A    
C1    O1    A    
C4    C5    S    
Cu1   O5    S    
