data_mof_unit_54862.cif
_audit_creation_date              2012-12-11T15:16:42-0500
_audit_creation_method            fapswitch 2.2
_symmetry_space_group_name_H-M    P1
_symmetry_Int_Tables_number       1
_space_group_crystal_system       triclinic
_cell_length_a                    25.167447
_cell_length_b                    7.221488
_cell_length_c                    21.954818
_cell_angle_alpha                 90.000097
_cell_angle_beta                  109.874306
_cell_angle_gamma                 90.000114
_cell_volume                      3752.55530793

loop_
_atom_site_label
_atom_site_type_symbol
_atom_type_description
_atom_site_fract_x
_atom_site_fract_y
_atom_site_fract_z
_atom_type_partial_charge
O1    O     O_R   0.554350 0.505270 0.581390 -0.530798
O2    O     O_R   0.445650 0.005270 0.418610 -0.530799
O3    O     O_R   0.553380 0.177580 0.454800 -0.542900
O4    O     O_R   0.446620 0.677580 0.545200 -0.542899
C1    C     C_R   0.565889 0.344531 0.438283 0.677515
C2    C     C_R   0.434110 0.844531 0.561716 0.677513
O5    O     O_R   0.560970 0.175640 0.583140 -0.535012
O6    O     O_R   0.439030 0.675640 0.416860 -0.535012
O7    O     O_R   0.453290 0.004120 0.547860 -0.537446
O8    O     O_R   0.546710 0.504120 0.452140 -0.537447
C3    C     C_R   0.576043 0.344486 0.607264 0.678697
C4    C     C_R   0.423957 0.844486 0.392736 0.678695
O9    O     O_3   0.464660 0.338800 0.488280 -0.373243
O10   O     O_3   0.535340 0.838800 0.511720 -0.373243
V1    V     V_3+5 0.506560 0.064420 0.502170 1.416210
V2    V     V_3+5 0.493440 0.564420 0.497830 1.416212
C5    C     C_R   0.146427 0.820107 0.280745 -0.161400
C6    C     C_R   0.853572 0.320075 0.719258 -0.161400
H1    H     H_    0.062628 0.834797 0.213212 0.129668
H2    H     H_    0.937371 0.334770 0.786791 0.129667
H3    H     H_    0.228123 0.767534 0.392900 0.128239
H4    H     H_    0.771876 0.267480 0.607104 0.128239
H5    H     H_    0.131716 0.773577 0.319195 0.129697
H6    H     H_    0.868284 0.273531 0.680809 0.129696
C7    C     C_R   0.123211 0.929863 0.170225 -0.110229
C8    C     C_R   0.876789 0.429860 0.829775 -0.110236
C9    C     C_R   0.400545 0.875534 0.275215 -0.156501
C10   C     C_R   0.599455 0.375560 0.724784 -0.156500
C11   C     C_R   0.362695 0.886615 0.212262 -0.134315
C12   C     C_R   0.637305 0.386652 0.787737 -0.134315
C13   C     C_R   0.304742 0.887662 0.200545 -0.107936
C14   C     C_R   0.695258 0.387689 0.799455 -0.107937
C15   C     C_R   0.282784 0.883333 0.251561 0.097147
C16   C     C_R   0.717216 0.383336 0.748439 0.097146
C17   C     C_R   0.321736 0.854477 0.315699 0.059589
C18   C     C_R   0.678264 0.354468 0.684302 0.059588
C19   C     C_R   0.223099 0.891142 0.239956 0.008672
C20   C     C_R   0.776901 0.391135 0.760044 0.008680
C21   C     C_R   0.204096 0.837292 0.291268 0.089007
C22   C     C_R   0.795904 0.337266 0.708734 0.089008
C23   C     C_R   0.242796 0.803577 0.353370 -0.166035
C24   C     C_R   0.757203 0.303539 0.646633 -0.166035
C25   C     C_R   0.300639 0.818975 0.366006 -0.188533
C26   C     C_R   0.699361 0.318944 0.633996 -0.188534
C27   C     C_R   0.182290 0.956367 0.180354 0.324678
C28   C     C_R   0.817709 0.456372 0.819644 0.324678
C29   C     C_R   0.106930 0.857815 0.220409 -0.207242
C30   C     C_R   0.893070 0.357794 0.779593 -0.207236
C31   C     C_R   0.380969 0.855987 0.327321 -0.077744
C32   C     C_R   0.619031 0.355990 0.672679 -0.077747
H7    H     H_    0.445487 0.877033 0.283256 0.108518
H8    H     H_    0.554513 0.377070 0.716743 0.108518
H9    H     H_    0.277631 0.879062 0.151163 0.117244
H10   H     H_    0.722368 0.379102 0.848838 0.117252
H11   H     H_    0.378352 0.891835 0.172064 0.125051
H12   H     H_    0.621647 0.391891 0.827935 0.125052
H13   H     H_    0.328791 0.794828 0.415042 0.110970
H14   H     H_    0.671208 0.294788 0.584960 0.110973
C33   C     C_R   0.128544 0.767431 0.891353 -0.165863
C34   C     C_R   0.871470 0.267419 0.108664 -0.165850
H15   H     H_    0.120141 0.641889 0.913509 0.124054
H16   H     H_    0.879884 0.141867 0.086523 0.124056
C35   C     C_R   0.164354 0.757175 0.854610 -0.139754
C36   C     C_R   0.835660 0.257162 0.145408 -0.139750
H17   H     H_    0.182212 0.624105 0.849473 0.135814
H18   H     H_    0.817814 0.124084 0.150558 0.135808
C37   C     C_R   0.176959 0.916240 0.825074 0.020264
C38   C     C_R   0.823040 0.416239 0.174925 0.020266
C39   C     C_R   0.152772 0.085942 0.833422 -0.130465
C40   C     C_R   0.847212 0.585952 0.166559 -0.130466
H19   H     H_    0.161335 0.211393 0.811373 0.140281
H20   H     H_    0.838637 0.711412 0.188595 0.140277
C41   C     C_R   0.116701 0.096036 0.869878 -0.177746
C42   C     C_R   0.883284 0.596047 0.130105 -0.177736
H21   H     H_    0.098390 0.228757 0.874488 0.120151
H22   H     H_    0.901584 0.728777 0.125483 0.120139
C43   C     C_R   0.104159 0.937035 0.899519 -0.051885
C44   C     C_R   0.895840 0.437034 0.100481 -0.051887
N1    N     N_R   0.229979 0.060283 0.760554 -0.281063
N2    N     N_R   0.769981 0.560302 0.239398 -0.281057
N3    N     N_R   0.263734 0.050292 0.725172 -0.284096
N4    N     N_R   0.736225 0.550311 0.274779 -0.284092
C45   C     C_R   0.283795 0.884578 0.713065 0.513566
C46   C     C_R   0.716201 0.384579 0.286931 0.513554
N5    N     N_R   0.268575 0.729289 0.738071 -0.280798
N6    N     N_R   0.731459 0.229272 0.261969 -0.280792
N7    N     N_R   0.234887 0.739313 0.773548 -0.284224
N8    N     N_R   0.765148 0.239294 0.226493 -0.284216
C47   C     C_R   0.214796 0.905049 0.785610 0.511860
C48   C     C_R   0.785202 0.405048 0.214388 0.511847
C49   C     C_R   0.339779 0.701581 0.657790 -0.135628
C50   C     C_R   0.660240 0.201579 0.342233 -0.135627
H23   H     H_    0.326205 0.573728 0.673711 0.138393
H24   H     H_    0.673830 0.073724 0.326332 0.138395
C51   C     C_R   0.375765 0.691832 0.621181 -0.162141
C52   C     C_R   0.624254 0.191830 0.378842 -0.162150
H25   H     H_    0.388893 0.556715 0.610255 0.120807
H26   H     H_    0.611144 0.056710 0.389790 0.120810
C53   C     C_R   0.394855 0.854052 0.599568 -0.047630
C54   C     C_R   0.605144 0.354053 0.400431 -0.047629
C55   C     C_R   0.376508 0.026134 0.615248 -0.158245
C56   C     C_R   0.623468 0.526138 0.384723 -0.158237
H27   H     H_    0.390076 0.154317 0.599530 0.123342
H28   H     H_    0.609884 0.654324 0.400420 0.123337
C57   C     C_R   0.340408 0.035778 0.651634 -0.138112
C58   C     C_R   0.659567 0.535783 0.348335 -0.138113
H29   H     H_    0.327451 0.170889 0.662790 0.134164
H30   H     H_    0.672506 0.670896 0.337158 0.134164
C59   C     C_R   0.321681 0.873736 0.673644 0.020075
C60   C     C_R   0.678315 0.373738 0.326351 0.020078
O11   O     O_R   0.953220 0.285790 0.047790 -0.533709
O12   O     O_R   0.046780 0.785790 0.952210 -0.533707
O13   O     O_R   0.939020 0.617570 0.916840 -0.531936
O14   O     O_R   0.060980 0.117570 0.083160 -0.531933
C61   C     C_R   0.923011 0.447821 0.893215 0.694277
C62   C     C_R   0.076988 0.947822 0.106785 0.694285
O15   O     O_R   0.946600 0.615450 0.045180 -0.549592
O16   O     O_R   0.053400 0.115450 0.954820 -0.549595
O17   O     O_R   0.054370 0.786770 0.081410 -0.534520
O18   O     O_R   0.945630 0.286770 0.918590 -0.534521
C63   C     C_R   0.934642 0.446949 0.062134 0.669042
C64   C     C_R   0.065358 0.946949 0.937866 0.669044
O19   O     O_3   0.035300 0.454160 0.011680 -0.382712
O20   O     O_3   0.964700 0.954160 0.988320 -0.382718
V3    V     V_3+5 0.993450 0.728620 0.997830 1.382439
V4    V     V_3+5 0.006550 0.228620 0.002170 1.382442
O21   O     O_3   0.200387 0.096148 0.148151 -0.560067
C65   C     C_3   0.186086 0.070828 0.080480 0.116214
H31   H     H_    0.151723 0.970601 0.058660 0.031184
H32   H     H_    0.222768 0.016646 0.069078 0.105002
C66   C     C_3   0.171657 0.259592 0.047096 -0.247642
H33   H     H_    0.159530 0.241092 0.994031 0.142870
H34   H     H_    0.135542 0.321355 0.057814 0.221883
C67   C     C_3   0.221431 0.394223 0.069199 -0.726527
H35   H     H_    0.233317 0.423281 0.121835 0.256993
H36   H     H_    0.209328 0.526947 0.042481 0.189868
H37   H     H_    0.258444 0.335997 0.059117 0.220236
O22   O     O_3   0.799613 0.596167 0.851842 -0.560078
C68   C     C_3   0.813916 0.570877 0.919514 0.116186
H38   H     H_    0.848278 0.470649 0.941337 0.031191
H39   H     H_    0.777235 0.516711 0.930921 0.105019
C69   C     C_3   0.828349 0.759656 0.952887 -0.247571
H40   H     H_    0.840500 0.741181 0.005956 0.142868
H41   H     H_    0.864451 0.821429 0.942142 0.221883
C70   C     C_3   0.778568 0.894261 0.930803 -0.726619
H42   H     H_    0.766640 0.923230 0.878157 0.257020
H43   H     H_    0.790684 0.027029 0.957490 0.189888
H44   H     H_    0.741578 0.836058 0.940941 0.220220

loop_
_geom_bond_atom_site_label_1
_geom_bond_atom_site_label_2
_ccdc_geom_bond_type
C20   C22   A    
C35   H17   S    
C9    C11   A    
C41   H21   S    
O1    C3    A    
C37   C47   S    
C66   C67   S    
O2    C4    A    
C65   H31   S    
C33   C43   A    
C67   H37   S    
C70   H42   S    
O3    V1    S    
C21   C23   A    
O12   C64   A    
C57   H29   S    
C34   C44   A    
C5    H5    S    
C42   H22   S    
C6    H6    S    
C36   C38   A    
C46   N6    A    
C5    C21   A    
O14   V4    S    
C68   C69   S    
C51   C53   A    
O11   C63   A    
C50   C52   A    
C34   H16   S    
O16   C64   A    
C39   H19   S    
C44   C63   S    
O15   C63   A    
C8    C61   S    
C6    C22   A    
C43   C64   S    
C70   H43   S    
C10   C32   A    
C26   H14   S    
C52   H26   S    
C17   C31   A    
C38   C48   S    
C13   C15   A    
C39   C41   A    
C17   C25   A    
C7    C29   A    
C16   C18   A    
C8    C30   A    
C28   O22   S    
C22   C24   A    
C55   H27   S    
C11   C13   A    
C23   C25   A    
C69   C70   S    
C24   C26   A    
C2    O7    A    
C14   H10   S    
N3    C45   A    
C9    H7    S    
C4    C31   S    
N5    N7    A    
C55   C57   A    
C35   C37   A    
C33   H15   S    
N1    C47   A    
N6    N8    A    
C68   H39   S    
N2    N4    A    
C7    C62   S    
N1    N3    A    
C25   H13   S    
O19   V4    S    
C67   H36   S    
C11   H11   S    
C66   H34   S    
C12   H12   S    
C15   C19   A    
C65   H32   S    
C37   C39   A    
C36   H18   S    
O4    V2    S    
O5    C3    A    
C40   C42   A    
C49   H23   S    
O10   V1    S    
C1    C54   S    
O6    C4    A    
O11   V4    S    
C54   C56   A    
O1    V2    S    
C13   H9    S    
C56   H28   S    
O2    V1    S    
O12   V3    S    
H2    C30   S    
O18   V4    S    
H3    C23   S    
O17   V3    S    
O4    C2    A    
C45   N5    A    
N8    C48   A    
N4    C46   A    
N7    C47   A    
C69   H41   S    
C18   C26   A    
C19   C27   A    
O21   C65   S    
C65   C66   S    
C7    C27   A    
C70   H44   S    
C18   C32   A    
C58   C60   A    
C57   C59   A    
C53   C55   A    
C16   C20   A    
C5    C29   A    
O3    C1    A    
C6    C30   A    
O14   C62   A    
C68   H38   S    
C51   H25   S    
C67   H35   S    
C45   C59   S    
C33   C35   A    
C62   O17   A    
C34   C36   A    
C2    C53   S    
C49   C59   A    
C10   C12   A    
O7    V1    S    
C1    O8    A    
C19   C21   A    
C3    C32   S    
O8    V2    S    
C12   C14   A    
C10   H8    S    
C50   C60   A    
C50   H24   S    
H4    C24   S    
C58   H30   S    
C27   O21   S    
C52   C54   A    
O5    V1    S    
C15   C17   A    
C56   C58   A    
H1    C29   S    
N2    C48   A    
C46   C60   S    
C20   C28   A    
O22   C68   S    
C8    C28   A    
C49   C51   A    
C9    C31   A    
O13   V3    S    
O6    V2    S    
C61   O18   A    
C42   C44   A    
O9    V2    S    
C38   C40   A    
C41   C43   A    
C69   H40   S    
C40   H20   S    
O16   V4    S    
O15   V3    S    
C66   H33   S    
C14   C16   A    
O20   V3    S    
O13   C61   A    
