data_mof_unit_30131.cif
_audit_creation_date              2012-12-11T15:52:05-0500
_audit_creation_method            fapswitch 2.2
_symmetry_space_group_name_H-M    P1
_symmetry_Int_Tables_number       1
_space_group_crystal_system       triclinic
_cell_length_a                    8.323101
_cell_length_b                    19.247973
_cell_length_c                    19.14748
_cell_angle_alpha                 100.64125
_cell_angle_beta                  95.279677
_cell_angle_gamma                 92.298109
_cell_volume                      2996.82508109

loop_
_atom_site_label
_atom_site_type_symbol
_atom_type_description
_atom_site_fract_x
_atom_site_fract_y
_atom_site_fract_z
_atom_type_partial_charge
Ba1   Ba    Ba6+2 0.152000 0.534910 0.469330 1.757794
Ba2   Ba    Ba6+2 0.658180 0.465080 0.530610 1.748952
C1    C     C_3   0.333935 0.718986 0.202920 0.285584
C2    C     C_3   0.418260 0.717826 0.276893 0.211603
C3    C     C_3   0.418126 0.686191 0.698945 0.666225
C4    C     C_3   0.352753 0.749221 0.748556 0.271622
C5    C     C_3   0.897077 0.264797 0.674221 0.355837
C6    C     C_3   0.868267 0.192997 0.695000 -0.340479
C7    C     C_3   0.433133 0.287486 0.711691 0.361172
C8    C     C_3   0.474751 0.251149 0.774592 -0.347648
C9    C     C_R   0.939365 0.199532 0.457306 -0.151161
C10   C     C_R   0.978261 0.273338 0.472141 0.043156
C11   C     C_R   0.130051 0.188963 0.557057 -0.166801
C12   C     C_3   0.894769 0.721786 0.316771 0.372260
C13   C     C_R   0.200360 0.255372 0.553655 -0.006987
C14   C     C_R   0.675568 0.810435 0.436569 -0.168582
C15   C     C_R   0.605679 0.744059 0.440070 0.002319
C16   C     C_R   0.864914 0.801547 0.537546 -0.074120
C17   C     C_R   0.828119 0.727038 0.524613 0.085087
C18   C     C_R   0.004812 0.155466 0.504177 0.005206
C19   C     C_R   0.112742 0.300008 0.518683 -0.233695
C20   C     C_R   0.798877 0.844994 0.489248 0.069355
C21   C     C_R   0.694303 0.699931 0.476615 -0.131523
C22   C     C_R   0.229280 0.045821 0.528721 -0.173318
C23   C     C_3   0.921200 0.793362 0.295282 -0.316962
C24   C     C_R   0.331785 0.007887 0.565885 -0.096429
C25   C     C_R   0.284667 0.939398 0.569439 0.416049
C26   C     C_R   0.137369 0.909589 0.534014 -0.163506
C27   C     C_R   0.014748 0.952699 0.513614 -0.022062
C28   C     C_R   0.063220 0.025445 0.513343 0.043988
C29   C     C_R   0.850814 0.925030 0.493256 0.034731
C30   C     C_R   0.737848 0.975337 0.474253 0.065400
C31   C     C_R   0.786846 0.048945 0.477584 0.014633
C32   C     C_R   0.950572 0.075771 0.497496 0.003889
C33   C     C_R   0.571625 0.955644 0.453693 -0.066365
C34   C     C_3   0.898201 0.357248 0.300129 0.211195
C35   C     C_R   0.470516 0.998448 0.421058 -0.086547
C36   C     C_R   0.516518 0.069034 0.426811 -0.054865
C37   C     C_R   0.665640 0.094755 0.462228 -0.083870
C38   C     C_R   0.618655 0.519066 0.298186 -0.294928
C39   C     C_R   0.467868 0.485146 0.274359 0.072592
C40   C     C_R   0.413152 0.473239 0.201659 -0.159274
C41   C     C_R   0.514314 0.489104 0.151330 -0.030738
C42   C     C_R   0.668359 0.523060 0.175965 -0.016182
C43   C     C_R   0.718659 0.539193 0.249889 -0.007422
C44   C     C_R   0.359646 0.531220 0.051936 -0.008330
C45   C     C_3   0.835770 0.334505 0.220869 0.327294
C46   C     C_R   0.299606 0.526015 0.980321 0.021509
C47   C     C_R   0.333172 0.467943 0.929179 0.086143
C48   C     C_R   0.413726 0.412528 0.951437 -0.029452
C49   C     C_R   0.470252 0.415207 0.023648 0.019368
C50   C     C_R   0.449603 0.477612 0.074557 0.025528
C51   C     C_R   0.142075 0.433630 0.820193 -0.185391
C52   C     C_R   0.099521 0.428031 0.747323 0.013239
C53   C     C_R   0.356680 0.486454 0.733716 -0.060778
C54   C     C_R   0.400454 0.494270 0.809428 0.376945
C55   C     C_R   0.291909 0.465467 0.851575 -0.088088
C56   C     C_3   0.012044 0.608009 0.681689 0.376700
C57   C     C_R   0.209220 0.451009 0.704173 -0.353691
C58   C     C_3   0.047574 0.616124 0.762582 -0.360449
C59   C     C_3   0.310251 0.324752 0.376296 0.345338
C60   C     C_3   0.279767 0.244826 0.354681 -0.376873
H1    H     H_    0.478190 0.666947 0.275445 -0.048188
H2    H     H_    0.727162 0.363555 0.208834 -0.022740
H3    H     H_    0.800254 0.276938 0.209368 0.046437
H4    H     H_    0.113211 0.582587 0.655106 -0.101056
H5    H     H_    0.902580 0.572206 0.665785 0.123658
H6    H     H_    0.995880 0.664074 0.791356 0.204528
H7    H     H_    0.178383 0.619857 0.778215 0.127579
H8    H     H_    0.997801 0.568944 0.780641 0.100415
H9    H     H_    0.205727 0.348029 0.401602 -0.073417
H10   H     H_    0.417027 0.335933 0.415996 0.104507
H11   H     H_    0.261255 0.668455 0.182741 0.042175
H12   H     H_    0.167778 0.231904 0.317425 0.116334
H13   H     H_    0.266116 0.221024 0.402421 0.063947
H14   H     H_    0.383329 0.221424 0.328015 0.133260
H15   H     H_    0.509018 0.763214 0.291558 0.021182
H16   H     H_    0.333298 0.671812 0.649780 -0.061739
H17   H     H_    0.377905 0.799103 0.730126 0.125850
H18   H     H_    0.219714 0.741910 0.746106 -0.018107
H19   H     H_    0.250762 0.762915 0.206392 0.071787
H20   H     H_    0.882149 0.836203 0.336162 0.059453
H21   H     H_    0.845523 0.261844 0.617994 0.066582
H22   H     H_    0.029463 0.276595 0.679038 -0.071480
H23   H     H_    0.737274 0.177535 0.689072 0.157147
H24   H     H_    0.929272 0.151860 0.660112 0.078448
H25   H     H_    0.917501 0.195215 0.751331 0.119209
H26   H     H_    0.299609 0.283695 0.700767 -0.072873
H27   H     H_    0.476605 0.344124 0.726529 0.053297
H28   H     H_    0.400259 0.270989 0.818335 0.061219
H29   H     H_    0.604495 0.261862 0.794561 0.143027
H30   H     H_    0.966202 0.723409 0.369145 0.067680
H31   H     H_    0.448570 0.193079 0.758110 0.130253
H32   H     H_    0.856006 0.178158 0.410927 0.070249
H33   H     H_    0.181996 0.162738 0.598264 0.080591
H34   H     H_    0.627922 0.835308 0.393729 0.047045
H35   H     H_    0.945271 0.824198 0.584476 0.042507
H36   H     H_    0.156972 0.354472 0.523363 0.054000
H37   H     H_    0.652463 0.645095 0.471292 0.076350
H38   H     H_    0.283248 0.091608 0.513439 0.101405
H39   H     H_    0.452453 0.029792 0.586529 0.123798
H40   H     H_    0.764325 0.712299 0.321344 -0.132410
H41   H     H_    0.123521 0.853316 0.522806 0.114566
H42   H     H_    0.512294 0.909040 0.464985 0.111138
H43   H     H_    0.348181 0.979343 0.400132 0.084552
H44   H     H_    0.430814 0.105043 0.410016 0.083591
H45   H     H_    0.682069 0.150790 0.478125 0.126591
H46   H     H_    0.234058 0.568897 0.964193 0.123604
H47   H     H_    0.336773 0.577727 0.090025 0.124378
H48   H     H_    0.293043 0.450033 0.183942 0.162029
H49   H     H_    0.430746 0.366442 0.911657 0.051038
H50   H     H_    0.051259 0.804072 0.290470 0.133906
H51   H     H_    0.056734 0.414746 0.852919 0.117246
H52   H     H_    0.746239 0.538215 0.138358 0.136950
H53   H     H_    0.171844 0.448468 0.648057 0.062617
H54   H     H_    0.659725 0.528402 0.354591 0.062198
H55   H     H_    0.850977 0.793915 0.243263 0.174036
H56   H     H_    0.885563 0.414995 0.317284 0.034157
H57   H     H_    0.024783 0.343995 0.307837 0.077455
O1    O     O_2   0.116570 0.673370 0.549300 -0.478216
O2    O     O_3   0.335947 0.352628 0.315240 -0.592052
O3    O     O_3   0.945598 0.669036 0.264119 -0.589808
O4    O     O_2   0.693730 0.326590 0.450680 -0.443585
O5    O     O_3   0.940960 0.415230 0.456980 -0.502559
O6    O     O_3   0.457750 0.369120 0.580200 -0.487830
O7    O     O_3   0.805857 0.318513 0.338523 -0.663945
O8    O     O_3   0.373690 0.535540 0.586160 -0.474878
O9    O     O_3   0.872560 0.404620 0.618320 -0.502994
O10   O     O_2   0.772013 0.450759 0.743406 -0.406262
O11   O     O_3   0.821862 0.316345 0.719749 -0.585395
O12   O     O_3   0.869340 0.584760 0.542960 -0.477839
O13   O     O_3   0.436600 0.464450 0.413780 -0.507096
O14   O     O_2   0.628980 0.533090 0.672420 -0.377200
O15   O     O_3   0.435087 0.629245 0.734038 -0.599233
O16   O     O_2   0.510725 0.243003 0.514429 -0.507603
O17   O     O_3   0.508279 0.253946 0.652726 -0.582097
O18   O     O_3   0.352540 0.630870 0.419750 -0.449807
O19   O     O_2   0.279808 0.758844 0.461633 -0.442358
O20   O     O_3   0.986506 0.674340 0.662318 -0.592431
O21   O     O_3   0.300976 0.724635 0.325395 -0.610143
O22   O     O_2   0.181320 0.466870 0.327560 -0.446450
O23   O     O_3   0.937730 0.595370 0.381630 -0.515856
O24   O     O_2   0.054970 0.545828 0.257537 -0.413859
P1    P     P_3+3 0.945400 0.662120 0.569160 1.067484
P2    P     P_3+3 0.355390 0.445380 0.336430 1.037785
P3    P     P_3+3 0.913098 0.586435 0.287894 0.998393
P4    P     P_3+3 0.864900 0.337880 0.430780 0.964670
P5    P     P_3+3 0.892215 0.399903 0.708326 0.987766
P6    P     P_3+3 0.389640 0.717507 0.409896 1.012109
P7    P     P_3+3 0.444145 0.545450 0.678541 1.106590
P8    P     P_3+3 0.417700 0.279093 0.576061 0.931805
S1    S     S_3+6 0.983663 0.348825 0.162195 -0.124373
O25   O     O_2   0.148100 0.335920 0.194162 -0.329983
O26   O     O_2   0.948378 0.297729 0.092728 -0.318053
O27   O     O_3   0.979042 0.431856 0.146776 -0.540191
H58   H     H_    0.033228 0.431092 0.102712 0.347699
S2    S     S_3+6 0.474488 0.732424 0.141000 -0.057745
O28   O     O_2   0.383051 0.729003 0.068999 -0.229037
O29   O     O_2   0.561314 0.804121 0.164313 -0.278270
O30   O     O_3   0.609264 0.669517 0.134669 -0.500659
H59   H     H_    0.677039 0.679604 0.180969 0.320475
S3    S     S_3+6 0.610147 0.708141 0.675938 -0.029268
O31   O     O_2   0.732924 0.689518 0.730555 -0.278722
O32   O     O_2   0.618610 0.661383 0.605140 -0.383523
O33   O     O_3   0.643721 0.793447 0.671382 -0.439665
H60   H     H_    0.762187 0.802902 0.681582 0.356239
S4    S     S_3+6 0.430568 0.762418 0.840811 0.054537
O34   O     O_2   0.611405 0.760517 0.848972 -0.178251
O35   O     O_2   0.383864 0.833620 0.877430 -0.228931
O36   O     O_3   0.348604 0.699568 0.879042 -0.486214
H61   H     H_    0.374380 0.716753 0.930987 0.415154
S5    S     S_3+6 0.410548 0.891998 0.618695 -0.056186
O37   O     O_2   0.581300 0.902041 0.601588 -0.275752
O38   O     O_2   0.403240 0.920673 0.696772 -0.263503
O39   O     O_3   0.350841 0.805682 0.600013 -0.473679
H62   H     H_    0.243299 0.803120 0.617927 0.295141
S6    S     S_3+6 0.582982 0.539944 0.855884 -0.014453
O40   O     O_2   0.541556 0.593328 0.918321 -0.243158
O41   O     O_2   0.685380 0.486759 0.884235 -0.308924
O42   O     O_3   0.694633 0.583274 0.807612 -0.438882
H63   H     H_    0.762060 0.619091 0.843249 0.380387
C61   C     C_R   0.535446 0.349184 0.042017 0.035631
C62   C     C_R   0.470830 0.317862 0.094762 -0.056647
C63   C     C_R   0.507923 0.249466 0.102948 -0.059867
C64   C     C_R   0.606250 0.210443 0.056964 -0.021368
C65   C     C_R   0.669148 0.240182 0.003325 0.024327
C66   C     C_R   0.637288 0.309628 0.996871 -0.005516
H64   H     H_    0.384974 0.344433 0.127063 0.136446
H65   H     H_    0.456823 0.226060 0.143803 0.105657
H66   H     H_    0.632917 0.157072 0.062609 0.095985
H67   H     H_    0.744774 0.209842 0.967385 0.086659
H68   H     H_    0.687550 0.331595 0.954879 0.083226

loop_
_geom_bond_atom_site_label_1
_geom_bond_atom_site_label_2
_ccdc_geom_bond_type
C56   O20   S    
O24   P3    D    
C5    H21   S    
C53   C54   A    
C17   P1    S    
C12   O3    S    
C53   C57   A    
C39   C40   A    
O23   P3    S    
Ba1   P2    S    
O1    P1    D    
C62   C63   A    
C49   C61   S    
O18   P6    S    
C13   P8    S    
C64   C65   A    
C5    C6    S    
S4    O35   D    
C46   H46   S    
Ba2   O4    S    
C54   C55   A    
C37   H45   S    
C2    H1    S    
C24   C25   A    
O33   H60   S    
C11   H33   S    
O13   P2    S    
C10   P4    S    
C26   C27   A    
C33   C35   A    
C35   C36   A    
C22   C24   A    
C6    H23   S    
O8    P7    S    
C3    C4    S    
C41   C50   S    
C12   H40   S    
O36   H61   S    
C56   C58   S    
O15   P7    S    
C44   C50   A    
C47   C55   S    
C63   C64   A    
C34   C45   S    
C59   O2    S    
Ba1   Ba2   S    
O20   P1    S    
C65   H67   S    
C34   H57   S    
C61   C62   A    
C5    O11   S    
Ba1   O23   S    
O6    P8    S    
C23   H50   S    
C56   H4    S    
S2    O28   D    
O39   H62   S    
C51   H51   S    
C14   C15   A    
S6    O41   D    
C1    H19   S    
Ba2   O13   S    
C16   H35   S    
C34   H56   S    
C7    C8    S    
S5    O39   S    
O22   P2    D    
C54   S6    S    
C18   C32   S    
Ba2   O8    S    
Ba1   O13   S    
C5    H22   S    
C42   H52   S    
S2    O29   D    
C22   H38   S    
C7    H26   S    
C60   H14   S    
C3    O15   S    
O9    P5    S    
S5    O38   D    
C48   C49   A    
S4    O36   S    
S3    O32   D    
C52   C57   A    
O19   P6    D    
C38   C43   A    
O5    P4    S    
C44   C46   A    
C9    C18   A    
C14   H34   S    
Ba2   O14   S    
Ba2   O12   S    
C20   C29   S    
C28   C32   A    
O11   P5    S    
C49   C50   A    
C30   C33   A    
C64   H66   S    
C36   C37   A    
C33   H42   S    
C7    H27   S    
S4    O34   D    
C51   C55   A    
C16   C17   A    
C8    H31   S    
Ba2   P4    S    
C51   C52   A    
C10   C19   A    
C43   P3    S    
Ba1   O1    S    
C36   H44   S    
C17   C21   A    
C41   C42   A    
C7    O17   S    
C35   H43   S    
C27   C28   A    
C2    O21   S    
S3    O33   S    
C21   H37   S    
C4    H18   S    
C29   C30   A    
C15   C21   A    
S1    O27   S    
C58   H8    S    
C9    C10   A    
S6    O42   S    
C31   C32   A    
C31   C37   A    
S1    O25   D    
C12   H30   S    
C66   H68   S    
C65   C66   A    
C59   H10   S    
C46   C47   A    
O4    P4    D    
C8    H29   S    
C47   C48   A    
S2    O30   S    
C11   C13   A    
C23   H20   S    
O2    P2    S    
C60   H13   S    
C40   C41   A    
C1    C2    S    
C45   H2    S    
O17   P8    S    
Ba1   O18   S    
C42   C43   A    
C9    H32   S    
C53   P7    S    
C52   P5    S    
S3    O31   D    
O10   P5    D    
C4    S4    S    
C38   C39   A    
C14   C20   A    
C24   H39   S    
C11   C18   A    
C16   C20   A    
C15   P6    S    
C34   O7    S    
O14   P7    D    
Ba1   O8    S    
S1    O26   D    
Ba1   O12   S    
C23   H55   S    
O7    P4    S    
Ba2   O5    S    
C6    H25   S    
C3    S3    S    
C40   H48   S    
Ba1   O5    S    
C2    H15   S    
C27   C29   A    
Ba1   P1    S    
C62   H64   S    
C30   C31   A    
C19   H36   S    
C26   H41   S    
C59   H9    S    
C4    H17   S    
C38   H54   S    
C58   H7    S    
O16   P8    D    
C25   S5    S    
C48   H49   S    
C6    H24   S    
C61   C66   A    
O3    P3    S    
C12   C23   S    
C59   C60   S    
C1    H11   S    
O30   H59   S    
C22   C28   A    
Ba1   O22   S    
O12   P1    S    
S5    O37   D    
Ba2   O6    S    
C56   H5    S    
C13   C19   A    
C8    H28   S    
C39   P2    S    
C45   S1    S    
C58   H6    S    
C57   H53   S    
S6    O40   D    
C44   H47   S    
O27   H58   S    
C1    S2    S    
C63   H65   S    
C60   H12   S    
C3    H16   S    
O21   P6    S    
C45   H3    S    
O42   H63   S    
C25   C26   A    
Ba2   O9    S    
