data_mof_unit_41634.cif
_audit_creation_date              2012-12-11T15:44:48-0500
_audit_creation_method            fapswitch 2.2
_symmetry_space_group_name_H-M    P1
_symmetry_Int_Tables_number       1
_space_group_crystal_system       triclinic
_cell_length_a                    19.231956
_cell_length_b                    11.015486
_cell_length_c                    18.755494
_cell_angle_alpha                 89.995242
_cell_angle_beta                  90.461432
_cell_angle_gamma                 90.256304
_cell_volume                      3973.17045346

loop_
_atom_site_label
_atom_site_type_symbol
_atom_type_description
_atom_site_fract_x
_atom_site_fract_y
_atom_site_fract_z
_atom_type_partial_charge
C1    C     C_R   0.760789 0.534115 0.646530 0.535034
C2    C     C_R   0.240258 0.536500 0.352183 0.537707
C3    C     C_R   0.259310 0.036579 0.646941 0.531435
C4    C     C_R   0.738350 0.028791 0.355117 0.535723
C5    C     C_R   0.786507 0.989777 0.545280 -0.149170
C6    C     C_R   0.160299 0.110982 0.479400 -0.157911
C7    C     C_R   0.318050 0.557797 0.527872 -0.145799
C8    C     C_R   0.666486 0.617812 0.480735 -0.160919
C9    C     C_R   0.784809 0.977154 0.472199 -0.141641
C10   C     C_R   0.171400 0.084828 0.551884 -0.148331
C11   C     C_R   0.316939 0.562853 0.454235 -0.166912
C12   C     C_R   0.677565 0.594213 0.552921 -0.162605
C13   C     C_3   0.699919 0.276180 0.446026 -0.272283
C14   C     C_3   0.354068 0.201359 0.541351 -0.265452
C15   C     C_3   0.196522 0.797748 0.449036 -0.271311
C16   C     C_3   0.869882 0.617767 0.528717 -0.256870
C17   C     C_3   0.707064 0.296133 0.525631 -0.241159
C18   C     C_3   0.339232 0.245179 0.466039 -0.277231
C19   C     C_3   0.203109 0.805235 0.528629 -0.250294
C20   C     C_3   0.857152 0.645637 0.450474 -0.271732
C21   C     C_R   0.752982 0.088215 0.575918 0.001579
C22   C     C_R   0.211287 0.172843 0.440060 -0.009516
C23   C     C_R   0.264440 0.610249 0.567078 0.018649
C24   C     C_R   0.721545 0.652853 0.437312 0.014423
C25   C     C_R   0.028945 0.354608 0.436918 -0.031097
C26   C     C_R   0.017863 0.329643 0.585546 -0.000349
C27   C     C_R   0.492209 0.832239 0.422190 -0.033236
C28   C     C_R   0.498575 0.841850 0.572509 -0.030011
C29   C     C_R   0.971782 0.151676 0.425500 -0.086962
C30   C     C_R   0.995028 0.110293 0.569449 -0.076645
C31   C     C_R   0.486650 0.610003 0.426808 -0.109251
C32   C     C_R   0.507190 0.616779 0.573802 -0.091186
C33   C     C_R   0.957168 0.038162 0.454603 -0.130197
C34   C     C_R   0.971214 0.016102 0.526091 -0.135763
C35   C     C_R   0.490271 0.502633 0.465732 -0.159675
C36   C     C_R   0.501291 0.506027 0.538926 -0.158537
C37   C     C_R   0.006570 0.227964 0.541305 -0.003526
C38   C     C_R   0.003438 0.244739 0.467069 -0.017983
C39   C     C_R   0.499465 0.727606 0.536607 0.006901
C40   C     C_R   0.493522 0.723268 0.461160 -0.005362
C41   C     C_R   0.046448 0.436830 0.557708 -0.013450
C42   C     C_R   0.042963 0.458927 0.483209 -0.031851
C43   C     C_R   0.498753 0.950785 0.530351 -0.026494
C44   C     C_R   0.478722 0.940167 0.458183 -0.041854
C45   C     C_R   0.773977 0.127819 0.645623 0.535238
C46   C     C_R   0.207194 0.175232 0.360751 0.546316
C47   C     C_R   0.276926 0.634359 0.642411 0.543388
C48   C     C_R   0.709731 0.669542 0.361155 0.561195
C49   C     C_R   0.068721 0.528662 0.606097 0.309753
C50   C     C_R   0.047157 0.586056 0.462517 0.281804
C51   C     C_R   0.518595 0.070351 0.554222 0.275427
C52   C     C_R   0.457547 0.043926 0.419534 0.275006
C53   C     C_R   0.055426 0.648717 0.586159 -0.150745
C54   C     C_R   0.045881 0.676377 0.515426 -0.169614
C55   C     C_R   0.519441 0.166309 0.505343 -0.152891
C56   C     C_R   0.488511 0.153402 0.438609 -0.122395
C57   C     C_R   0.753780 0.079834 0.077582 0.005439
C58   C     C_R   0.250080 0.083141 0.923184 0.000198
C59   C     C_R   0.254130 0.582584 0.078007 0.005334
C60   C     C_R   0.749671 0.583882 0.923163 -0.003097
C61   C     C_R   0.809807 0.032831 0.039364 -0.016965
C62   C     C_R   0.184787 0.077487 0.956071 -0.030802
C63   C     C_R   0.312438 0.542196 0.040440 -0.025372
C64   C     C_R   0.684336 0.579641 0.956219 -0.037964
C65   C     C_R   0.815399 0.050870 0.967382 0.082258
C66   C     C_R   0.181275 0.078391 0.029501 0.102108
C67   C     C_R   0.315213 0.553184 0.967776 0.082984
C68   C     C_R   0.681195 0.578257 0.029731 0.097032
C69   C     C_R   0.710133 0.167538 0.967820 -0.165626
C70   C     C_R   0.303702 0.117018 0.040325 -0.192351
C71   C     C_R   0.207346 0.660975 0.966700 -0.165365
C72   C     C_R   0.803651 0.614934 0.040533 -0.189144
C73   C     C_R   0.706435 0.154561 0.042017 -0.165060
C74   C     C_R   0.308824 0.109643 0.966120 -0.171540
C75   C     C_R   0.204172 0.650726 0.041146 -0.162343
C76   C     C_R   0.808428 0.609308 0.966210 -0.168531
C77   C     C_3   0.832493 0.903582 0.030967 -0.217773
C78   C     C_3   0.127886 0.983559 0.951509 -0.231704
C79   C     C_3   0.345379 0.419048 0.036553 -0.228256
C80   C     C_3   0.625757 0.488963 0.951113 -0.228496
C81   C     C_3   0.844992 0.929043 0.952856 0.150996
C82   C     C_3   0.131326 0.975072 0.031941 0.156590
C83   C     C_3   0.348866 0.433833 0.956349 0.147619
C84   C     C_3   0.630750 0.475631 0.031244 0.160623
C85   C     C_R   0.762816 0.108732 0.929565 -0.011988
C86   C     C_R   0.239692 0.096356 0.072755 -0.012267
C87   C     C_R   0.261269 0.604913 0.928993 -0.009030
C88   C     C_R   0.739724 0.594670 0.073036 -0.012832
C89   C     C_R   0.973689 0.344224 0.649315 0.594080
C90   C     C_R   0.052734 0.351926 0.361776 0.554640
C91   C     C_R   0.471018 0.846933 0.646312 0.536096
C92   C     C_R   0.527548 0.844371 0.352265 0.562132
C93   C     C_R   0.013338 0.343212 0.070948 0.011273
C94   C     C_R   0.003989 0.335275 0.922123 -0.003899
C95   C     C_R   0.514135 0.843316 0.070597 0.011699
C96   C     C_R   0.504194 0.834413 0.921837 -0.002308
C97   C     C_R   0.036525 0.439659 0.029354 0.058536
C98   C     C_R   0.033901 0.435968 0.956216 0.011787
C99   C     C_R   0.538938 0.938315 0.028356 0.053481
C100  C     C_R   0.535687 0.933865 0.955196 0.017932
C101  C     C_R   0.989241 0.231136 0.963060 -0.142741
C102  C     C_R   0.992826 0.236189 0.037173 -0.113192
C103  C     C_R   0.488169 0.731455 0.963275 -0.146392
C104  C     C_R   0.492219 0.736429 0.037386 -0.116743
C105  C     C_3   0.015461 0.569230 0.033116 -0.266759
C106  C     C_3   0.016870 0.568589 0.952918 -0.289942
C107  C     C_3   0.520460 0.069544 0.030652 -0.269779
C108  C     C_3   0.520939 0.066894 0.950210 -0.283152
C109  C     C_R   0.760648 0.532191 0.852370 0.550925
C110  C     C_R   0.239639 0.531451 0.147821 0.543853
C111  C     C_R   0.260823 0.031787 0.852451 0.555347
C112  C     C_R   0.739439 0.030681 0.147651 0.548957
C113  C     C_R   0.774485 0.131158 0.854651 0.535435
C114  C     C_R   0.226840 0.126479 0.146765 0.533755
C115  C     C_R   0.273864 0.629553 0.854228 0.533843
C116  C     C_R   0.726949 0.625953 0.146941 0.552006
C117  C     C_R   0.970553 0.346580 0.853110 0.553753
C118  C     C_R   0.031074 0.347177 0.145705 0.548724
C119  C     C_R   0.470760 0.846433 0.852917 0.535071
C120  C     C_R   0.531379 0.847287 0.145499 0.540229
C121  C     C_R   0.746018 0.057634 0.429126 0.028530
C122  C     C_R   0.236314 0.110356 0.584732 0.010473
C123  C     C_R   0.257383 0.600681 0.417776 0.001338
C124  C     C_R   0.744650 0.602345 0.582330 0.008448
C125  C     C_R   0.703889 0.143189 0.460978 0.019350
C126  C     C_R   0.277905 0.195478 0.550281 0.015164
C127  C     C_R   0.206645 0.663407 0.454929 0.083304
C128  C     C_R   0.796688 0.655581 0.541427 0.000746
C129  C     C_R   0.709941 0.161456 0.533227 -0.016341
C130  C     C_R   0.263912 0.231091 0.480178 0.024138
C131  C     C_R   0.212140 0.671498 0.529410 0.016908
C132  C     C_R   0.785137 0.680219 0.470141 0.010545
Cr1   Cr    Cr6+3 0.885860 0.491680 0.749630 0.991501
Cr2   Cr    Cr6+3 0.114140 0.491680 0.250370 1.007111
Cr3   Cr    Cr6+3 0.385860 0.991680 0.749630 1.024074
Cr4   Cr    Cr6+3 0.614140 0.991680 0.250370 1.026170
Cr5   Cr    Cr6+3 0.730490 0.332970 0.748720 0.978491
Cr6   Cr    Cr6+3 0.269510 0.332970 0.251280 0.992181
Cr7   Cr    Cr6+3 0.230490 0.832970 0.748720 0.963346
Cr8   Cr    Cr6+3 0.769510 0.832970 0.251280 0.984578
Cr9   Cr    Cr6+3 0.887570 0.179310 0.750150 0.994209
Cr10  Cr    Cr6+3 0.112430 0.179310 0.249850 1.002100
Cr11  Cr    Cr6+3 0.387570 0.679310 0.750150 1.001885
Cr12  Cr    Cr6+3 0.612430 0.679310 0.249850 0.995017
H1    H     H_    0.819348 0.929961 0.576550 0.135491
H2    H     H_    0.114747 0.073475 0.453199 0.152560
H3    H     H_    0.362480 0.517162 0.553890 0.159832
H4    H     H_    0.616652 0.599520 0.457411 0.165281
H5    H     H_    0.052887 0.723337 0.623312 0.080401
H6    H     H_    0.045185 0.771618 0.501902 0.099913
H7    H     H_    0.540309 0.253175 0.520977 0.113368
H8    H     H_    0.485617 0.229205 0.402308 0.118075
H9    H     H_    0.671087 0.219510 0.940337 0.118132
H10   H     H_    0.349435 0.137270 0.072225 0.118677
H11   H     H_    0.167121 0.708958 0.938567 0.113378
H12   H     H_    0.849198 0.636015 0.072417 0.118244
H13   H     H_    0.664789 0.195662 0.071211 0.102700
H14   H     H_    0.359613 0.114246 0.943200 0.123680
H15   H     H_    0.161052 0.688924 0.069457 0.104191
H16   H     H_    0.858834 0.615625 0.943027 0.125668
H17   H     H_    0.787480 0.842546 0.039707 0.126649
H18   H     H_    0.142732 0.898221 0.925333 0.120545
H19   H     H_    0.308428 0.347611 0.053190 0.138638
H20   H     H_    0.637935 0.404389 0.922605 0.120684
H21   H     H_    0.879933 0.879123 0.061024 0.149083
H22   H     H_    0.078524 0.022674 0.930886 0.161449
H23   H     H_    0.397025 0.415434 0.062754 0.152504
H24   H     H_    0.576837 0.532425 0.932831 0.163493
H25   H     H_    0.812445 0.875107 0.914730 0.097547
H26   H     H_    0.158311 0.892796 0.052190 0.081680
H27   H     H_    0.314734 0.371609 0.924615 0.100337
H28   H     H_    0.657864 0.391271 0.047468 0.076580
H29   H     H_    0.967460 0.150607 0.938744 0.201117
H30   H     H_    0.976062 0.159745 0.067941 0.176898
H31   H     H_    0.465210 0.652209 0.939168 0.210660
H32   H     H_    0.474813 0.659960 0.068466 0.174323
H33   H     H_    0.055151 0.628271 0.057957 0.128707
H34   H     H_    0.966319 0.589280 0.928434 0.150581
H35   H     H_    0.561518 0.126868 0.054345 0.133762
H36   H     H_    0.469879 0.089342 0.926994 0.149582
H37   H     H_    0.962547 0.580340 0.055121 0.124540
H38   H     H_    0.060243 0.623571 0.931936 0.111902
H39   H     H_    0.467972 0.084877 0.053108 0.124791
H40   H     H_    0.564930 0.117854 0.926552 0.119964
H41   H     H_    0.815729 0.906005 0.449335 0.143467
H42   H     H_    0.132733 0.030673 0.578878 0.130969
H43   H     H_    0.359399 0.524482 0.425137 0.142754
H44   H     H_    0.636042 0.554838 0.583478 0.139474
H45   H     H_    0.144077 0.822521 0.428958 0.163006
H46   H     H_    0.878915 0.519715 0.539315 0.151430
H47   H     H_    0.648178 0.302973 0.424498 0.144905
H48   H     H_    0.377452 0.109605 0.543709 0.161824
H49   H     H_    0.745124 0.310722 0.415303 0.139760
H50   H     H_    0.378819 0.271454 0.575940 0.150188
H51   H     H_    0.239604 0.844230 0.420746 0.115142
H52   H     H_    0.907308 0.681040 0.554729 0.138151
H53   H     H_    0.756866 0.341042 0.540929 0.154824
H54   H     H_    0.355821 0.339189 0.458204 0.140313
H55   H     H_    0.251043 0.854037 0.545841 0.151649
H56   H     H_    0.886562 0.725934 0.431675 0.111012
H57   H     H_    0.659539 0.334542 0.549964 0.144144
H58   H     H_    0.355169 0.186010 0.422728 0.185729
H59   H     H_    0.154706 0.832356 0.555680 0.142722
H60   H     H_    0.858984 0.564132 0.415556 0.144165
H61   H     H_    0.935116 0.967285 0.421411 0.102862
H62   H     H_    0.961535 0.927133 0.548517 0.092528
H63   H     H_    0.484135 0.417237 0.438779 0.099374
H64   H     H_    0.504947 0.423364 0.569564 0.111890
H65   H     H_    0.955572 0.166275 0.370934 0.144198
H66   H     H_    0.005969 0.089351 0.624734 0.127965
H67   H     H_    0.475562 0.603333 0.370311 0.127655
H68   H     H_    0.521442 0.613407 0.629569 0.129374
O1    O     O_R   0.957020 0.451640 0.669920 -0.487619
O2    O     O_R   0.042980 0.451640 0.330080 -0.465731
O3    O     O_R   0.457020 0.951640 0.669920 -0.446599
O4    O     O_R   0.542980 0.951640 0.330080 -0.454771
O5    O     O_R   0.736470 0.210100 0.823360 -0.515753
O6    O     O_R   0.263530 0.210100 0.176640 -0.512575
O7    O     O_R   0.236470 0.710100 0.823360 -0.527876
O8    O     O_R   0.763530 0.710100 0.176640 -0.507262
O9    O     O_R   0.831960 0.093290 0.830130 -0.508607
O10   O     O_R   0.168040 0.093290 0.169870 -0.478497
O11   O     O_R   0.331960 0.593290 0.830130 -0.487548
O12   O     O_R   0.668040 0.593290 0.169870 -0.484017
O13   O     O_R   0.945600 0.250580 0.824860 -0.507221
O14   O     O_R   0.054400 0.250580 0.175140 -0.478870
O15   O     O_R   0.445600 0.750580 0.824860 -0.505480
O16   O     O_R   0.554400 0.750580 0.175140 -0.491849
O17   O     O_3   0.834640 0.334650 0.749500 -0.243037
O18   O     O_3   0.165360 0.334650 0.250500 -0.281068
O19   O     O_3   0.334640 0.834650 0.749500 -0.246178
O20   O     O_3   0.665360 0.834650 0.250500 -0.272153
O21   O     O_R   0.821450 0.543440 0.674610 -0.504804
O22   O     O_R   0.178550 0.543440 0.325390 -0.462131
O23   O     O_R   0.321450 0.043440 0.674610 -0.490508
O24   O     O_R   0.678550 0.043440 0.325390 -0.498657
O25   O     O_R   0.715320 0.458650 0.668100 -0.536201
O26   O     O_R   0.284680 0.458650 0.331900 -0.542485
O27   O     O_R   0.215320 0.958650 0.668100 -0.541047
O28   O     O_R   0.784680 0.958650 0.331900 -0.543908
O29   O     O_R   0.737170 0.209590 0.674530 -0.525478
O30   O     O_R   0.262830 0.209590 0.325470 -0.501977
O31   O     O_R   0.237170 0.709590 0.674530 -0.536616
O32   O     O_R   0.762830 0.709590 0.325470 -0.505573
O33   O     O_R   0.832710 0.092740 0.669580 -0.526172
O34   O     O_R   0.167290 0.092740 0.330420 -0.541100
O35   O     O_R   0.332710 0.592740 0.669580 -0.528477
O36   O     O_R   0.667290 0.592740 0.330420 -0.530413
O37   O     O_R   0.946290 0.250060 0.676040 -0.518896
O38   O     O_R   0.053710 0.250060 0.323960 -0.538642
O39   O     O_R   0.446290 0.750060 0.676040 -0.522752
O40   O     O_R   0.553710 0.750060 0.323960 -0.545583
O41   O     O_R   0.956270 0.452200 0.830470 -0.540437
O42   O     O_R   0.043730 0.452200 0.169530 -0.532522
O43   O     O_R   0.456270 0.952200 0.830470 -0.535245
O44   O     O_R   0.543730 0.952200 0.169530 -0.516372
O45   O     O_R   0.820760 0.543950 0.823440 -0.515570
O46   O     O_R   0.179240 0.543950 0.176560 -0.513463
O47   O     O_R   0.320760 0.043950 0.823440 -0.511149
O48   O     O_R   0.679240 0.043950 0.176560 -0.506551
O49   O     O_R   0.714570 0.459210 0.828640 -0.525172
O50   O     O_R   0.285430 0.459210 0.171360 -0.526964
O51   O     O_R   0.214570 0.959210 0.828640 -0.525354
O52   O     O_R   0.785430 0.959210 0.171360 -0.525908
O53   O     O_3   0.916667 0.941900 0.937720 -0.564000
C133  C     C_3   0.941295 0.850081 0.891869 -0.019733
H69   H     H_    0.905101 0.772480 0.883677 0.107688
H70   H     H_    0.989667 0.813398 0.915939 0.129894
C134  C     C_3   0.959746 0.903827 0.819598 -0.342340
H71   H     H_    0.991467 0.987557 0.826525 0.158839
H72   H     H_    0.990112 0.837130 0.788450 0.053333
H73   H     H_    0.911762 0.925303 0.789077 0.170908
O54   O     O_3   0.069253 0.007870 0.066377 -0.528755
C135  C     C_3   0.035699 0.903427 0.093506 -0.008033
H74   H     H_    0.072480 0.839118 0.119705 0.099733
H75   H     H_    0.007628 0.855690 0.049672 0.146896
C136  C     C_3   0.984253 0.940623 0.150646 -0.351212
H76   H     H_    0.944865 0.004259 0.129745 0.150040
H77   H     H_    0.956214 0.858915 0.169991 0.080378
H78   H     H_    0.012290 0.985413 0.195526 0.162724
O55   O     O_3   0.417259 0.452569 0.931565 -0.556465
C137  C     C_3   0.444255 0.348609 0.897812 -0.013685
H79   H     H_    0.405899 0.274796 0.887981 0.109916
H80   H     H_    0.486783 0.312383 0.931850 0.135350
C138  C     C_3   0.474255 0.384412 0.825917 -0.346479
H81   H     H_    0.513180 0.458281 0.832395 0.142175
H82   H     H_    0.499815 0.304759 0.801239 0.085318
H83   H     H_    0.432004 0.416210 0.789889 0.169805
O56   O     O_3   0.569353 0.506229 0.068004 -0.532337
C139  C     C_3   0.546435 0.407023 0.109964 -0.000026
H84   H     H_    0.589914 0.355613 0.135285 0.114186
H85   H     H_    0.515322 0.343941 0.076109 0.119945
C140  C     C_3   0.501918 0.452522 0.171230 -0.346244
H86   H     H_    0.458683 0.509892 0.151644 0.138838
H87   H     H_    0.479657 0.373952 0.200468 0.082772
H88   H     H_    0.534287 0.506595 0.208905 0.178384
O57   O     O_3   0.065751 0.625383 0.395422 -0.511482
C141  C     C_3   0.013988 0.699561 0.364272 0.006990
H89   H     H_    0.998477 0.776215 0.398769 0.085252
H90   H     H_    0.967380 0.644282 0.350247 0.144995
C142  C     C_3   0.042422 0.755301 0.296550 -0.341303
H91   H     H_    0.048239 0.685126 0.254576 0.167633
H92   H     H_    0.005528 0.825305 0.278151 0.060330
H93   H     H_    0.093553 0.799308 0.307027 0.150458
O58   O     O_3   0.087543 0.491606 0.675176 -0.563185
C143  C     C_3   0.119121 0.579827 0.719525 0.011221
H94   H     H_    0.125303 0.670244 0.696410 0.149294
H95   H     H_    0.171111 0.545423 0.735412 0.174707
C144  C     C_3   0.077498 0.596882 0.786424 -0.364428
H96   H     H_    0.080731 0.512848 0.818650 0.170011
H97   H     H_    0.099571 0.673430 0.817842 0.085139
H98   H     H_    0.022882 0.619040 0.772336 0.176310
O59   O     O_3   0.422873 0.037377 0.353901 -0.546798
C145  C     C_3   0.362843 0.962007 0.356611 -0.010229
H99   H     H_    0.321730 0.004602 0.389047 0.133410
H100  H     H_    0.372485 0.870664 0.379086 0.112729
C146  C     C_3   0.335146 0.943032 0.281243 -0.337180
H101  H     H_    0.373431 0.891085 0.249531 0.139273
H102  H     H_    0.285387 0.891526 0.282729 0.101461
H103  H     H_    0.326141 0.031812 0.255033 0.196608
O60   O     O_3   0.529947 0.100976 0.624698 -0.546069
C147  C     C_3   0.598257 0.075390 0.645514 -0.010138
H104  H     H_    0.626810 0.160367 0.637256 0.177314
H105  H     H_    0.622115 0.998523 0.615750 0.114623
C148  C     C_3   0.601252 0.046427 0.724978 -0.328292
H106  H     H_    0.575311 0.958420 0.735994 0.155571
H107  H     H_    0.656252 0.039121 0.742728 0.110198
H108  H     H_    0.575690 0.119255 0.756081 0.151567

loop_
_geom_bond_atom_site_label_1
_geom_bond_atom_site_label_2
_ccdc_geom_bond_type
C147  H105  S    
C139  C140  S    
Cr9   O37   S    
C47   O35   A    
C2    C123  S    
C90   O38   A    
C137  H79   S    
Cr11  O39   S    
C6    H2    S    
C94   C117  S    
C95   C99   A    
C147  C148  S    
C29   C33   A    
Cr8   O28   S    
C137  H80   S    
C135  H74   S    
C91   O3    A    
C3    O23   A    
Cr8   O8    S    
C1    O21   A    
Cr10  O34   S    
C83   H27   S    
C70   C74   A    
C9    C121  A    
C17   H53   S    
C81   H25   S    
C7    H3    S    
C80   C84   S    
C97   C105  S    
C92   O40   A    
C14   H50   S    
C15   C127  S    
C22   C130  A    
Cr9   O13   S    
C20   C132  S    
C41   C49   A    
C52   O59   S    
C108  H40   S    
C23   C47   S    
Cr1   O41   S    
C53   H5    S    
C30   C34   A    
C145  H99   S    
C142  H91   S    
Cr7   O27   S    
C60   C76   A    
Cr8   O32   S    
C25   C42   A    
C146  H103  S    
C43   C44   A    
C37   C38   A    
C66   C82   S    
C78   C82   S    
C16   C20   S    
C19   H59   S    
C143  H94   S    
Cr4   O48   S    
C17   H57   S    
C113  O9    A    
C112  O52   A    
C105  H33   S    
C134  H72   S    
C18   C130  S    
C141  H89   S    
C90   O2    A    
C75   H15   S    
C142  H93   S    
C107  H35   S    
Cr3   O23   S    
Cr11  O15   S    
C10   C122  A    
C14   C126  S    
C57   C61   A    
C59   C63   A    
C98   C106  S    
C60   C64   A    
C1    C124  S    
C138  H82   S    
C49   C53   A    
C51   C55   A    
Cr5   O25   S    
C127  C131  A    
C61   C65   A    
C5    C21   A    
C48   O36   A    
O60   C147  S    
Cr5   O5    S    
C126  C130  A    
Cr7   O19   S    
C79   H23   S    
C145  H100  S    
C80   H24   S    
Cr9   O9    S    
C79   C83   S    
C122  C126  A    
C72   H12   S    
Cr7   O51   S    
C101  H29   S    
C97   C98   A    
C104  H32   S    
C53   C54   A    
C118  O14   A    
C121  C125  A    
C33   H61   S    
C25   C90   S    
C64   C68   A    
C110  O46   A    
Cr10  O18   S    
C77   H21   S    
C73   H13   S    
C36   H64   S    
C57   C73   A    
C148  H107  S    
C20   H56   S    
C60   C109  S    
C117  O41   A    
C27   C44   A    
C61   C77   S    
C29   C38   A    
Cr9   O33   S    
C107  C108  S    
C116  O8    A    
Cr7   O31   S    
C14   H48   S    
C44   C52   A    
C15   H45   S    
C136  H76   S    
C81   O53   S    
C4    O24   A    
C114  O6    A    
O54   C135  S    
C21   C45   S    
C144  H97   S    
C100  C108  S    
C5    H1    S    
C62   C66   A    
C24   C48   S    
Cr6   O18   S    
C46   O34   A    
C39   C40   A    
C1    O25   A    
C5    C9    A    
C140  H86   S    
C125  C129  A    
C25   C38   A    
C123  C127  A    
C27   C40   A    
C8    C12   A    
O56   C139  S    
Cr2   O22   S    
C23   C131  A    
C21   C129  A    
C133  H70   S    
C42   C50   A    
C96   C103  A    
C93   C97   A    
C69   C85   A    
C58   C74   A    
C87   C115  S    
C62   C78   S    
C84   H28   S    
C133  C134  S    
C66   C86   A    
C29   H65   S    
C19   H55   S    
C13   C17   S    
C85   C113  S    
Cr5   O29   S    
C112  O48   A    
C7    C23   A    
C96   C100  A    
C10   H42   S    
C28   C91   S    
C135  H75   S    
Cr2   O18   S    
Cr7   O7    S    
C137  C138  S    
Cr8   O52   S    
C136  H78   S    
Cr3   O19   S    
C105  H37   S    
C106  H34   S    
Cr5   O49   S    
C58   C62   A    
C55   C56   A    
C101  C102  A    
C59   C75   A    
C135  C136  S    
C41   C42   A    
C96   C119  S    
C35   C36   A    
C48   O32   A    
C91   O39   A    
C15   C19   S    
C50   C54   A    
C89   O37   A    
C115  O11   A    
C140  H88   S    
C49   O58   S    
C94   C98   A    
Cr9   O17   S    
C6    C22   A    
C31   C40   A    
C139  H84   S    
C32   C39   A    
C146  H102  S    
C80   H20   S    
C2    O22   A    
Cr6   O50   S    
C18   H54   S    
C143  H95   S    
C69   C73   A    
C56   H8    S    
C120  O16   A    
C124  C128  A    
C15   H51   S    
C145  C146  S    
Cr1   O45   S    
C147  H104  S    
C13   H49   S    
C134  H71   S    
C64   C80   S    
C8    H4    S    
C141  H90   S    
C111  O47   A    
Cr10  O14   S    
C142  H92   S    
C77   H17   S    
C78   H22   S    
C143  C144  S    
C74   H14   S    
C58   C111  S    
C68   C84   S    
C82   O54   S    
C20   H60   S    
C54   H6    S    
C45   O33   A    
C28   C39   A    
C69   H9    S    
C30   C37   A    
C141  C142  S    
C116  O12   A    
C138  H81   S    
C16   H52   S    
C24   C132  A    
C65   C81   S    
C77   C81   S    
C71   H11   S    
C103  H31   S    
C4    O28   A    
C18   H58   S    
Cr1   O21   S    
C114  O10   A    
C16   H46   S    
C71   C87   A    
Cr5   O17   S    
C22   C46   S    
Cr8   O20   S    
C31   C35   A    
C46   O30   A    
C109  O49   A    
C32   C36   A    
C89   O1    A    
Cr3   O47   S    
Cr12  O20   S    
C11   C123  A    
C119  O43   A    
C93   C102  A    
C6    C10   A    
C26   C37   A    
C95   C120  S    
C50   O57   S    
C99   C107  S    
C105  C106  S    
C28   C43   A    
Cr2   O2    S    
Cr1   O1    S    
C47   O31   A    
C43   C51   A    
O59   C145  S    
Cr11  O35   S    
C4    C121  S    
C92   O4    A    
C148  H106  S    
Cr1   O17   S    
O58   C143  S    
C134  H73   S    
C103  C104  A    
Cr3   O43   S    
C13   C125  S    
C3    O27   A    
C82   H26   S    
Cr10  O38   S    
O57   C141  S    
C14   C18   S    
C72   C76   A    
C119  O15   A    
C63   C79   S    
C144  H96   S    
C34   H62   S    
C26   C89   S    
C7    C11   A    
Cr4   O20   S    
C117  O13   A    
C11   H43   S    
C138  H83   S    
C9    H41   S    
Cr11  O11   S    
C32   H68   S    
C57   C112  S    
C12   H44   S    
Cr4   O24   S    
C59   C110  S    
C108  H36   S    
C106  H38   S    
C118  O42   A    
C8    C24   A    
Cr3   O3    S    
C84   O56   S    
C94   C101  A    
O53   C133  S    
Cr6   O30   S    
C3    C122  S    
Cr2   O46   S    
Cr12  O40   S    
C115  O7    A    
C128  C132  A    
C113  O5    A    
C72   C88   A    
C19   C131  S    
C63   C67   A    
Cr12  O12   S    
C17   C129  S    
Cr2   O42   S    
C2    O26   A    
O55   C137  S    
C107  H39   S    
C88   C116  S    
C148  H108  S    
C120  O44   A    
C83   O55   S    
C99   C100  A    
C12   C124  A    
C33   C34   A    
C27   C92   S    
C67   C83   S    
C16   C128  S    
C111  O51   A    
C78   H18   S    
C136  H77   S    
C68   C88   A    
C93   C118  S    
C70   C86   A    
Cr12  O36   S    
C45   O29   A    
C95   C104  A    
C51   O60   S    
C144  H98   S    
C35   H63   S    
C55   H7    S    
C76   H16   S    
C70   H10   S    
Cr4   O44   S    
C79   H19   S    
C30   H66   S    
C65   C85   A    
C102  H30   S    
C67   C87   A    
C13   H47   S    
C86   C114  S    
Cr11  O19   S    
C140  H87   S    
C71   C75   A    
Cr6   O26   S    
C139  H85   S    
C109  O45   A    
C146  H101  S    
C110  O50   A    
C133  H69   S    
C31   H67   S    
Cr6   O6    S    
Cr12  O16   S    
Cr10  O10   S    
C52   C56   A    
C26   C41   A    
Cr4   O4    S    
