data_mof_unit_31107.cif
_audit_creation_date              2012-12-10T18:06:49-0500
_audit_creation_method            fapswitch 2.2
_symmetry_space_group_name_H-M    P1
_symmetry_Int_Tables_number       1
_space_group_crystal_system       triclinic
_cell_length_a                    12.580793
_cell_length_b                    13.162364
_cell_length_c                    15.490278
_cell_angle_alpha                 82.50582
_cell_angle_beta                  99.293037
_cell_angle_gamma                 96.454429
_cell_volume                      2498.8297891

loop_
_atom_site_label
_atom_site_type_symbol
_atom_type_description
_atom_site_fract_x
_atom_site_fract_y
_atom_site_fract_z
_atom_type_partial_charge
C1    C     C_R   0.443245 0.308412 0.509371 0.863083
C2    C     C_R   0.647402 0.407875 0.943074 0.145439
C3    C     C_R   0.542618 0.433469 0.905004 0.096802
C4    C     C_R   0.434173 0.512924 0.335600 0.886430
C5    C     C_R   0.727289 0.407171 0.890168 -0.230194
C6    C     C_R   0.705463 0.431669 0.798819 -0.001486
C7    C     C_R   0.523215 0.463953 0.814680 -0.254714
C8    C     C_R   0.726339 0.929538 0.548432 -0.179482
C9    C     C_R   0.593793 0.799263 0.490750 -0.052511
C10   C     C_R   0.303220 0.179948 0.452317 -0.217351
C11   C     C_R   0.284810 0.095874 0.404711 -0.177094
C12   C     C_R   0.422129 0.456587 0.103620 0.098562
C13   C     C_R   0.367498 0.032703 0.405713 -0.025241
C14   C     C_R   0.463158 0.042465 0.469633 -0.007747
C15   C     C_R   0.479504 0.126804 0.519896 0.019571
C16   C     C_R   0.556617 0.691338 0.490421 0.865904
C17   C     C_R   0.542549 0.971299 0.487178 0.093715
C18   C     C_R   0.645225 0.996980 0.536498 0.135615
C19   C     C_R   0.659754 0.081006 0.584292 -0.252824
C20   C     C_R   0.573249 0.137957 0.583820 -0.002362
C21   C     C_R   0.516899 0.869745 0.469562 -0.174439
C22   C     C_R   0.700876 0.830694 0.524160 -0.191898
C23   C     C_R   0.314310 0.472874 0.066690 0.145716
C24   C     C_R   0.404277 0.200857 0.502401 -0.103776
C25   C     C_R   0.138198 0.644094 0.618649 -0.287944
C26   C     C_R   0.757418 0.379129 0.397735 0.027078
C27   C     C_R   0.852902 0.353902 0.375787 -0.231578
C28   C     C_R   0.565234 0.484768 0.664587 0.859949
C29   C     C_R   0.950762 0.400452 0.414016 -0.179268
C30   C     C_R   0.952856 0.472944 0.474461 0.000296
C31   C     C_R   0.853379 0.495948 0.494298 0.264297
C32   C     C_R   0.048957 0.522742 0.516346 -0.018102
C33   C     C_R   0.043803 0.595089 0.576044 0.180617
C34   C     C_R   0.493752 0.427988 0.051290 0.075455
C35   C     C_R   0.944613 0.616987 0.593302 -0.280741
C36   C     C_R   0.850772 0.566965 0.553634 -0.177026
C37   C     C_R   0.150907 0.503320 0.502004 -0.013859
C38   C     C_R   0.236660 0.620849 0.601822 0.021176
C39   C     C_R   0.389807 0.508779 0.241792 -0.141305
C40   C     C_R   0.601197 0.461526 0.760200 -0.136417
C41   C     C_R   0.244440 0.504595 0.117600 -0.236493
C42   C     C_R   0.281377 0.525235 0.204424 -0.026214
C43   C     C_R   0.458204 0.477307 0.189915 -0.259887
C44   C     C_2   0.356316 0.970566 0.330731 0.882363
C45   C     C_R   0.462257 0.434912 0.959120 0.072970
C46   C     C_1   0.575007 0.194328 0.658026 0.223868
C47   C     C_2   0.794659 0.423205 0.749204 0.906880
C48   C     C_2   0.205641 0.568820 0.250443 0.918750
C49   C     C_R   0.352155 0.444713 0.924504 -0.224032
C50   C     C_R   0.278957 0.461593 0.978173 -0.208402
C51   C     C_R   0.596653 0.395358 0.087607 -0.215707
C52   C     C_R   0.671784 0.384403 0.033905 -0.201392
H1    H     H_    0.195728 0.470944 0.949271 0.161354
H2    H     H_    0.447214 0.492930 0.785903 0.166851
H3    H     H_    0.939511 0.671433 0.638999 0.168968
H4    H     H_    0.135753 0.699219 0.664361 0.152022
H5    H     H_    0.163700 0.450643 0.457899 0.124144
H6    H     H_    0.680664 0.343475 0.368492 0.137898
H7    H     H_    0.022590 0.378171 0.394840 0.156705
H8    H     H_    0.851146 0.298610 0.329483 0.159804
H9    H     H_    0.777367 0.584292 0.571835 0.203498
H10   H     H_    0.750644 0.361212 0.063880 0.155453
H11   H     H_    0.162205 0.518051 0.088168 0.169782
H12   H     H_    0.806966 0.385892 0.920227 0.160449
H13   H     H_    0.542064 0.472801 0.217004 0.170415
H14   H     H_    0.320130 0.438139 0.856289 0.152685
H15   H     H_    0.620573 0.376146 0.157436 0.144955
H16   H     H_    0.257341 0.884606 0.246648 0.369775
H17   H     H_    0.952892 0.458111 0.739603 0.344994
H18   H     H_    0.054071 0.562679 0.279022 0.346349
H19   H     H_    0.761542 0.776330 0.540174 0.150196
H20   H     H_    0.733422 0.093969 0.630287 0.165258
H21   H     H_    0.806164 0.949839 0.583388 0.143535
H22   H     H_    0.434114 0.841659 0.447779 0.161256
H23   H     H_    0.243954 0.235857 0.440183 0.159964
H24   H     H_    0.210455 0.087963 0.358799 0.184332
H25   H     H_    0.311268 0.657678 0.633704 0.135059
N1    N     N_R   0.239390 0.551900 0.544730 -0.101206
N2    N     N_R   0.759950 0.448600 0.455730 -0.123122
N3    N     N_1   0.575053 0.237316 0.718502 -0.193054
O1    O     O_R   0.374950 0.371210 0.521360 -0.621773
O2    O     O_R   0.254800 0.924173 0.298110 -0.784867
O3    O     O_2   0.782611 0.365293 0.692071 -0.607180
O4    O     O_R   0.896252 0.474582 0.774083 -0.823177
O5    O     O_2   0.235088 0.645289 0.288377 -0.598280
O6    O     O_R   0.098487 0.525563 0.246161 -0.825816
O7    O     O_R   0.542050 0.338030 0.492790 -0.598013
O8    O     O_R   0.368720 0.526070 0.390200 -0.584736
O9    O     O_R   0.535820 0.492890 0.361630 -0.624878
O10   O     O_R   0.457950 0.661970 0.507210 -0.604451
O11   O     O_R   0.625050 0.628790 0.478640 -0.637616
O12   O     O_R   0.464180 0.507110 0.638370 -0.620954
O13   O     O_R   0.631280 0.473930 0.609800 -0.600261
O14   O     O_2   0.434967 0.962651 0.295664 -0.609531
Zn1   Zn    Zn3+2 0.388420 0.522150 0.519080 0.970729
Zn2   Zn    Zn3+2 0.611580 0.477850 0.480920 0.967437

loop_
_geom_bond_atom_site_label_1
_geom_bond_atom_site_label_2
_ccdc_geom_bond_type
C1    O7    A    
C30   C32   A    
C16   O10   A    
C27   C29   A    
C41   C42   A    
C19   C20   A    
C25   H4    S    
C51   H15   S    
O10   Zn1   S    
C12   C23   A    
C34   C51   A    
C9    C16   S    
C12   C43   A    
C3    C7    A    
C27   H8    S    
C30   C31   A    
O1    Zn1   S    
C9    C22   A    
C28   C40   S    
C1    O1    A    
C18   C19   A    
O11   Zn2   S    
C29   H7    S    
C8    C22   A    
C7    C40   A    
C47   O3    D    
O8    Zn1   S    
C13   C14   A    
C14   C17   A    
C19   H20   S    
C39   C42   A    
C15   C20   A    
C50   H1    S    
C49   H14   S    
C35   H3    S    
C51   C52   A    
C6    C47   S    
C23   C50   A    
C39   C43   A    
C38   N1    A    
C10   C24   A    
C32   C37   A    
C21   H22   S    
C3    C45   A    
O12   Zn1   S    
C8    C18   A    
C5    H12   S    
C28   O13   A    
C35   C36   A    
C29   C30   A    
C25   C38   A    
C10   H23   S    
C4    C39   S    
C45   C49   A    
N1    Zn1   S    
C43   H13   S    
O7    Zn2   S    
C17   C18   A    
C26   C27   A    
C28   O12   A    
C34   C45   A    
C42   C48   S    
C47   O4    S    
C26   H6    S    
C2    C52   A    
C16   O11   A    
C15   C24   A    
O13   Zn2   S    
C6    C40   A    
C2    C5    A    
C41   H11   S    
C12   C34   A    
C36   H9    S    
H18   O6    S    
C22   H19   S    
C4    O9    A    
C31   C36   A    
C48   O5    D    
C31   N2    A    
C4    O8    A    
C38   H25   S    
C37   N1    A    
C44   O2    S    
C26   N2    A    
C23   C41   A    
C11   H24   S    
H16   O2    S    
C32   C33   A    
O9    Zn2   S    
C2    C3    A    
N2    Zn2   S    
H17   O4    S    
C52   H10   S    
C46   N3    T    
C11   C13   A    
C9    C21   A    
C5    C6    A    
C8    H21   S    
C33   C35   A    
C48   O6    S    
C20   C46   S    
C44   O14   D    
C10   C11   A    
C1    C24   S    
C49   C50   A    
C14   C15   A    
C7    H2    S    
C13   C44   S    
C37   H5    S    
C25   C33   A    
C17   C21   A    
