data_mof_unit_17153.cif
_audit_creation_date              2012-12-10T16:48:43-0500
_audit_creation_method            fapswitch 2.2
_symmetry_space_group_name_H-M    P1
_symmetry_Int_Tables_number       1
_space_group_crystal_system       triclinic
_cell_length_a                    17.1219
_cell_length_b                    8.685547
_cell_length_c                    7.524818
_cell_angle_alpha                 103.253381
_cell_angle_beta                  91.011986
_cell_angle_gamma                 94.180869
_cell_volume                      1085.65410525

loop_
_atom_site_label
_atom_site_type_symbol
_atom_type_description
_atom_site_fract_x
_atom_site_fract_y
_atom_site_fract_z
_atom_type_partial_charge
C1    C     C_R   0.497420 0.199833 0.453449 0.873517
C2    C     C_R   0.502543 0.800165 0.546558 0.872508
C3    C     C_2   0.495767 0.031443 0.427953 -0.322889
C4    C     C_2   0.504128 0.968546 0.572068 -0.324171
C5    C     C_R   0.351354 0.508138 0.525380 0.808302
C6    C     C_R   0.648851 0.493894 0.474759 0.806761
C7    C     C_R   0.268377 0.535446 0.541058 -0.078311
C8    C     C_R   0.732950 0.477589 0.458699 -0.085873
C9    C     C_R   0.225042 0.498858 0.684174 -0.160066
C10   C     C_R   0.774578 0.430302 0.596778 -0.146897
C11   C     C_R   0.145167 0.520313 0.690227 -0.167434
C12   C     C_R   0.854641 0.416725 0.585011 -0.200339
C13   C     C_R   0.108876 0.580896 0.555291 0.108527
C14   C     C_R   0.894335 0.453968 0.437903 0.105178
C15   C     C_R   0.153143 0.626855 0.418363 0.269330
C16   C     C_R   0.852870 0.496633 0.296038 0.301299
C17   C     C_R   0.232347 0.602336 0.410837 -0.209737
C18   C     C_R   0.772120 0.506994 0.306315 -0.206205
C19   C     C_2   0.023637 0.581033 0.548519 0.113609
C20   C     C_2   0.979744 0.456582 0.441289 0.110230
Cu1   Cu    Cu3+1 0.508700 0.517250 0.683000 1.075822
Cu2   Cu    Cu3+1 0.491300 0.482750 0.317000 1.075027
H1    H     H_    0.252190 0.449227 0.787135 0.195523
H2    H     H_    0.745297 0.403697 0.713912 0.186932
H3    H     H_    0.740599 0.541830 0.197815 0.207294
H4    H     H_    0.265780 0.635877 0.302792 0.189532
H5    H     H_    0.886262 0.381003 0.692848 0.197364
H6    H     H_    0.111099 0.485145 0.796397 0.192723
H7    H     H_    0.487512 0.958972 0.289559 0.206033
H8    H     H_    0.512368 0.041017 0.710466 0.205310
N1    N     N_2   0.478180 0.456750 0.041980 0.057106
N2    N     N_2   0.521820 0.543250 0.958020 0.056489
O1    O     O_R   0.505650 0.286040 0.618880 -0.561021
O2    O     O_R   0.494350 0.713960 0.381120 -0.560863
O3    O     O_R   0.490960 0.256910 0.309800 -0.562209
O4    O     O_R   0.509040 0.743090 0.690200 -0.562354
O5    O     O_R   0.394600 0.516230 0.672450 -0.558037
O6    O     O_R   0.605400 0.483770 0.327550 -0.561634
O7    O     O_R   0.379910 0.487100 0.363380 -0.569852
O8    O     O_R   0.620090 0.512900 0.636620 -0.570071
N3    N     N_3   0.014394 0.322106 0.332322 -0.526528
H9    H     H_    0.048164 0.271889 0.418036 0.233338
H10   H     H_    0.051095 0.360758 0.239125 0.262030
N4    N     N_3   0.989281 0.716838 0.655235 -0.515323
H11   H     H_    0.952783 0.680192 0.749961 0.264084
H12   H     H_    0.955357 0.765361 0.568138 0.254484
Br1   Br    Br    0.107658 0.719502 0.236648 -0.464478
Br2   Br    Br    0.904467 0.548152 0.091102 -0.521150
Br3   Br    Br    0.400262 0.304304 0.917987 -0.396566
Br4   Br    Br    0.599351 0.696529 0.082087 -0.396339

loop_
_geom_bond_atom_site_label_1
_geom_bond_atom_site_label_2
_ccdc_geom_bond_type
C7    C17   A    
C2    C4    S    
C6    O6    A    
C15   C17   A    
C5    O5    A    
C8    C18   A    
N3    H10   S    
N3    H9    S    
C19   C20   D    
C15   Br1   S    
C16   Br2   S    
C5    O7    A    
C20   N3    S    
C1    O1    A    
Cu1   O4    S    
Cu1   Cu2   S    
N4    H11   S    
Cu2   O3    S    
C9    C11   A    
N2    Br4   S    
C18   H3    S    
C10   C12   A    
C11   H6    S    
N1    Br3   S    
C17   H4    S    
C8    C10   A    
C12   C14   A    
C14   C16   A    
C13   C15   A    
Cu2   O2    S    
Cu1   N2    S    
C6    O8    A    
Cu1   O1    S    
Cu2   N1    S    
Cu2   O7    S    
C12   H5    S    
C3    C4    D    
Cu2   O6    S    
C14   C20   S    
C11   C13   A    
C3    H7    S    
Cu1   O5    S    
C19   N4    S    
C1    O3    A    
C7    C9    A    
C2    O4    A    
C5    C7    S    
C13   C19   S    
C9    H1    S    
C6    C8    S    
C10   H2    S    
C2    O2    A    
C16   C18   A    
C4    H8    S    
N1    N2    D    
N4    H12   S    
C1    C3    S    
Cu1   O8    S    
