data_mof_unit_51592.cif
_audit_creation_date              2012-12-10T17:14:07-0500
_audit_creation_method            fapswitch 2.2
_symmetry_space_group_name_H-M    P1
_symmetry_Int_Tables_number       1
_space_group_crystal_system       triclinic
_cell_length_a                    15.86117
_cell_length_b                    12.926146
_cell_length_c                    11.792626
_cell_angle_alpha                 99.340786
_cell_angle_beta                  92.987569
_cell_angle_gamma                 92.539784
_cell_volume                      2379.04891786

loop_
_atom_site_label
_atom_site_type_symbol
_atom_type_description
_atom_site_fract_x
_atom_site_fract_y
_atom_site_fract_z
_atom_type_partial_charge
C1    C     C_R   0.499496 0.299604 0.479098 0.783687
C2    C     C_3   0.952963 0.463755 0.607324 -0.378030
C3    C     C_3   0.917250 0.504022 0.498670 0.332766
C4    C     C_3   0.955516 0.616627 0.499557 -0.376963
C5    C     C_3   0.053363 0.616704 0.502214 -0.377410
C6    C     C_1   0.824983 0.503412 0.497515 -0.123374
C7    C     C_1   0.175224 0.503350 0.502698 -0.117844
C8    C     C_1   0.250795 0.502096 0.502597 -0.184073
C9    C     C_R   0.487274 0.812371 0.532194 -0.080116
C10   C     C_R   0.503347 0.186791 0.468338 -0.029931
C11   C     C_R   0.560865 0.025145 0.380905 -0.208076
C12   C     C_R   0.340389 0.500296 0.500866 0.806194
C13   C     C_R   0.551382 0.131996 0.384430 -0.200942
C14   C     C_R   0.462323 0.134445 0.546261 -0.263598
C15   C     C_R   0.469507 0.026911 0.541267 0.140243
C16   C     C_R   0.520558 0.972451 0.459532 0.171265
C17   C     C_R   0.530302 0.866155 0.457273 -0.289336
C18   C     C_R   0.430983 0.864257 0.609479 0.065614
C19   C     C_R   0.425409 0.973197 0.615595 -0.220982
C20   C     C_R   0.420898 0.396525 0.028431 -0.347201
C21   C     C_R   0.428918 0.407628 0.148207 0.085804
C22   C     C_R   0.534870 0.543324 0.155487 0.044319
C23   C     C_R   0.497520 0.700082 0.521034 0.800363
C24   C     C_R   0.528815 0.534879 0.033995 0.030983
C25   C     C_R   0.469910 0.462240 0.968420 0.065471
C26   C     C_R   0.461355 0.457767 0.845753 0.226321
C27   C     C_R   0.574401 0.588497 0.856942 0.167338
C28   C     C_R   0.580441 0.597512 0.977717 -0.379048
C29   C     C_R   0.659629 0.500734 0.499207 0.841200
C30   C     C_3   0.050575 0.462741 0.608268 -0.383629
C31   C     C_3   0.042975 0.432380 0.391780 -0.377276
C32   C     C_3   0.945227 0.431792 0.390647 -0.376422
C33   C     C_1   0.749332 0.502166 0.497622 -0.174880
C34   C     C_3   0.082966 0.503919 0.501361 0.334475
Cu1   Cu    Cu3+1 0.506190 0.507730 0.615930 0.924867
Cu2   Cu    Cu3+1 0.493810 0.492270 0.384070 0.933914
H1    H     H_    0.926045 0.383068 0.609131 0.160631
H2    H     H_    0.078856 0.512366 0.688400 0.162695
H3    H     H_    0.934377 0.514948 0.686316 0.154138
H4    H     H_    0.931344 0.647009 0.421658 0.160243
H5    H     H_    0.571048 0.824557 0.396239 0.143136
H6    H     H_    0.599654 0.983898 0.317185 0.132500
H7    H     H_    0.385548 0.016801 0.675782 0.128068
H8    H     H_    0.583664 0.172528 0.324310 0.148784
H9    H     H_    0.424333 0.177379 0.609923 0.125391
H10   H     H_    0.070092 0.381141 0.608411 0.164005
H11   H     H_    0.375531 0.336274 0.985796 0.149545
H12   H     H_    0.626664 0.653373 0.027842 0.145400
H13   H     H_    0.390419 0.357469 0.192267 0.126734
H14   H     H_    0.579797 0.599845 0.206752 0.113213
H15   H     H_    0.064786 0.460793 0.313487 0.161546
H16   H     H_    0.063578 0.350818 0.388790 0.158701
H17   H     H_    0.918998 0.350110 0.388338 0.160159
H18   H     H_    0.920070 0.458910 0.311236 0.160516
H19   H     H_    0.080701 0.669540 0.580750 0.160218
H20   H     H_    0.076225 0.648357 0.426345 0.161713
H21   H     H_    0.936051 0.670544 0.575974 0.153961
N1    N     N_R   0.515490 0.519350 0.790130 -0.207309
N2    N     N_R   0.484510 0.480650 0.209890 -0.180383
O1    O     O_R   0.504390 0.354460 0.582000 -0.602597
O2    O     O_R   0.493940 0.341410 0.386200 -0.586740
O3    O     O_R   0.384660 0.506540 0.597940 -0.599543
O4    O     O_R   0.374210 0.493480 0.402140 -0.575011
O5    O     O_R   0.506060 0.658590 0.613800 -0.588472
O6    O     O_R   0.495610 0.645540 0.418000 -0.581017
O7    O     O_R   0.625790 0.506520 0.597860 -0.568825
O8    O     O_R   0.615340 0.493460 0.402060 -0.582699
C35   C     C_3   0.374904 0.801230 0.678115 -0.364212
C36   C     C_3   0.300851 0.858485 0.734006 -0.377545
C37   C     C_3   0.243691 0.783466 0.787178 -0.862003
H22   H     H_    0.216515 0.718524 0.719986 0.249787
H23   H     H_    0.280046 0.749861 0.854325 0.254883
H24   H     H_    0.191017 0.826654 0.827539 0.239941
H25   H     H_    0.325418 0.923235 0.803254 0.215221
H26   H     H_    0.262546 0.891486 0.668111 0.222002
H27   H     H_    0.347330 0.730944 0.618472 0.197523
H28   H     H_    0.414426 0.773799 0.746535 0.205685
C38   C     C_3   0.389615 0.385539 0.781383 -0.357376
C39   C     C_3   0.302385 0.429721 0.805176 -0.358395
C40   C     C_3   0.231226 0.350349 0.752910 -0.892208
H29   H     H_    0.233232 0.334078 0.657696 0.256433
H30   H     H_    0.236902 0.275832 0.787519 0.250715
H31   H     H_    0.169485 0.382411 0.775701 0.240721
H32   H     H_    0.294177 0.450299 0.898776 0.216235
H33   H     H_    0.295970 0.503086 0.768585 0.241533
H34   H     H_    0.393633 0.368250 0.689029 0.249102
H35   H     H_    0.393392 0.306098 0.804913 0.148257
C41   C     C_R   0.634405 0.656751 0.807570 0.174979
C42   C     C_R   0.716865 0.625427 0.788385 -0.130703
C43   C     C_R   0.776242 0.693187 0.750273 -0.154912
C44   C     C_R   0.754465 0.793543 0.734004 -0.130000
C45   C     C_R   0.673961 0.827261 0.758800 -0.150025
C46   C     C_R   0.614824 0.760017 0.798150 -0.129954
H36   H     H_    0.734788 0.548248 0.801912 0.123228
H37   H     H_    0.839236 0.668074 0.734028 0.120787
H38   H     H_    0.800421 0.845769 0.704146 0.122750
H39   H     H_    0.657678 0.905869 0.748851 0.136616
H40   H     H_    0.553843 0.788302 0.821054 0.116545

loop_
_geom_bond_atom_site_label_1
_geom_bond_atom_site_label_2
_ccdc_geom_bond_type
C38   H35   S    
C5    H20   S    
Cu1   Cu2   S    
C31   H16   S    
C3    C6    S    
C21   H13   S    
Cu2   O8    S    
C7    C8    T    
C15   C19   A    
C26   C38   S    
Cu1   N1    S    
C21   N2    A    
C39   H32   S    
C20   C25   A    
C18   C35   S    
C15   C16   A    
C29   C33   S    
C30   H2    S    
C11   H6    S    
C18   C19   A    
C42   H36   S    
C44   H38   S    
C29   O8    A    
C2    H3    S    
C4    H4    S    
C16   C17   A    
C4    H21   S    
C3    C32   S    
C35   C36   S    
Cu1   O5    S    
Cu2   O4    S    
C44   C45   A    
C22   H14   S    
Cu2   N2    S    
C27   C41   S    
C40   H31   S    
C5    H19   S    
C32   H18   S    
C19   H7    S    
C45   H39   S    
C14   H9    S    
C30   C34   S    
C43   H37   S    
C24   C25   A    
C40   H30   S    
C10   C14   A    
C1    O1    A    
C22   N2    A    
C12   O4    A    
Cu2   O6    S    
C9    C23   S    
Cu1   O7    S    
C25   C26   A    
C10   C13   A    
C39   C40   S    
Cu1   O1    S    
C12   O3    A    
C11   C16   A    
C31   C32   S    
C8    C12   S    
C5    C34   S    
C37   H24   S    
C31   C34   S    
C36   H25   S    
C20   C21   A    
C26   N1    A    
C37   H22   S    
C9    C17   A    
C23   O5    A    
C7    C34   S    
C22   C24   A    
Cu2   O2    S    
C32   H17   S    
C39   H33   S    
C35   H28   S    
C41   C46   A    
C28   H12   S    
C38   C39   S    
C30   H10   S    
C1    C10   S    
C24   C28   A    
C31   H15   S    
C40   H29   S    
C27   N1    A    
C1    O2    A    
C35   H27   S    
C6    C33   T    
C2    C30   S    
C23   O6    A    
C2    C3    S    
C11   C13   A    
C2    H1    S    
C38   H34   S    
C43   C44   A    
C45   C46   A    
C36   H26   S    
Cu1   O3    S    
C36   C37   S    
C17   H5    S    
C20   H11   S    
C29   O7    A    
C9    C18   A    
C4    C5    S    
C41   C42   A    
C27   C28   A    
C14   C15   A    
C37   H23   S    
C42   C43   A    
C46   H40   S    
C13   H8    S    
C3    C4    S    
