data_mof_unit_31066.cif
_audit_creation_date              2012-10-26T19:45:33-0400
_audit_creation_method            fapswitch 2.2
_symmetry_space_group_name_H-M    P1
_symmetry_Int_Tables_number       1
_space_group_crystal_system       triclinic
_cell_length_a                    10.830732
_cell_length_b                    9.515071
_cell_length_c                    10.752743
_cell_angle_alpha                 90.328255
_cell_angle_beta                  90.10621
_cell_angle_gamma                 89.999826
_cell_volume                      1108.10581813

loop_
_atom_site_label
_atom_site_type_symbol
_atom_type_description
_atom_site_fract_x
_atom_site_fract_y
_atom_site_fract_z
_atom_type_partial_charge
C1    C     C_R   0.262067 0.500004 0.500169 0.545281
C2    C     C_R   0.414856 0.925140 0.432258 0.010306
C3    C     C_R   0.585804 0.926032 0.566919 0.025167
C4    C     C_R   0.585437 0.074855 0.567477 0.017555
C5    C     C_R   0.499756 0.499431 0.259901 0.543520
C6    C     C_R   0.737928 0.500006 0.500413 0.559302
C7    C     C_R   0.501144 0.500327 0.740298 0.551361
C8    C     C_3   0.391322 0.585277 0.071930 -0.242115
C9    C     C_3   0.492261 0.346377 0.070492 -0.239857
C10   C     C_3   0.388541 0.580104 0.928706 -0.247058
C11   C     C_3   0.496341 0.347425 0.928144 -0.242506
C12   C     C_3   0.625042 0.573252 0.931437 -0.009692
C13   C     C_3   0.624525 0.563458 0.076242 -0.224802
C14   C     C_3   0.501690 0.498540 0.122339 0.021926
C15   C     C_3   0.504116 0.501198 0.878751 0.023244
C16   C     C_1   0.632540 0.723133 0.896160 0.198509
C17   C     C_1   0.736886 0.504238 0.881166 0.172391
C18   C     C_R   0.063845 0.372296 0.500939 -0.135012
C19   C     C_R   0.063845 0.627739 0.501083 -0.137441
C20   C     C_R   0.936122 0.372299 0.501145 -0.123595
C21   C     C_R   0.936119 0.627740 0.501302 -0.130467
C22   C     C_R   0.871760 0.500017 0.501017 0.033098
C23   C     C_R   0.128213 0.500014 0.500707 0.018266
C24   C     C_R   0.414985 0.073991 0.432093 0.009590
Cu1   Cu    Cu3+1 0.500020 0.640660 0.500000 0.942724
Cu2   Cu    Cu3+1 0.500020 0.359340 0.500000 0.934677
H1    H     H_    0.399168 0.696622 0.103304 0.135583
H2    H     H_    0.576876 0.284608 0.895668 0.149496
H3    H     H_    0.637807 0.668778 0.120300 0.130867
H4    H     H_    0.702633 0.497849 0.110625 0.111094
H5    H     H_    0.111887 0.272439 0.500812 0.125751
H6    H     H_    0.111890 0.727593 0.501069 0.126036
H7    H     H_    0.888078 0.272446 0.501215 0.127156
H8    H     H_    0.888071 0.727594 0.501490 0.126159
H9    H     H_    0.347051 0.129721 0.377422 0.104385
H10   H     H_    0.346789 0.868713 0.377746 0.104567
H11   H     H_    0.569827 0.281029 0.106063 0.142030
H12   H     H_    0.655032 0.870285 0.619719 0.138755
H13   H     H_    0.653728 0.131245 0.621738 0.121457
H14   H     H_    0.302949 0.543200 0.109083 0.116339
H15   H     H_    0.404534 0.296886 0.101720 0.128357
H16   H     H_    0.303054 0.525582 0.896941 0.122010
H17   H     H_    0.411889 0.294585 0.891540 0.137529
H18   H     H_    0.384043 0.688968 0.891802 0.146943
N1    N     N_R   0.500030 0.852070 0.500030 -0.228666
N2    N     N_R   0.500030 0.147930 0.500030 -0.228320
N3    N     N_1   0.638356 0.840682 0.869749 -0.338436
N4    N     N_1   0.824271 0.450188 0.841638 -0.312526
O1    O     O_R   0.319660 0.618740 0.499990 -0.512602
O2    O     O_R   0.319660 0.381260 0.499990 -0.511684
O3    O     O_R   0.499990 0.618790 0.317690 -0.509329
O4    O     O_R   0.499990 0.381210 0.317690 -0.508768
O5    O     O_R   0.680370 0.618830 0.500010 -0.513058
O6    O     O_R   0.680370 0.381170 0.500010 -0.509516
O7    O     O_R   0.500030 0.618780 0.682310 -0.490874
O8    O     O_R   0.500030 0.381220 0.682310 -0.505106

loop_
_geom_bond_atom_site_label_1
_geom_bond_atom_site_label_2
_ccdc_geom_bond_type
C12   C17   S    
Cu1   N1    S    
C19   C23   A    
C9    C14   S    
Cu1   O3    S    
C5    O4    A    
C11   H17   S    
C21   H8    S    
Cu2   O4    S    
C10   H16   S    
C1    O2    A    
C4    H13   S    
C9    H15   S    
C12   C15   S    
C7    O7    A    
C17   N4    T    
C24   N2    A    
C9    H11   S    
C4    N2    A    
C21   C22   A    
C9    C11   S    
C5    C14   S    
C11   C15   S    
C7    O8    A    
C6    O6    A    
C19   H6    S    
C11   H2    S    
C16   N3    T    
C13   H3    S    
C19   C21   A    
Cu1   O5    S    
C1    C23   S    
C18   C20   A    
C10   C15   S    
Cu2   O2    S    
C2    N1    A    
C2    C24   A    
Cu2   O6    S    
Cu1   O1    S    
C24   H9    S    
Cu2   N2    S    
C6    O5    A    
C10   H18   S    
C18   C23   A    
C6    C22   S    
C12   C16   S    
C13   H4    S    
C12   C13   S    
C8    C10   S    
C2    H10   S    
C8    H1    S    
C5    O3    A    
C8    C14   S    
C18   H5    S    
C8    H14   S    
C7    C15   S    
Cu1   Cu2   S    
C13   C14   S    
C1    O1    A    
C3    N1    A    
C3    C4    A    
Cu1   O7    S    
C3    H12   S    
C20   C22   A    
C20   H7    S    
Cu2   O8    S    
