data_mof_unit_5687.cif
_audit_creation_date              2012-12-10T17:00:01-0500
_audit_creation_method            fapswitch 2.2
_symmetry_space_group_name_H-M    P1
_symmetry_Int_Tables_number       1
_space_group_crystal_system       triclinic
_cell_length_a                    14.997765
_cell_length_b                    15.217505
_cell_length_c                    10.197575
_cell_angle_alpha                 86.013393
_cell_angle_beta                  89.84094
_cell_angle_gamma                 90.269567
_cell_volume                      2321.70947785

loop_
_atom_site_label
_atom_site_type_symbol
_atom_type_description
_atom_site_fract_x
_atom_site_fract_y
_atom_site_fract_z
_atom_type_partial_charge
C1    C     C_R   0.387801 0.875073 0.503822 0.828929
C2    C     C_2   0.758248 0.175554 0.416713 0.385074
C3    C     C_2   0.180053 0.246847 0.415645 0.366833
C4    C     C_2   0.258095 0.675762 0.416143 0.396289
C5    C     C_2   0.662591 0.794056 0.518777 0.248111
C6    C     C_2   0.682059 0.190586 0.482740 0.286417
C7    C     C_2   0.163932 0.295104 0.519149 0.240913
C8    C     C_2   0.182083 0.690617 0.482742 0.281791
C9    C     C_2   0.239292 0.171027 0.443688 0.410420
C10   C     C_2   0.326715 0.744797 0.406835 0.433903
C11   C     C_2   0.739120 0.670863 0.442474 0.412799
C12   C     C_R   0.384089 0.120150 0.496207 0.858094
C13   C     C_2   0.826761 0.244667 0.407190 0.435349
C14   C     C_2   0.322056 0.190179 0.481836 0.194415
C15   C     C_2   0.343666 0.788954 0.514938 0.168248
C16   C     C_2   0.821580 0.689966 0.482143 0.194667
C17   C     C_2   0.843538 0.289038 0.515120 0.169565
C18   C     C_2   0.571621 0.000836 0.927033 0.444263
C19   C     C_2   0.070768 0.507786 0.925641 0.468513
C20   C     C_2   0.568936 0.982128 0.075013 0.577744
C21   C     C_2   0.069234 0.484675 0.073652 0.473762
C22   C     C_3   0.694682 0.730415 0.188327 -0.277576
C23   C     C_R   0.887736 0.375117 0.503843 0.820827
C24   C     C_3   0.770588 0.087684 0.244524 -0.174369
C25   C     C_3   0.193523 0.229275 0.189505 -0.272907
C26   C     C_3   0.269599 0.588836 0.242692 -0.218117
C27   C     C_3   0.732331 0.811553 0.719970 -0.195747
C28   C     C_3   0.613636 0.279517 0.629157 -0.250208
C29   C     C_3   0.235709 0.316192 0.717655 -0.173755
C30   C     C_3   0.113998 0.779142 0.630104 -0.248974
C31   C     C_3   0.123741 0.069254 0.458524 -0.328554
C32   C     C_3   0.448724 0.739219 0.275721 -0.229384
C33   C     C_3   0.623950 0.568651 0.454221 -0.329346
C34   C     C_R   0.883918 0.620072 0.496253 0.849019
C35   C     C_3   0.948899 0.239288 0.276297 -0.221724
C36   C     C_3   0.352189 0.994269 0.854912 -0.032198
C37   C     C_3   0.852766 0.490109 0.858137 -0.058770
C38   C     C_3   0.353967 0.015564 0.137156 -0.037418
C39   C     C_3   0.853662 0.514067 0.138890 -0.032406
C40   C     C_R   0.617363 0.120178 0.496234 0.854225
C41   C     C_R   0.614466 0.877026 0.503977 0.847170
C42   C     C_R   0.117369 0.620190 0.496231 0.855722
C43   C     C_R   0.114813 0.377349 0.504001 0.842989
C44   C     C_2   0.679731 0.746656 0.414660 0.365556
H1    H     H_    0.673452 0.660277 0.192917 0.171893
H2    H     H_    0.282033 0.520332 0.217374 0.222762
H3    H     H_    0.318843 0.630764 0.186699 0.172248
H4    H     H_    0.201596 0.607791 0.208770 0.181675
H5    H     H_    0.690263 0.837741 0.797865 0.176757
H6    H     H_    0.765324 0.867291 0.661527 0.184524
H7    H     H_    0.785690 0.771549 0.769596 0.172421
H8    H     H_    0.649711 0.242499 0.710533 0.216300
H9    H     H_    0.544468 0.254380 0.622063 0.147880
H10   H     H_    0.609609 0.349182 0.654138 0.176684
H11   H     H_    0.193491 0.344910 0.793232 0.185922
H12   H     H_    0.768540 0.736474 0.193051 0.184412
H13   H     H_    0.269242 0.370191 0.656224 0.190053
H14   H     H_    0.288666 0.277247 0.770128 0.163255
H15   H     H_    0.150069 0.741753 0.711129 0.217460
H16   H     H_    0.044748 0.754241 0.622936 0.144575
H17   H     H_    0.110203 0.848700 0.655669 0.176502
H18   H     H_    0.080137 0.101254 0.381812 0.163821
H19   H     H_    0.106915 0.091939 0.557047 0.185784
H20   H     H_    0.110335 0.997379 0.461768 0.222732
H21   H     H_    0.449916 0.666210 0.277575 0.147153
H22   H     H_    0.490939 0.760796 0.356797 0.165421
H23   H     H_    0.673403 0.760524 0.091350 0.181313
H24   H     H_    0.478636 0.765744 0.181430 0.222121
H25   H     H_    0.580646 0.601013 0.377446 0.163325
H26   H     H_    0.606449 0.590528 0.552975 0.187034
H27   H     H_    0.610859 0.496761 0.456146 0.222953
H28   H     H_    0.950403 0.166296 0.278044 0.144893
H29   H     H_    0.990871 0.260921 0.357600 0.164153
H30   H     H_    0.978872 0.266004 0.182153 0.225959
H31   H     H_    0.415437 0.276635 0.505063 0.323547
H32   H     H_    0.331690 0.789969 0.706907 0.363831
H33   H     H_    0.914179 0.776464 0.509517 0.323300
H34   H     H_    0.783714 0.019127 0.220075 0.221513
H35   H     H_    0.831052 0.290465 0.706983 0.364974
H36   H     H_    0.654294 0.001710 0.781679 0.373478
H37   H     H_    0.191603 0.552437 0.934034 0.300638
H38   H     H_    0.334816 0.981908 0.754482 0.193033
H39   H     H_    0.353698 0.066670 0.864796 0.154877
H40   H     H_    0.294428 0.965270 0.910572 0.083786
H41   H     H_    0.836077 0.479865 0.756860 0.193827
H42   H     H_    0.851997 0.562269 0.870046 0.152341
H43   H     H_    0.796006 0.458360 0.913006 0.093077
H44   H     H_    0.685889 0.928054 0.070817 0.329672
H45   H     H_    0.819620 0.129776 0.188390 0.173220
H46   H     H_    0.183287 0.426358 0.063974 0.299794
H47   H     H_    0.339026 0.020968 0.240226 0.216794
H48   H     H_    0.348475 0.944367 0.119864 0.182981
H49   H     H_    0.299403 0.052566 0.085629 0.081235
H50   H     H_    0.837850 0.520919 0.241366 0.217141
H51   H     H_    0.849659 0.442486 0.123498 0.185347
H52   H     H_    0.798546 0.549307 0.086017 0.078609
H53   H     H_    0.702543 0.105947 0.210008 0.189979
H54   H     H_    0.172529 0.159051 0.195195 0.170470
H55   H     H_    0.267390 0.235616 0.193228 0.183007
H56   H     H_    0.171603 0.258818 0.092513 0.183538
N1    N     N_2   0.501330 0.000000 0.852150 0.044015
N2    N     N_2   0.001330 0.500000 0.852150 0.088476
N3    N     N_2   0.501360 1.000000 0.147810 0.063653
N4    N     N_2   0.001360 0.500000 0.147810 0.086275
O1    O     O_R   0.409520 0.909540 0.613040 -0.627349
O2    O     O_R   0.590440 0.909540 0.613100 -0.635490
O3    O     O_R   0.090440 0.590460 0.613100 -0.575008
O4    O     O_R   0.090440 0.409540 0.613100 -0.591598
O5    O     O_R   0.590480 0.090460 0.386960 -0.608748
O6    O     O_R   0.590480 0.909540 0.386960 -0.519541
O7    O     O_R   0.090480 0.590460 0.386960 -0.615640
O8    O     O_R   0.090480 0.409540 0.386960 -0.519981
O9    O     O_3   0.653055 0.775887 0.287684 -0.608457
O10   O     O_3   0.779605 0.091588 0.381777 -0.651759
O11   O     O_3   0.152312 0.275139 0.288790 -0.606540
O12   O     O_R   0.409520 0.090460 0.613040 -0.652218
O13   O     O_3   0.279141 0.591992 0.380003 -0.639611
O14   O     O_3   0.680170 0.755868 0.644872 -0.651577
O15   O     O_3   0.659054 0.276688 0.508143 -0.650286
O16   O     O_3   0.183770 0.258529 0.645461 -0.655186
O17   O     O_3   0.159252 0.776632 0.508914 -0.651691
O18   O     O_3   0.214446 0.083919 0.427148 -0.666017
O19   O     O_3   0.360755 0.770938 0.283733 -0.650350
O20   O     O_3   0.714761 0.583876 0.424144 -0.666462
O21   O     O_3   0.860792 0.270673 0.284040 -0.650890
O22   O     O_3   0.350917 0.276643 0.484728 -0.811960
O23   O     O_R   0.909520 0.409540 0.613040 -0.632446
O24   O     O_3   0.321282 0.748949 0.637353 -0.790282
O25   O     O_3   0.849881 0.776416 0.487741 -0.812716
O26   O     O_3   0.820975 0.249242 0.637602 -0.788668
O27   O     O_3   0.654663 0.018917 0.873023 -0.837801
O28   O     O_3   0.148669 0.537668 0.865141 -0.788226
O29   O     O_3   0.431345 0.952693 0.902614 -0.567288
O30   O     O_3   0.933377 0.450615 0.904356 -0.567567
O31   O     O_3   0.642264 0.944831 0.137633 -0.756471
O32   O     O_3   0.142397 0.444945 0.133207 -0.762795
O33   O     O_3   0.436994 0.051697 0.092652 -0.582263
O34   O     O_R   0.909520 0.590460 0.613040 -0.656262
O35   O     O_3   0.936165 0.551435 0.094256 -0.585031
O36   O     O_R   0.409560 0.909540 0.386900 -0.600758
O37   O     O_R   0.409560 0.090460 0.386900 -0.616263
O38   O     O_R   0.909560 0.409540 0.386900 -0.601390
O39   O     O_R   0.909560 0.590460 0.386900 -0.617117
O40   O     O_R   0.590440 0.090460 0.613100 -0.640511
Zn1   Zn    Zn3+2 0.499970 1.000000 0.650990 0.971528
Zn2   Zn    Zn3+2 0.999970 0.500000 0.650990 1.018319
Zn3   Zn    Zn3+2 0.500030 0.000000 0.349010 1.044648
Zn4   Zn    Zn3+2 0.000030 0.500000 0.349010 1.047156

loop_
_geom_bond_atom_site_label_1
_geom_bond_atom_site_label_2
_ccdc_geom_bond_type
C35   H30   S    
C24   O10   S    
C28   H8    S    
N4    Zn4   S    
C11   O20   S    
C31   H18   S    
C26   O13   S    
C4    C8    D    
C24   H45   S    
N3    Zn3   S    
C20   N3    D    
O5    Zn3   S    
N1    Zn1   S    
C17   C23   S    
O2    Zn1   S    
C23   O23   A    
C19   C21   S    
C8    C42   S    
C3    C7    D    
C10   C15   D    
C25   O11   S    
O12   Zn1   S    
C19   N2    D    
C8    O17   S    
C36   H39   S    
C38   H48   S    
C12   O37   A    
C35   O21   S    
C2    C13   S    
C16   C34   S    
C21   N4    D    
C25   H55   S    
C22   O9    S    
C36   H38   S    
C30   H16   S    
C33   O20   S    
C23   O38   A    
C1    C15   S    
C7    C43   S    
C42   O3    A    
C21   O32   S    
C27   H6    S    
C26   H4    S    
C32   H24   S    
C13   O21   S    
H36   O27   S    
C36   O29   S    
C32   O19   S    
C18   O27   S    
C2    C6    D    
C7    O16   S    
O36   Zn3   S    
C27   H7    S    
O4    Zn2   S    
O39   Zn4   S    
C39   H52   S    
C29   O16   S    
C39   O35   S    
C34   O39   A    
C41   O2    A    
O37   Zn3   S    
C24   H53   S    
O38   Zn4   S    
C37   H42   S    
H44   O31   S    
C10   O19   S    
O3    Zn2   S    
C28   H10   S    
H37   O28   S    
C22   H12   S    
C29   H11   S    
H35   O26   S    
C38   H47   S    
C34   O34   A    
O8    Zn4   S    
C18   N1    D    
C42   O7    A    
N2    O30   S    
C39   H50   S    
C3    C9    S    
C31   H19   S    
H46   O32   S    
C11   C16   D    
C25   H56   S    
C30   O17   S    
O1    Zn1   S    
C30   H15   S    
C9    O18   S    
C9    C14   D    
C11   C44   S    
H33   O25   S    
C16   O25   S    
C39   H51   S    
C1    O36   A    
C33   H26   S    
C26   H3    S    
C24   H34   S    
C5    C44   D    
C12   C14   S    
C35   H28   S    
N1    O29   S    
C41   O6    A    
C40   O40   A    
H32   O24   S    
C6    C40   S    
C4    O13   S    
C43   O8    A    
C4    C10   S    
O6    Zn3   S    
C6    O15   S    
C32   H22   S    
C27   O14   S    
C37   H41   S    
C19   O28   S    
C5    C41   S    
C35   H29   S    
C17   O26   S    
C31   H20   S    
C37   H43   S    
C36   H40   S    
C31   O18   S    
C29   H13   S    
O40   Zn1   S    
C28   O15   S    
C44   O9    S    
C28   H9    S    
C40   O5    A    
C33   H25   S    
C14   O22   S    
N4    O35   S    
C13   C17   D    
C5    O14   S    
C15   O24   S    
H31   O22   S    
N3    O33   S    
C3    O11   S    
O7    Zn4   S    
N2    Zn2   S    
C2    O10   S    
O34   Zn2   S    
C38   H49   S    
C38   O33   S    
C18   C20   S    
C43   O4    A    
C20   O31   S    
C22   H23   S    
C33   H27   S    
O23   Zn2   S    
C25   H54   S    
C22   H1    S    
C29   H14   S    
C30   H17   S    
C37   O30   S    
C26   H2    S    
C27   H5    S    
C1    O1    A    
C32   H21   S    
C12   O12   A    
