data_mof_unit_7331.cif
_audit_creation_date              2012-12-10T17:31:09-0500
_audit_creation_method            fapswitch 2.2
_symmetry_space_group_name_H-M    P1
_symmetry_Int_Tables_number       1
_space_group_crystal_system       triclinic
_cell_length_a                    11.998441
_cell_length_b                    12.898946
_cell_length_c                    15.266447
_cell_angle_alpha                 87.103588
_cell_angle_beta                  116.351556
_cell_angle_gamma                 93.314736
_cell_volume                      2112.86799659

loop_
_atom_site_label
_atom_site_type_symbol
_atom_type_description
_atom_site_fract_x
_atom_site_fract_y
_atom_site_fract_z
_atom_type_partial_charge
C1    C     C_R   0.477571 0.299418 0.498917 0.882162
C2    C     C_R   0.522334 0.700565 0.500888 0.883244
C3    C     C_R   0.669673 0.504677 0.131406 0.337827
C4    C     C_R   0.445764 0.655772 0.920539 0.334781
C5    C     C_R   0.747926 0.468263 0.094637 0.189661
C6    C     C_R   0.355915 0.677636 0.951739 0.198889
C7    C     C_R   0.535316 0.811841 0.501055 -0.059787
C8    C     C_R   0.464048 0.188142 0.497575 -0.053216
C9    C     C_R   0.339433 0.030345 0.477751 -0.215481
C10   C     C_R   0.659385 0.969687 0.519528 -0.218507
C11   C     C_R   0.350418 0.137608 0.481471 -0.204408
C12   C     C_R   0.648698 0.862402 0.516551 -0.204776
C13   C     C_R   0.566851 0.132088 0.510830 -0.278040
C14   C     C_R   0.432194 0.867895 0.487019 -0.275314
C15   C     C_R   0.556688 0.025608 0.506977 0.185690
C16   C     C_R   0.442119 0.974409 0.490296 0.189434
C17   C     C_R   0.016756 0.618867 0.433483 -0.330991
C18   C     C_R   0.984306 0.382258 0.568345 -0.340249
C19   C     C_R   0.134660 0.605337 0.437729 0.008717
C20   C     C_R   0.866317 0.395638 0.563968 0.021402
C21   C     C_R   0.153155 0.445961 0.526149 -0.059321
C22   C     C_R   0.846988 0.554215 0.474137 -0.002945
C23   C     C_R   0.577966 0.493715 0.681876 0.917413
C24   C     C_R   0.422846 0.507912 0.318326 0.916741
C25   C     C_R   0.034871 0.456524 0.524126 0.087261
C26   C     C_R   0.965662 0.544078 0.476835 0.112933
C27   C     C_R   0.632245 0.491314 0.789432 -0.162938
C28   C     C_R   0.377933 0.532911 0.213420 -0.166912
C29   C     C_R   0.791393 0.442699 0.952616 0.425573
C30   C     C_R   0.263173 0.640340 0.067441 0.417973
C31   C     C_R   0.750266 0.451285 0.849674 0.086653
C32   C     C_R   0.281187 0.601355 0.161470 0.092917
C33   C     C_R   0.563031 0.531070 0.831464 -0.282598
C34   C     C_R   0.452410 0.503798 0.171590 -0.278009
C35   C     C_R   0.607619 0.534700 0.932630 -0.022417
C36   C     C_R   0.456144 0.560512 0.092704 -0.019004
C37   C     C_R   0.716962 0.481424 0.993879 -0.040687
C38   C     C_R   0.356706 0.626224 0.036215 -0.040400
C39   C     C_R   0.536076 0.580263 0.972331 -0.092808
C40   C     C_R   0.554272 0.548472 0.066794 -0.095964
H1    H     H_    0.828204 0.337681 0.597975 0.134409
H2    H     H_    0.173426 0.663841 0.404975 0.139992
H3    H     H_    0.966146 0.687301 0.396604 0.144875
H4    H     H_    0.035273 0.314157 0.605761 0.144862
H5    H     H_    0.515579 0.441759 0.207070 0.219047
H6    H     H_    0.470947 0.557342 0.783807 0.225437
H7    H     H_    0.343888 0.828934 0.474116 0.158065
H8    H     H_    0.655231 0.171002 0.523872 0.156543
H9    H     H_    0.728817 0.819267 0.527261 0.159313
H10   H     H_    0.270425 0.180747 0.471067 0.160126
H11   H     H_    0.251302 0.991318 0.465010 0.137983
H12   H     H_    0.747454 0.008719 0.532098 0.137765
H13   H     H_    0.792332 0.620660 0.436985 0.112759
H14   H     H_    0.207658 0.379376 0.563083 0.127958
N1    N     N_R   0.799120 0.480200 0.517090 -0.093117
N2    N     N_R   0.200880 0.519800 0.482910 -0.093832
O1    O     O_R   0.580150 0.341050 0.504560 -0.627265
O2    O     O_R   0.419850 0.658950 0.495440 -0.618618
O3    O     O_R   0.388090 0.353760 0.493600 -0.630969
O4    O     O_R   0.611910 0.646240 0.506400 -0.633998
O5    O     O_R   0.650890 0.490020 0.640860 -0.580132
O6    O     O_R   0.349110 0.509980 0.359140 -0.583942
O7    O     O_R   0.458830 0.502730 0.629890 -0.614924
O8    O     O_R   0.541170 0.497270 0.370110 -0.606213
Zn1   Zn    Zn3+2 0.628240 0.491510 0.507320 0.950617
Zn2   Zn    Zn3+2 0.371760 0.508490 0.492680 0.948043
N3    N     N_2   0.852660 0.411034 0.159037 -0.229320
H15   H     H_    0.830833 0.348415 0.194151 0.235528
C41   C     C_3   0.961273 0.471781 0.223062 -0.591213
H16   H     H_    0.043378 0.448825 0.214299 0.242769
H17   H     H_    0.979336 0.455821 0.300195 0.229295
H18   H     H_    0.949421 0.556594 0.206919 0.210077
N4    N     N_2   0.268246 0.754871 0.899493 -0.225132
H19   H     H_    0.236106 0.754307 0.824627 0.257023
C42   C     C_3   0.306542 0.858034 0.937841 -0.662474
H20   H     H_    0.229943 0.911777 0.897486 0.224282
H21   H     H_    0.390072 0.886861 0.928860 0.232041
H22   H     H_    0.328030 0.857701 0.016557 0.241744
N5    N     N_2   0.211679 0.638596 0.207677 -0.295254
H23   H     H_    0.117140 0.623697 0.171028 0.215235
C43   C     C_3   0.244841 0.744345 0.240108 -0.764087
H24   H     H_    0.223506 0.799235 0.176773 0.250216
H25   H     H_    0.345566 0.751922 0.290915 0.240586
H26   H     H_    0.190806 0.765736 0.279054 0.218244
N6    N     N_2   0.824088 0.416681 0.805921 -0.306492
H27   H     H_    0.851788 0.341182 0.823435 0.206982
C44   C     C_3   0.921000 0.490440 0.808242 -0.713268
H28   H     H_    0.990507 0.504986 0.884724 0.240059
H29   H     H_    0.880181 0.565153 0.772036 0.259282
H30   H     H_    0.969306 0.459184 0.768460 0.226874
O9    O     O_3   0.903315 0.399086 0.014369 -0.773425
H31   H     H_    0.945364 0.373069 0.977655 0.333919
O10   O     O_3   0.160036 0.696116 0.007931 -0.764603
H32   H     H_    0.094147 0.684315 0.029812 0.332513
O11   O     O_3   0.714723 0.504282 0.231841 -0.782625
H33   H     H_    0.683736 0.566070 0.248945 0.339735
O12   O     O_3   0.450348 0.717594 0.845479 -0.793605
H34   H     H_    0.538010 0.724518 0.855767 0.345815

loop_
_geom_bond_atom_site_label_1
_geom_bond_atom_site_label_2
_ccdc_geom_bond_type
C19   N2    A    
C44   H28   S    
O10   H32   S    
C31   N6    S    
C5    C37   A    
C1    C8    S    
N4    H19   S    
O11   H33   S    
C9    H11   S    
C29   O9    S    
C5    N3    S    
C10   H12   S    
C12   H9    S    
N6    H27   S    
C27   C33   A    
C8    C13   A    
C17   C26   A    
C35   C37   A    
C9    C16   A    
C30   O10   S    
C18   H4    S    
C10   C15   A    
C1    O3    A    
O3    Zn2   S    
C21   H14   S    
C2    O4    A    
C15   C16   A    
O12   H34   S    
C30   C38   A    
C41   H17   S    
N1    Zn1   S    
O2    Zn2   S    
C7    C14   A    
C2    C7    S    
C6    C38   A    
C23   C27   S    
C34   C36   A    
C19   H2    S    
C23   O7    A    
O7    Zn2   S    
C28   C34   A    
C24   O8    A    
C4    O12   S    
C33   H6    S    
N4    C42   S    
C18   C25   A    
C20   N1    A    
C20   H1    S    
C43   H25   S    
C43   H24   S    
C22   H13   S    
N6    C44   S    
C7    C12   A    
O6    Zn2   S    
C27   C31   A    
N3    H15   S    
C36   C40   A    
C4    C6    A    
C39   C40   A    
N5    C43   S    
C17   C19   A    
C25   C26   A    
N3    C41   S    
C41   H18   S    
C35   C39   A    
C42   H20   S    
C17   H3    S    
C1    O1    A    
C13   H8    S    
C9    C11   A    
C4    C39   A    
C28   C32   A    
C34   H5    S    
C42   H21   S    
C14   H7    S    
C10   C12   A    
O4    Zn1   S    
C13   C15   A    
C14   C16   A    
O9    H31   S    
C43   H26   S    
C6    N4    S    
C21   C25   A    
C24   O6    A    
C24   C28   S    
O1    Zn1   S    
C3    C5    A    
C3    C40   A    
C21   N2    A    
C2    O2    A    
C22   N1    A    
O8    Zn1   S    
C36   C38   A    
C29   C31   A    
C11   H10   S    
C32   N5    S    
C30   C32   A    
C8    C11   A    
N2    Zn2   S    
C33   C35   A    
C18   C20   A    
C41   H16   S    
C42   H22   S    
N5    H23   S    
O5    Zn1   S    
C23   O5    A    
C22   C26   A    
C44   H30   S    
C29   C37   A    
C44   H29   S    
C3    O11   S    
