data_mof_unit_26845.cif
_audit_creation_date              2012-12-10T18:58:10-0500
_audit_creation_method            fapswitch 2.2
_symmetry_space_group_name_H-M    P1
_symmetry_Int_Tables_number       1
_space_group_crystal_system       triclinic
_cell_length_a                    11.053624
_cell_length_b                    10.829649
_cell_length_c                    9.560521
_cell_angle_alpha                 90.30971
_cell_angle_beta                  102.860748
_cell_angle_gamma                 90.392236
_cell_volume                      1115.69567027

loop_
_atom_site_label
_atom_site_type_symbol
_atom_type_description
_atom_site_fract_x
_atom_site_fract_y
_atom_site_fract_z
_atom_type_partial_charge
C1    C     C_R   0.497099 0.262402 0.498879 0.794284
C2    C     C_R   0.483965 0.129321 0.494730 -0.093219
C3    C     C_R   0.470608 0.063588 0.364898 -0.212351
C4    C     C_R   0.471351 0.934794 0.365448 -0.212916
C5    C     C_R   0.485577 0.870892 0.495846 -0.092600
C6    C     C_R   0.481497 0.937383 0.620110 0.134109
C7    C     C_3   0.566591 0.934015 0.765113 -0.486411
C8    C     C_3   0.563980 0.073972 0.765006 -0.438674
C9    C     C_R   0.543995 0.599894 0.086158 0.243165
C10   C     C_R   0.443125 0.408294 0.059099 -0.046920
C11   C     C_R   0.442308 0.408777 0.910128 -0.033492
C12   C     C_R   0.262777 0.499062 0.441645 0.855982
C13   C     C_R   0.548605 0.597696 0.940396 0.183957
C14   C     C_3   0.679472 0.647899 0.976483 -0.261138
C15   C     C_3   0.669247 0.656848 0.132186 -0.538091
C16   C     C_R   0.497963 0.737722 0.499594 0.799142
C17   C     C_R   0.737237 0.498495 0.558244 0.868544
C18   C     C_2   0.127666 0.496289 0.408639 -0.344349
C19   C     C_2   0.067378 0.492165 0.515188 -0.146071
C20   C     C_2   0.872373 0.495054 0.590748 -0.336488
C21   C     C_2   0.932643 0.490939 0.484223 -0.160654
C22   C     C_R   0.480253 0.064545 0.619440 0.113821
Cu1   Cu    Cu3+1 0.499990 0.499980 0.640670 0.963422
Cu2   Cu    Cu3+1 0.500010 0.500020 0.359330 0.952879
H1    H     H_    0.882702 0.487964 0.372747 0.186180
H2    H     H_    0.655243 0.117209 0.763471 0.207706
H3    H     H_    0.399066 0.332759 0.102749 0.124479
H4    H     H_    0.397134 0.333912 0.842564 0.125098
H5    H     H_    0.688857 0.739725 0.929489 0.136322
H6    H     H_    0.735231 0.598304 0.207371 0.221061
H7    H     H_    0.664084 0.753602 0.169761 0.182856
H8    H     H_    0.117547 0.491184 0.626818 0.185526
H9    H     H_    0.923247 0.496014 0.701801 0.191705
H10   H     H_    0.077253 0.497535 0.297161 0.163517
H11   H     H_    0.465913 0.111000 0.264390 0.160645
H12   H     H_    0.466917 0.886093 0.265149 0.163228
H13   H     H_    0.521331 0.892608 0.846800 0.195302
H14   H     H_    0.659269 0.896614 0.761509 0.200559
H15   H     H_    0.516063 0.113264 0.845561 0.194354
N1    N     N_R   0.500780 0.500930 0.148120 -0.172662
N2    N     N_R   0.500790 0.500890 0.852210 -0.174409
O1    O     O_R   0.500000 0.319640 0.618810 -0.583135
O2    O     O_R   0.500010 0.319680 0.381230 -0.590093
O3    O     O_R   0.320680 0.500000 0.575130 -0.585628
O4    O     O_R   0.320690 0.500040 0.337550 -0.579764
O5    O     O_R   0.499990 0.680320 0.618770 -0.586081
O6    O     O_R   0.500000 0.680360 0.381190 -0.586687
O7    O     O_R   0.679310 0.499960 0.662450 -0.562770
O8    O     O_R   0.679320 0.500000 0.424870 -0.581329
C23   C     C_2   0.778731 0.558351 0.958797 0.936082
O9    O     O_2   0.871879 0.597204 0.924313 -0.635912
O10   O     O_R   0.766649 0.432654 0.986382 -0.757109
H16   H     H_    0.840099 0.382873 0.971337 0.315028

loop_
_geom_bond_atom_site_label_1
_geom_bond_atom_site_label_2
_ccdc_geom_bond_type
C10   H3    S    
C2    C22   A    
C8    C22   S    
Cu1   Cu2   S    
C4    H12   S    
C15   H7    S    
C6    C7    S    
C12   O4    A    
C8    H15   S    
C8    H2    S    
C23   O10   S    
Cu1   N2    S    
C17   O7    A    
C3    H11   S    
C13   N2    A    
C23   O9    D    
C7    H13   S    
Cu2   O4    S    
C7    C8    S    
C12   O3    A    
Cu1   O5    S    
C13   C14   S    
O10   H16   S    
C18   H10   S    
C14   C23   S    
Cu1   O1    S    
C11   H4    S    
C19   H8    S    
C16   O6    A    
C19   C21   S    
C7    H14   S    
C11   N2    A    
C2    C3    A    
C9    C15   S    
C5    C6    A    
C10   C11   A    
C20   H9    S    
C14   H5    S    
C12   C18   S    
C3    C4    A    
C6    C22   A    
C1    O1    A    
C17   C20   S    
C20   C21   D    
C15   H6    S    
C10   N1    A    
C1    C2    S    
C16   O5    A    
Cu2   O8    S    
Cu2   O2    S    
C9    C13   A    
C14   C15   S    
C18   C19   D    
C5    C16   S    
C21   H1    S    
Cu1   O7    S    
Cu2   N1    S    
Cu2   O6    S    
C1    O2    A    
C9    N1    A    
C17   O8    A    
Cu1   O3    S    
C4    C5    A    
