data_mof_unit_51695.cif
_audit_creation_date              2012-12-11T17:01:26-0500
_audit_creation_method            fapswitch 2.2
_symmetry_space_group_name_H-M    P1
_symmetry_Int_Tables_number       1
_space_group_crystal_system       triclinic
_cell_length_a                    15.021603
_cell_length_b                    14.856968
_cell_length_c                    14.8472
_cell_angle_alpha                 109.680043
_cell_angle_beta                  109.234257
_cell_angle_gamma                 109.65729
_cell_volume                      2545.73701749

loop_
_atom_site_label
_atom_site_type_symbol
_atom_type_description
_atom_site_fract_x
_atom_site_fract_y
_atom_site_fract_z
_atom_type_partial_charge
C1    C     C_R   0.930141 0.744600 0.022945 -0.149099
C2    C     C_R   0.676331 0.224282 0.672678 0.072195
C3    C     C_R   0.067955 0.501602 0.698958 0.080256
C4    C     C_R   0.700179 0.501014 0.067617 0.020252
C5    C     C_R   0.067645 0.593250 0.314300 -0.148118
C6    C     C_R   0.223558 0.407864 0.970711 -0.148074
C7    C     C_R   0.298790 0.804021 0.207215 -0.158666
C8    C     C_R   0.904557 0.195437 0.994757 -0.160636
C9    C     C_R   0.997716 0.195136 0.905507 -0.131452
C10   C     C_R   0.210230 0.805858 0.300891 -0.143373
C11   C     C_R   0.973333 0.408521 0.223914 -0.126320
C12   C     C_R   0.779490 0.253794 0.685593 -0.148020
C13   C     C_R   0.314376 0.593474 0.065361 -0.117866
C14   C     C_R   0.051110 0.502076 0.327240 0.071671
C15   C     C_R   0.326122 0.501335 0.045101 0.012895
C16   C     C_R   0.303147 0.868788 0.301766 0.081883
C17   C     C_R   0.934636 0.131188 0.934319 0.078225
C18   C     C_3   0.540704 0.411505 0.088907 -0.411241
C19   C     C_3   0.437172 0.413241 0.083705 -0.474207
C20   C     C_3   0.633210 0.615921 0.157547 -0.407128
C21   C     C_3   0.530027 0.479925 0.952720 -0.423918
C22   C     C_3   0.603360 0.501998 0.068185 0.354963
C23   C     C_R   0.097158 0.592265 0.793189 -0.163765
C24   C     C_3   0.427282 0.502714 0.055919 0.346940
C25   C     C_3   0.529704 0.616283 0.150900 -0.395076
C26   C     C_3   0.423763 0.475715 0.942536 0.161580
C27   C     C_R   0.574315 0.123003 0.467586 0.163312
C28   C     C_R   0.575715 0.168595 0.567755 0.033704
C29   C     C_R   0.474776 0.140666 0.564307 -0.203142
C30   C     C_R   0.379121 0.048427 0.469920 -0.205599
C31   C     C_R   0.384826 0.985642 0.379049 0.032689
C32   C     C_R   0.479906 0.032951 0.374331 0.160630
C33   C     C_3   0.540784 0.982422 0.335867 -0.526199
C34   C     C_R   0.700184 0.408723 0.004472 -0.151068
C35   C     C_3   0.643911 0.080347 0.437990 -0.521160
C36   C     C_R   0.157567 0.605620 0.532581 0.165965
C37   C     C_R   0.100710 0.505896 0.432289 0.031821
C38   C     C_R   0.074924 0.407463 0.436178 -0.202705
C39   C     C_R   0.078180 0.406889 0.531327 -0.205138
C40   C     C_R   0.108188 0.504993 0.622296 0.031661
C41   C     C_R   0.161713 0.605073 0.626573 0.166619
C42   C     C_3   0.153632 0.707413 0.666075 -0.527154
C43   C     C_3   0.148368 0.707837 0.563239 -0.526671
C44   C     C_R   0.841833 0.872355 0.944564 0.163849
C45   C     C_R   0.005264 0.409161 0.699507 -0.144795
C46   C     C_R   0.898472 0.829425 0.902460 0.032257
C47   C     C_R   0.925406 0.860232 0.831058 -0.202683
C48   C     C_R   0.923743 0.953005 0.828462 -0.206197
C49   C     C_R   0.893970 0.013592 0.896364 0.032128
C50   C     C_R   0.839147 0.962986 0.940939 0.163145
C51   C     C_3   0.846227 0.009822 0.051103 -0.523928
C52   C     C_3   0.850002 0.911474 0.055781 -0.525770
C53   C     C_R   0.792724 0.592244 0.097669 -0.160899
C54   C     C_R   0.685777 0.249440 0.775743 -0.126225
C55   C     C_R   0.025357 0.749884 0.934421 -0.124695
C56   C     C_R   0.947334 0.774160 0.948669 0.072814
H1    H     H_    0.871215 0.746045 0.048383 0.109141
H2    H     H_    0.203073 0.322433 0.931504 0.089370
H3    H     H_    0.345367 0.831882 0.170543 0.100526
H4    H     H_    0.840189 0.166900 0.013136 0.102381
H5    H     H_    0.021332 0.166498 0.845033 0.082398
H6    H     H_    0.179326 0.835893 0.353484 0.084638
H7    H     H_    0.941335 0.322962 0.202676 0.092730
H8    H     H_    0.376507 0.679662 0.114433 0.093787
H9    H     H_    0.593813 0.425958 0.171085 0.167261
H10   H     H_    0.516243 0.328103 0.025622 0.150314
H11   H     H_    0.365287 0.329661 0.020276 0.151911
H12   H     H_    0.803417 0.250810 0.624334 0.111372
H13   H     H_    0.440657 0.430885 0.164218 0.179988
H14   H     H_    0.687696 0.634322 0.241226 0.158442
H15   H     H_    0.532248 0.633577 0.230992 0.157600
H16   H     H_    0.575855 0.545595 0.938898 0.178450
H17   H     H_    0.509696 0.399793 0.886814 0.131421
H18   H     H_    0.356118 0.389230 0.879821 0.111063
H19   H     H_    0.676608 0.683340 0.144653 0.149518
H20   H     H_    0.529198 0.685466 0.138020 0.152127
H21   H     H_    0.470722 0.179743 0.637712 0.123547
H22   H     H_    0.161384 0.676104 0.830212 0.103369
H23   H     H_    0.305029 0.019695 0.474143 0.123951
H24   H     H_    0.523446 0.903488 0.335872 0.200080
H25   H     H_    0.535529 0.980205 0.258611 0.187942
H26   H     H_    0.684334 0.056197 0.495471 0.200070
H27   H     H_    0.698179 0.134055 0.419401 0.190883
H28   H     H_    0.038717 0.329054 0.362685 0.126878
H29   H     H_    0.044200 0.328029 0.527412 0.125316
H30   H     H_    0.076592 0.692899 0.667500 0.198837
H31   H     H_    0.229482 0.778570 0.742739 0.189472
H32   H     H_    0.068039 0.693265 0.507148 0.198923
H33   H     H_    0.643572 0.323297 0.973352 0.084710
H34   H     H_    0.220845 0.779654 0.580757 0.191788
H35   H     H_    0.961409 0.823307 0.789257 0.125956
H36   H     H_    0.958521 0.983923 0.784722 0.124053
H37   H     H_    0.923454 0.088990 0.115584 0.199073
H38   H     H_    0.770427 0.009911 0.044791 0.188748
H39   H     H_    0.929732 0.936081 0.123059 0.200503
H40   H     H_    0.776765 0.855406 0.053031 0.188316
H41   H     H_    0.982413 0.324841 0.647538 0.085229
H42   H     H_    0.824874 0.677740 0.155921 0.088498
H43   H     H_    0.621847 0.238018 0.796343 0.090016
H44   H     H_    0.057448 0.761063 0.881349 0.092703
H45   H     H_    0.125833 0.678834 0.375219 0.111280
N1    N     N_R   0.995640 0.706130 0.053910 -0.039689
N2    N     N_R   0.153680 0.443190 0.946090 -0.035964
N3    N     N_R   0.208920 0.706140 0.152110 -0.037035
N4    N     N_R   0.947120 0.293870 0.002870 -0.037909
N5    N     N_R   0.004360 0.293870 0.946090 -0.036596
N6    N     N_R   0.151690 0.706140 0.208890 -0.037754
N7    N     N_R   0.945990 0.443210 0.152110 -0.038872
N8    N     N_R   0.210060 0.556810 0.002870 -0.039443
N9    N     N_R   0.848310 0.293860 0.791110 -0.040494
N10   N     N_R   0.054010 0.556790 0.847890 -0.037173
N11   N     N_R   0.789940 0.443190 0.997130 -0.032573
N12   N     N_R   0.997630 0.443170 0.791110 -0.037803
N13   N     N_R   0.846320 0.556810 0.053910 -0.032831
N14   N     N_R   0.791080 0.293860 0.847890 -0.040198
N15   N     N_R   0.052880 0.706130 0.997130 -0.039783
N16   N     N_R   0.002370 0.556830 0.208890 -0.039027
Ni1   Ni    Ni4+2 0.999010 0.630300 0.130220 0.207489
Ni2   Ni    Ni4+2 0.000990 0.369700 0.869780 0.206355
Ni3   Ni    Ni4+2 0.130280 0.630280 0.000000 0.205113
Ni4   Ni    Ni4+2 0.869720 0.369720 0.000000 0.209259
C57   C     C_3   0.400817 0.548903 0.895642 -1.034803
H46   H     H_    0.460811 0.637957 0.955345 0.255582
H47   H     H_    0.405677 0.527141 0.818770 0.255503
H48   H     H_    0.317098 0.534397 0.872671 0.263601

loop_
_geom_bond_atom_site_label_1
_geom_bond_atom_site_label_2
_ccdc_geom_bond_type
C21   C26   S    
N14   Ni4   S    
N5    Ni2   S    
C34   N11   A    
C41   C42   S    
C6    H2    S    
C3    C23   A    
N7    Ni4   S    
C55   C56   A    
C2    C12   A    
C8    N4    A    
C12   N9    A    
C10   N6    A    
C18   H9    S    
C12   H12   S    
C29   C30   A    
C9    H5    S    
C43   H32   S    
C28   C29   A    
C1    C56   A    
C24   C26   S    
C11   H7    S    
C38   C39   A    
C4    C53   A    
C11   C14   A    
C20   C25   S    
C21   H17   S    
C52   H39   S    
C18   C19   S    
C13   N8    A    
C26   H18   S    
C6    C15   A    
N12   Ni2   S    
C31   C32   A    
C55   H44   S    
C19   H11   S    
C25   H15   S    
N6    Ni1   S    
N1    Ni1   S    
C44   C52   S    
C21   C22   S    
C20   H14   S    
C36   C41   A    
C10   H6    S    
C7    H3    S    
C35   H26   S    
C44   C46   A    
C4    C34   A    
C5    H45   S    
C43   H34   S    
C21   H16   S    
C51   C52   S    
C24   C25   S    
C2    C54   A    
C17   C49   S    
C39   C40   A    
C35   H27   S    
C27   C35   S    
C9    N5    A    
C3    C45   A    
N15   Ni3   S    
C20   H19   S    
C5    N16   A    
N10   Ni3   S    
C16   C31   S    
C55   N15   A    
C37   C38   A    
C1    H1    S    
C4    C22   S    
C47   C48   A    
C54   N14   A    
C50   C51   S    
N4    Ni4   S    
N10   N12   A    
C15   C24   S    
C6    N2    A    
C5    C14   A    
N13   Ni1   S    
C51   H37   S    
C42   H30   S    
C30   H23   S    
C9    C17   A    
C48   C49   A    
C20   C22   S    
C3    C40   S    
C7    N3    A    
C13   C15   A    
C7    C16   A    
C54   H43   S    
C19   H13   S    
C42   C43   S    
C39   H29   S    
C57   H47   S    
C11   N7    A    
C53   N13   A    
C44   C50   A    
C46   C47   A    
C40   C41   A    
C38   H28   S    
C27   C32   A    
C18   C22   S    
C47   H35   S    
N7    N16   A    
N2    Ni2   S    
N9    Ni2   S    
C2    C28   S    
C33   H24   S    
C53   H42   S    
C18   H10   S    
C23   N10   A    
N4    N5    A    
C8    C17   A    
N2    N8    A    
C25   H20   S    
C32   C33   S    
C57   H48   S    
C19   C24   S    
C34   H33   S    
N11   Ni4   S    
C10   C16   A    
N16   Ni1   S    
C8    H4    S    
C14   C37   S    
C30   C31   A    
C13   H8    S    
C1    N1    A    
C33   C35   S    
C52   H40   S    
C23   H22   S    
N1    N15   A    
C51   H38   S    
N11   N13   A    
C45   N12   A    
C29   H21   S    
C36   C37   A    
C49   C50   A    
C48   H36   S    
C46   C56   S    
C27   C28   A    
C36   C43   S    
C45   H41   S    
C42   H31   S    
C26   C57   S    
C57   H46   S    
C33   H25   S    
N9    N14   A    
N3    N6    A    
N8    Ni3   S    
N3    Ni3   S    
