data_mof_unit_30593.cif
_audit_creation_date              2012-12-11T16:46:36-0500
_audit_creation_method            fapswitch 2.2
_symmetry_space_group_name_H-M    P1
_symmetry_Int_Tables_number       1
_space_group_crystal_system       triclinic
_cell_length_a                    26.297593
_cell_length_b                    7.245389
_cell_length_c                    23.709641
_cell_angle_alpha                 90.0
_cell_angle_beta                  101.216389
_cell_angle_gamma                 89.999989
_cell_volume                      4431.25990379

loop_
_atom_site_label
_atom_site_type_symbol
_atom_type_description
_atom_site_fract_x
_atom_site_fract_y
_atom_site_fract_z
_atom_type_partial_charge
O1    O     O_R   0.547620 0.505720 0.453310 -0.538721
O2    O     O_R   0.452380 0.005720 0.546690 -0.538721
O3    O     O_R   0.442260 0.172470 0.436770 -0.529490
O4    O     O_R   0.557740 0.672470 0.563230 -0.529490
C1    C     C_R   0.075837 0.468369 0.078672 0.708646
C2    C     C_R   0.924163 0.968369 0.921328 0.708646
C3    C     C_R   0.424364 0.344402 0.421552 0.691661
C4    C     C_R   0.575636 0.844402 0.578448 0.691661
O5    O     O_R   0.546600 0.175780 0.446490 -0.517489
O6    O     O_R   0.453400 0.675780 0.553510 -0.517489
O7    O     O_R   0.557460 0.008970 0.556480 -0.524659
O8    O     O_R   0.442540 0.508970 0.443520 -0.524659
C5    C     C_R   0.562409 0.344186 0.435041 0.746359
C6    C     C_R   0.437591 0.844186 0.564959 0.746359
O9    O     O_R   0.047630 0.803580 0.953300 -0.526108
O10   O     O_R   0.952370 0.303580 0.046700 -0.526108
O11   O     O_3   0.503440 0.340340 0.536080 -0.370755
O12   O     O_3   0.496560 0.840340 0.463920 -0.370755
V1    V     V_3+5 0.499360 0.064140 0.493310 1.562590
V2    V     V_3+5 0.500640 0.564140 0.506690 1.562590
O13   O     O_R   0.057730 0.636870 0.063240 -0.529854
O14   O     O_R   0.942270 0.136870 0.936760 -0.529854
O15   O     O_3   0.996540 0.468950 0.963950 -0.378752
O16   O     O_3   0.003460 0.968950 0.036050 -0.378752
C7    C     C_R   0.151563 0.898579 0.918197 0.254807
C8    C     C_R   0.848436 0.398579 0.081803 0.254808
C9    C     C_R   0.188228 0.895068 0.881097 0.226925
C10   C     C_R   0.811772 0.395068 0.118902 0.226925
C11   C     C_R   0.171782 0.930114 0.821660 0.044858
C12   C     C_R   0.828217 0.430114 0.178340 0.044858
C13   C     C_R   0.119615 0.978648 0.800100 0.409263
C14   C     C_R   0.880385 0.478648 0.199900 0.409262
C15   C     C_R   0.084821 0.996135 0.838119 -0.357635
C16   C     C_R   0.915179 0.496135 0.161881 -0.357634
H1    H     H_    0.044933 0.035791 0.821783 0.140262
H2    H     H_    0.955067 0.535790 0.178217 0.140262
C17   C     C_R   0.100371 0.955586 0.896600 -0.123662
C18   C     C_R   0.899629 0.455586 0.103400 -0.123663
C19   C     C_R   0.218136 0.068941 0.747572 0.330583
C20   C     C_R   0.781864 0.568940 0.252427 0.330583
C21   C     C_R   0.253566 0.051343 0.709346 0.283379
C22   C     C_R   0.746433 0.551343 0.290654 0.283379
C23   C     C_R   0.283764 0.889714 0.709951 0.044153
C24   C     C_R   0.716236 0.389714 0.290049 0.044153
C25   C     C_R   0.275673 0.739418 0.745717 -0.089287
C26   C     C_R   0.724326 0.239418 0.254282 -0.089288
C27   C     C_R   0.238424 0.755742 0.780642 -0.218264
C28   C     C_R   0.761576 0.255742 0.219357 -0.218264
H3    H     H_    0.231296 0.640110 0.807057 0.201598
H4    H     H_    0.768703 0.140110 0.192942 0.201598
C29   C     C_R   0.209714 0.918103 0.782114 0.105897
C30   C     C_R   0.790285 0.418103 0.217885 0.105897
C31   C     C_R   0.377158 0.870188 0.699002 0.305984
C32   C     C_R   0.622842 0.370187 0.300998 0.305983
C33   C     C_R   0.415172 0.852826 0.663817 -0.093838
C34   C     C_R   0.584827 0.352826 0.336183 -0.093837
C35   C     C_R   0.399496 0.852877 0.603334 -0.154188
C36   C     C_R   0.600503 0.352877 0.396666 -0.154187
C37   C     C_R   0.346849 0.866705 0.578511 -0.271287
C38   C     C_R   0.653151 0.366705 0.421489 -0.271287
H5    H     H_    0.335274 0.866225 0.532057 0.133539
H6    H     H_    0.664726 0.366225 0.467943 0.133539
C39   C     C_R   0.308911 0.878836 0.612819 0.417352
C40   C     C_R   0.691089 0.378837 0.387181 0.417352
C41   C     C_R   0.324063 0.881836 0.673176 0.117310
C42   C     C_R   0.675937 0.381836 0.326823 0.117310
C43   C     C_3   0.763784 0.756379 0.799184 -0.478124
C44   C     C_3   0.236215 0.256378 0.200816 -0.478124
C45   C     C_3   0.757756 0.109573 0.790558 0.601862
C46   C     C_3   0.242244 0.609572 0.209442 0.601861
C47   C     C_3   0.708414 0.095863 0.737602 0.160403
C48   C     C_3   0.291586 0.595862 0.262398 0.160405
H7    H     H_    0.761875 0.742387 0.845326 0.205878
H8    H     H_    0.238125 0.242384 0.154674 0.205877
C49   C     C_1   0.620917 0.855089 0.624668 -0.028354
C50   C     C_1   0.379083 0.355088 0.375332 -0.028354
C51   C     C_3   0.794199 0.935264 0.789204 -0.096599
C52   C     C_3   0.205801 0.435264 0.210796 -0.096600
C53   C     C_3   0.709142 0.743371 0.758192 0.207094
C54   C     C_3   0.290857 0.243371 0.241808 0.207093
C55   C     C_3   0.707485 0.894352 0.708405 -0.242604
C56   C     C_3   0.292515 0.394352 0.291595 -0.242604
C57   C     C_3   0.758970 0.865688 0.680012 -0.172541
C58   C     C_3   0.241030 0.365688 0.319988 -0.172540
C59   C     C_3   0.809828 0.919682 0.727951 0.571099
C60   C     C_3   0.190172 0.419682 0.272049 0.571100
C61   C     C_1   0.659252 0.870353 0.662663 0.194392
C62   C     C_1   0.340748 0.370353 0.337337 0.194388
C63   C     C_1   0.841324 0.950139 0.836240 0.056078
C64   C     C_1   0.158676 0.450138 0.163760 0.056076
C65   C     C_1   0.879189 0.959469 0.874859 -0.138734
C66   C     C_1   0.120811 0.459469 0.125141 -0.138734
H9    H     H_    0.786917 0.633792 0.792111 0.243125
H10   H     H_    0.213082 0.133792 0.207889 0.243125
V3    V     V_3+5 0.000640 0.745210 0.006690 1.496867
V4    V     V_3+5 0.999360 0.245210 0.993310 1.496867
O17   O     O_R   0.057440 0.306950 0.056520 -0.536179
O18   O     O_R   0.942560 0.806950 0.943480 -0.536179
O19   O     O_R   0.953390 0.633680 0.053510 -0.541830
O20   O     O_R   0.046610 0.133680 0.946490 -0.541831
C67   C     C_R   0.937847 0.465014 0.065300 0.784524
C68   C     C_R   0.062153 0.965014 0.934700 0.784524
O21   O     O_3   0.164438 0.847649 0.975350 -0.636971
H11   H     H_    0.193223 0.757377 0.980001 0.317151
O22   O     O_3   0.835562 0.347649 0.024650 -0.636971
H12   H     H_    0.806776 0.257379 0.019998 0.317151
C69   C     C_2   0.470958 0.832036 0.689171 0.745941
O23   O     O_2   0.492988 0.945719 0.723552 -0.538052
O24   O     O_R   0.498223 0.682066 0.672813 -0.650703
H13   H     H_    0.536242 0.683111 0.691264 0.317510
C70   C     C_2   0.529042 0.332035 0.310829 0.745941
O25   O     O_2   0.507011 0.445719 0.276448 -0.538052
O26   O     O_R   0.501777 0.182066 0.327187 -0.650702
H14   H     H_    0.463758 0.183111 0.308737 0.317509
O27   O     O_3   0.256758 0.884861 0.588402 -0.610010
H15   H     H_    0.252659 0.880912 0.545944 0.313279
O28   O     O_3   0.743241 0.384861 0.411598 -0.610009
H16   H     H_    0.747341 0.380912 0.454056 0.313279
C71   C     C_2   0.664806 0.759106 0.791678 0.767992
O29   O     O_2   0.672415 0.733969 0.843678 -0.514095
O30   O     O_R   0.613984 0.782531 0.761806 -0.682309
H17   H     H_    0.587956 0.786309 0.788216 0.339882
C72   C     C_2   0.335194 0.259105 0.208322 0.767995
O31   O     O_2   0.327584 0.233969 0.156322 -0.514094
O32   O     O_R   0.386016 0.282529 0.238194 -0.682310
H18   H     H_    0.412044 0.286308 0.211784 0.339883
O33   O     O_3   0.785377 0.273249 0.784599 -0.578367
H19   H     H_    0.811136 0.294508 0.820593 0.329453
O34   O     O_3   0.214623 0.773248 0.215401 -0.578367
H20   H     H_    0.188864 0.794508 0.179407 0.329453
O35   O     O_3   0.743819 0.122448 0.845139 -0.607838
H21   H     H_    0.725229 0.010642 0.853003 0.313921
O36   O     O_3   0.256181 0.622447 0.154861 -0.607838
H22   H     H_    0.274770 0.510639 0.146997 0.313923
C73   C     C_2   0.656197 0.148086 0.753787 0.900597
O37   O     O_2   0.652447 0.191126 0.802632 -0.510790
O38   O     O_R   0.612102 0.162452 0.710128 -0.637840
H23   H     H_    0.580150 0.202753 0.724883 0.332144
C74   C     C_2   0.343803 0.648084 0.246213 0.900601
O39   O     O_2   0.347554 0.691114 0.197368 -0.510792
O40   O     O_R   0.387897 0.662459 0.289872 -0.637840
H24   H     H_    0.419849 0.702758 0.275118 0.332143
O41   O     O_3   0.711798 0.228660 0.695145 -0.581301
H25   H     H_    0.747668 0.242476 0.689842 0.373059
O42   O     O_3   0.288202 0.728660 0.304855 -0.581300
H26   H     H_    0.252332 0.742476 0.310158 0.373059
O43   O     O_3   0.851052 0.792817 0.728100 -0.609945
H27   H     H_    0.856160 0.711149 0.762150 0.310984
O44   O     O_3   0.148948 0.292817 0.271900 -0.609945
H28   H     H_    0.143840 0.211150 0.237850 0.310984
O45   O     O_3   0.240375 0.863984 0.901698 -0.616326
H29   H     H_    0.249164 0.903491 0.942406 0.332412
O46   O     O_3   0.759625 0.363985 0.098302 -0.616326
H30   H     H_    0.750836 0.403493 0.057594 0.332412
O47   O     O_3   0.828938 0.094493 0.715594 -0.630971
H31   H     H_    0.856311 0.079141 0.692430 0.357642
O48   O     O_3   0.171062 0.594494 0.284406 -0.630971
H32   H     H_    0.143689 0.579142 0.307569 0.357642
C75   C     C_2   0.759875 0.666199 0.656558 0.912027
O49   O     O_2   0.724360 0.614618 0.618408 -0.561241
O50   O     O_R   0.800649 0.543652 0.675565 -0.606800
H33   H     H_    0.799210 0.429880 0.650446 0.322383
C76   C     C_2   0.240125 0.166199 0.343442 0.912028
O51   O     O_2   0.275640 0.114618 0.381592 -0.561241
O52   O     O_R   0.199351 0.043652 0.324435 -0.606800
H34   H     H_    0.200790 0.929880 0.349554 0.322383
O53   O     O_3   0.704832 0.564394 0.734950 -0.580245
H35   H     H_    0.669850 0.549225 0.710506 0.335364
O54   O     O_3   0.295168 0.064394 0.265050 -0.580246
H36   H     H_    0.330150 0.049225 0.289494 0.335364
C77   C     C_2   0.758694 0.978202 0.624549 0.783293
O55   O     O_2   0.797120 0.975837 0.602508 -0.533607
O56   O     O_R   0.714460 0.071541 0.596159 -0.637333
H37   H     H_    0.719954 0.135889 0.559840 0.307437
C78   C     C_2   0.241306 0.478203 0.375451 0.783292
O57   O     O_2   0.202880 0.475837 0.397492 -0.533606
O58   O     O_R   0.285540 0.571541 0.403841 -0.637332
H38   H     H_    0.280046 0.635889 0.440160 0.307437
O59   O     O_3   0.103356 0.005981 0.741698 -0.603266
H39   H     H_    0.066025 0.038677 0.733692 0.314619
O60   O     O_3   0.896644 0.505981 0.258302 -0.603266
H40   H     H_    0.933975 0.538677 0.266307 0.314620
O61   O     O_3   0.192719 0.232457 0.753850 -0.617628
H41   H     H_    0.211932 0.336557 0.741003 0.298807
O62   O     O_3   0.807280 0.732457 0.246150 -0.617628
H42   H     H_    0.788068 0.836557 0.258997 0.298807
O63   O     O_3   0.259719 0.189374 0.671091 -0.606164
H43   H     H_    0.226245 0.254595 0.659309 0.322467
O64   O     O_3   0.740281 0.689374 0.328908 -0.606163
H44   H     H_    0.773755 0.754594 0.340691 0.322466
C79   C     C_2   0.304379 0.561571 0.747109 0.845662
O65   O     O_2   0.322922 0.512632 0.706073 -0.534822
O66   O     O_R   0.309356 0.447308 0.795446 -0.640237
H45   H     H_    0.328976 0.329291 0.791135 0.329090
C80   C     C_2   0.695620 0.061571 0.252890 0.845663
O67   O     O_2   0.677077 0.012632 0.293926 -0.534821
O68   O     O_R   0.690644 0.947308 0.204554 -0.640238
H46   H     H_    0.671024 0.829290 0.208864 0.329090
O69   O     O_3   0.389783 0.871841 0.758457 -0.618798
H47   H     H_    0.424980 0.821350 0.771642 0.335004
O70   O     O_3   0.610217 0.371841 0.241543 -0.618799
H48   H     H_    0.575019 0.321350 0.228358 0.335004

loop_
_geom_bond_atom_site_label_1
_geom_bond_atom_site_label_2
_ccdc_geom_bond_type
C44   C54   S    
C19   C29   A    
C77   O55   D    
C39   C41   A    
O48   H32   S    
C80   O68   S    
C9    C11   A    
C21   C23   A    
O70   H48   S    
C31   C33   A    
C45   C51   S    
O43   H27   S    
C43   C51   S    
O4    C4    A    
O50   H33   S    
V3    O18   S    
C72   O31   D    
C27   H3    S    
O56   H37   S    
C52   C64   S    
C77   O56   S    
C51   C63   S    
O52   H34   S    
C73   O37   D    
C2    O18   A    
C58   C76   S    
C76   O52   S    
C58   C60   S    
O34   H20   S    
C18   C67   S    
O3    C3    A    
O9    V3    S    
C17   C68   S    
V3    O19   S    
C72   O32   S    
C46   C52   S    
C36   C38   A    
O27   H15   S    
C2    O14   A    
O11   V2    S    
O15   V4    S    
C21   O63   S    
C38   H6    S    
O12   V1    S    
C59   O47   S    
C45   C47   S    
O5    C5    A    
C7    C17   A    
C48   O42   S    
C24   C42   S    
C25   C79   S    
C48   C74   S    
C76   O51   D    
O5    V1    S    
O6    V2    S    
C57   C77   S    
C46   O36   S    
C69   O23   D    
C75   O50   S    
O3    V1    S    
C43   H7    S    
C63   C65   T    
C58   C78   S    
C31   C41   A    
C50   C62   T    
C34   C70   S    
C45   O35   S    
O38   H23   S    
C39   O27   S    
C52   C60   S    
C28   H4    S    
O32   H18   S    
O45   H29   S    
C51   C59   S    
O69   H47   S    
C33   C69   S    
C69   O24   S    
O64   H44   S    
O40   H24   S    
C22   C24   A    
C54   O54   S    
C8    O22   S    
O20   C68   A    
C55   C57   S    
C24   C26   A    
O42   H26   S    
C26   C28   A    
C25   C27   A    
C44   C52   S    
C3    O8    A    
C74   O39   D    
C32   C34   A    
O10   V4    S    
C37   H5    S    
C79   O65   D    
C31   O69   S    
O54   H36   S    
C14   O60   S    
C26   C80   S    
C43   C53   S    
C54   C56   S    
O6    C6    A    
C60   O44   S    
O53   H35   S    
C53   C55   S    
C7    O21   S    
C27   C29   A    
C20   O62   S    
O13   V3    S    
O60   H40   S    
C46   O34   S    
C44   H10   S    
C40   O28   S    
O59   H39   S    
C13   O59   S    
C40   C42   A    
O61   H41   S    
C79   O66   S    
C12   C14   A    
C64   C66   T    
C75   O49   D    
C23   C41   S    
O7    V1    S    
V4    O17   S    
O8    V2    S    
C13   C15   A    
C1    O13   A    
C70   O26   S    
C23   C25   A    
C45   O33   S    
O30   H17   S    
C55   C61   S    
C71   O30   S    
C32   C42   A    
C49   C61   T    
O19   C67   A    
C1    O17   A    
O66   H45   S    
C78   O58   S    
C56   C58   S    
C33   C35   A    
O36   H22   S    
C48   C56   S    
C53   C71   S    
C37   C39   A    
O16   V3    S    
O1    C5    A    
C2    C65   S    
O33   H19   S    
O21   H11   S    
C47   O41   S    
O26   H14   S    
C11   C29   S    
C73   O38   S    
C6    C35   S    
C12   C30   S    
O1    V2    S    
C9    O45   S    
C70   O25   D    
C57   C59   S    
O2    V1    S    
C16   C18   A    
O14   V4    S    
C8    C18   A    
C59   O43   S    
C71   O29   D    
C3    C50   S    
C5    C36   S    
C7    C9    A    
C32   O70   S    
O22   H12   S    
C8    C10   A    
C38   C40   A    
C10   C12   A    
O41   H25   S    
O63   H43   S    
C11   C13   A    
C78   O57   D    
C20   C30   A    
O44   H28   S    
C47   C73   S    
C74   O40   S    
C22   O64   S    
O62   H42   S    
C10   O46   S    
C4    O7    A    
C56   C62   S    
V4    O20   S    
C20   C22   A    
C15   H1    S    
C34   C36   A    
C16   H2    S    
C4    C49   S    
O9    C68   A    
O68   H46   S    
O2    C6    A    
C60   O48   S    
C15   C17   A    
C1    C66   S    
C35   C37   A    
C80   O67   D    
O4    V2    S    
O10   C67   A    
C28   C30   A    
C57   C75   S    
C19   C21   A    
O58   H38   S    
O24   H13   S    
O47   H31   S    
C43   H9    S    
C46   C48   S    
C53   O53   S    
O46   H30   S    
O28   H16   S    
C44   H8    S    
C19   O61   S    
O35   H21   S    
C14   C16   A    
C47   C55   S    
C54   C72   S    
