data_mof_unit_62033.cif
_audit_creation_date              2012-12-10T16:54:30-0500
_audit_creation_method            fapswitch 2.2
_symmetry_space_group_name_H-M    P1
_symmetry_Int_Tables_number       1
_space_group_crystal_system       triclinic
_cell_length_a                    18.917533
_cell_length_b                    18.622536
_cell_length_c                    19.037085
_cell_angle_alpha                 109.419743
_cell_angle_beta                  110.449086
_cell_angle_gamma                 109.124369
_cell_volume                      5124.93507011

loop_
_atom_site_label
_atom_site_type_symbol
_atom_type_description
_atom_site_fract_x
_atom_site_fract_y
_atom_site_fract_z
_atom_type_partial_charge
C1    C     C_R   0.384112 0.380175 0.502403 1.019257
C2    C     C_3   0.805599 0.499709 0.806729 -0.214273
C3    C     C_3   0.847265 0.572405 0.784013 0.733559
C4    C     C_3   0.739437 0.511893 0.836659 0.728262
C5    C     C_2   0.266664 0.251974 0.582461 0.385088
C6    C     C_2   0.185130 0.197863 0.512479 -0.499465
C7    C     C_2   0.328503 0.324651 0.582954 0.394649
C8    C     C_2   0.327213 0.311924 0.508594 -0.448045
C9    C     C_2   0.172656 0.417544 0.172485 0.321937
C10   C     C_2   0.183198 0.491698 0.170506 -0.515814
C11   C     C_2   0.248395 0.419344 0.233131 0.492080
C12   C     C_R   0.616084 0.496254 0.619730 0.996877
C13   C     C_2   0.302329 0.489996 0.313733 -0.498041
C14   C     C_2   0.745772 0.742420 0.423090 0.436825
C15   C     C_2   0.817369 0.810655 0.499274 0.255830
C16   C     C_2   0.687086 0.669196 0.425409 -0.237632
C17   C     C_2   0.665017 0.687279 0.485789 -0.307517
C18   C     C_R   0.990694 0.379791 0.872637 0.923321
C19   C     C_R   0.874032 0.500067 0.874035 0.990953
C20   C     C_R   0.996025 0.620727 0.113975 0.821229
C21   C     C_R   0.114810 0.497436 0.111822 0.998408
C22   C     C_R   0.004649 0.124653 0.617744 0.865379
C23   C     C_R   0.614598 0.619631 0.496652 0.939924
C24   C     C_R   0.119309 0.122582 0.503620 0.978099
C25   C     C_R   0.995054 0.875264 0.382018 0.852070
C26   C     C_R   0.881238 0.880267 0.499606 0.840039
C27   C     C_2   0.980049 0.249399 0.665094 0.330861
C28   C     C_2   0.022976 0.206769 0.684361 0.257883
C29   C     C_2   0.994507 0.325479 0.738931 0.337381
C30   C     C_2   0.974729 0.309630 0.795802 0.107568
C31   C     C_2   0.015842 0.747957 0.328049 0.474114
C32   C     C_2   0.974998 0.793423 0.313380 0.303717
C33   C     C_2   0.999927 0.675602 0.250131 -0.364680
C34   C     C_R   0.376824 0.497197 0.379380 0.978468
C35   C     C_2   0.011715 0.692035 0.190362 0.394841
C36   C     C_3   0.675109 0.403063 0.653269 0.210514
C37   C     C_3   0.754021 0.407573 0.721103 0.255670
C38   C     C_3   0.771980 0.564257 0.708774 -0.618559
C39   C     C_3   0.676689 0.523781 0.769718 -0.424286
C40   C     C_3   0.683117 0.495985 0.686721 -0.180982
H1    H     H_    0.677348 0.382876 0.592436 0.095416
H2    H     H_    0.775877 0.629285 0.725817 0.231180
H3    H     H_    0.164051 0.212036 0.460306 0.145589
H4    H     H_    0.286193 0.246863 0.450797 0.144084
H5    H     H_    0.247864 0.549732 0.208922 0.130413
H6    H     H_    0.288733 0.543269 0.334151 0.129006
H7    H     H_    0.664042 0.601819 0.379042 0.170200
H8    H     H_    0.682897 0.754348 0.527489 0.169126
H9    H     H_    0.977417 0.610058 0.241852 0.126910
H10   H     H_    0.798519 0.405189 0.695319 0.075784
H11   H     H_    0.777045 0.543159 0.649522 0.193962
H12   H     H_    0.693015 0.593817 0.798596 0.226412
H13   H     H_    0.608110 0.484420 0.751547 0.239977
O1    O     O_R   0.410160 0.358490 0.449530 -0.606677
O2    O     O_R   0.046300 0.460610 0.904690 -0.591099
O3    O     O_R   0.851630 0.449030 0.902680 -0.550528
O4    O     O_R   0.953760 0.551100 0.902590 -0.570158
O5    O     O_R   0.942140 0.539520 0.083620 -0.636532
O6    O     O_R   0.044270 0.641590 0.083530 -0.613355
O7    O     O_R   0.034680 0.449030 0.085720 -0.565303
O8    O     O_R   0.136800 0.551100 0.085630 -0.640415
O9    O     O_R   0.050590 0.090430 0.641090 -0.601324
O10   O     O_R   0.947260 0.090430 0.537750 -0.588995
O11   O     O_R   0.142120 0.090460 0.551650 -0.559563
O12   O     O_R   0.408940 0.460590 0.550490 -0.577038
O13   O     O_R   0.038780 0.090460 0.448320 -0.621702
O14   O     O_R   0.052740 0.909570 0.462250 -0.581849
O15   O     O_R   0.949410 0.909570 0.358910 -0.592884
O16   O     O_R   0.961220 0.909540 0.551680 -0.607606
O17   O     O_R   0.857880 0.909540 0.448350 -0.603135
O18   O     O_R   0.592130 0.448950 0.541040 -0.629036
O19   O     O_R   0.590910 0.551050 0.642000 -0.613110
O20   O     O_R   0.591060 0.539410 0.449510 -0.632419
O21   O     O_R   0.589840 0.641510 0.550470 -0.625818
O22   O     O_R   0.409090 0.448950 0.358000 -0.582327
O23   O     O_R   0.407870 0.551050 0.458960 -0.636027
O24   O     O_R   0.944170 0.358540 0.904780 -0.573107
Zn1   Zn    Zn3+2 0.500810 0.431830 0.432590 1.000597
Zn2   Zn    Zn3+2 0.499190 0.568170 0.567410 1.022048
Zn3   Zn    Zn3+2 0.926030 0.431910 0.994210 1.088799
Zn4   Zn    Zn3+2 0.062410 0.568220 0.994100 1.035542
Zn5   Zn    Zn3+2 0.069000 0.000000 0.569000 1.067605
Zn6   Zn    Zn3+2 0.931000 0.000000 0.431000 1.032626
Cl1   Cl    Cl    0.796410 0.606816 0.944852 -0.676092
Cl2   Cl    Cl    0.907557 0.683307 0.876824 -0.612063
Cl3   Cl    Cl    0.302984 0.242743 0.676652 -0.548838
Cl4   Cl    Cl    0.406764 0.423594 0.683608 -0.556335
Cl5   Cl    Cl    0.073394 0.316028 0.101596 -0.511007
O25   O     O_3   0.257329 0.345262 0.211227 -0.552103
C41   C     C_3   0.274711 0.330347 0.143029 -0.195997
H14   H     H_    0.333035 0.389372 0.160554 0.125106
H15   H     H_    0.217320 0.310037 0.081737 0.192431
H16   H     H_    0.289095 0.275746 0.130882 0.187605
Cl6   Cl    Cl    0.571081 0.320161 0.624735 -0.515018
O26   O     O_3   0.735039 0.739166 0.345454 -0.641833
C42   C     C_3   0.647244 0.684495 0.277025 -0.331345
H17   H     H_    0.602593 0.699794 0.296584 0.174980
H18   H     H_    0.627623 0.613939 0.252661 0.166736
H19   H     H_    0.640888 0.696537 0.222424 0.196548
O27   O     O_3   0.839654 0.805484 0.574758 -0.623144
C43   C     C_3   0.861658 0.884140 0.644353 -0.257848
H20   H     H_    0.816064 0.908748 0.624575 0.142206
H21   H     H_    0.929932 0.935935 0.673627 0.207281
H22   H     H_    0.857158 0.870516 0.695565 0.208756
O28   O     O_3   0.926684 0.224058 0.579107 -0.609795
C44   C     C_3   0.847731 0.222100 0.565881 -0.298187
H23   H     H_    0.858117 0.289620 0.597730 0.167401
H24   H     H_    0.815159 0.181357 0.588574 0.175598
H25   H     H_    0.802847 0.191303 0.495197 0.197062
O29   O     O_3   0.081985 0.236905 0.770091 -0.592642
C45   C     C_3   0.166697 0.290916 0.790112 -0.248558
H26   H     H_    0.174318 0.353265 0.791791 0.150240
H27   H     H_    0.183577 0.256606 0.743995 0.201632
H28   H     H_    0.214130 0.308414 0.855853 0.205798
O30   O     O_3   0.023431 0.410016 0.749779 -0.607885
C46   C     C_3   0.057852 0.422133 0.697117 -0.220832
H29   H     H_    0.004928 0.388225 0.628491 0.195911
H30   H     H_    0.106979 0.400797 0.702488 0.141545
H31   H     H_    0.091547 0.493457 0.719605 0.181510
Cl7   Cl    Cl    0.915225 0.200717 0.774163 -0.598438
O31   O     O_3   0.068642 0.769667 0.413134 -0.611655
C47   C     C_3   0.119657 0.728706 0.418519 -0.253038
H32   H     H_    0.159559 0.743461 0.388576 0.173489
H33   H     H_    0.078120 0.656534 0.388761 0.156090
H34   H     H_    0.165477 0.755313 0.488070 0.196767
O32   O     O_3   0.726554 0.336635 0.736884 -0.490502
C48   C     C_3   0.731461 0.265962 0.685232 -0.153861
H35   H     H_    0.800593 0.284528 0.706717 0.119877
H36   H     H_    0.694405 0.244258 0.615113 0.142658
H37   H     H_    0.702317 0.209467 0.693631 0.213641
O33   O     O_3   0.912089 0.764090 0.229423 -0.611178
C49   C     C_3   0.829828 0.707162 0.212326 -0.283298
H38   H     H_    0.810395 0.743462 0.254045 0.217861
H39   H     H_    0.828635 0.650473 0.220722 0.149072
H40   H     H_    0.780635 0.680115 0.143757 0.216576
O34   O     O_3   0.056691 0.779552 0.211809 -0.624363
C50   C     C_3   0.018214 0.791679 0.141578 -0.084429
H41   H     H_    0.044788 0.778214 0.098254 0.191747
H42   H     H_    0.035510 0.861718 0.168078 0.180027
H43   H     H_    0.945801 0.751549 0.103968 0.225625
O35   O     O_3   0.903467 0.553838 0.755942 -0.630248
C51   C     C_3   0.956547 0.621783 0.748830 -0.161034
H44   H     H_    0.017938 0.670536 0.812344 0.206351
H45   H     H_    0.923686 0.655707 0.725360 0.165701
H46   H     H_    0.974500 0.592481 0.701593 0.158065
O36   O     O_3   0.690839 0.433639 0.835187 -0.523895
C52   C     C_3   0.643605 0.442231 0.878046 -0.073151
H47   H     H_    0.585771 0.376777 0.847370 0.201977
H48   H     H_    0.619691 0.488760 0.874351 0.158609
H49   H     H_    0.684705 0.463188 0.947168 0.165360

loop_
_geom_bond_atom_site_label_1
_geom_bond_atom_site_label_2
_ccdc_geom_bond_type
C19   O3    A    
C43   H20   S    
O12   Zn2   S    
C27   C29   S    
C1    C8    S    
O26   C42   S    
C25   O14   A    
C17   H8    S    
C15   O27   S    
C7    C8    D    
C39   H13   S    
C19   O4    A    
C50   H42   S    
C17   C23   S    
C44   H24   S    
O32   C48   S    
C36   C37   S    
C52   H48   S    
C38   H2    S    
O19   Zn2   S    
C18   O24   A    
C9    Cl5   S    
C5    C6    D    
C3    Cl2   S    
C44   H23   S    
C27   O28   S    
C33   H9    S    
O30   C46   S    
C42   H19   S    
C46   H29   S    
O29   C45   S    
O16   Zn5   S    
C22   O10   A    
C20   C35   S    
C7    Cl4   S    
C52   H47   S    
C3    C38   S    
C49   H38   S    
C42   H18   S    
C1    O12   A    
O20   Zn1   S    
C31   C33   S    
C18   C30   S    
C14   C16   S    
O2    Zn4   S    
C9    C10   D    
C21   O8    A    
O5    Zn3   S    
C34   O22   A    
C25   C32   S    
C39   H12   S    
O9    Zn5   S    
C6    C24   S    
C24   O11   A    
C22   C28   S    
C51   H46   S    
C36   H1    S    
C25   O15   A    
C23   O20   A    
C16   H7    S    
C10   C21   S    
C50   H43   S    
O36   C52   S    
C8    H4    S    
C36   C40   S    
C52   H49   S    
C31   O31   S    
C21   O7    A    
C39   C40   S    
C5    C7    S    
C16   C17   D    
C15   C26   S    
C38   H11   S    
C28   O29   S    
O10   Zn6   S    
C12   C40   S    
C2    C4    S    
C1    O1    A    
C48   H36   S    
C29   C30   D    
C22   O9    A    
C11   O25   S    
C41   H15   S    
C31   C32   D    
C4    Cl1   S    
C4    C39   S    
C4    O36   S    
C42   H17   S    
C10   H5    S    
C45   H27   S    
C20   O6    A    
O17   Zn6   S    
C9    C11   S    
O11   Zn5   S    
O31   C47   S    
C18   O2    A    
C5    Cl3   S    
C49   H39   S    
C12   O18   A    
C43   H22   S    
O21   Zn2   S    
C26   O17   A    
O4    Zn4   S    
C23   O21   A    
C47   H33   S    
C48   H35   S    
C14   O26   S    
C41   H16   S    
C37   O32   S    
O28   C44   S    
O24   Zn3   S    
O7    Zn3   S    
C45   H26   S    
C2    C19   S    
C51   H44   S    
O15   Zn6   S    
O6    Zn4   S    
O34   C50   S    
C35   O34   S    
O13   Zn6   S    
C24   O13   A    
C3    O35   S    
C50   H41   S    
O3    Zn3   S    
C46   H31   S    
C6    H3    S    
C47   H34   S    
C2    C3    S    
O25   C41   S    
C48   H37   S    
C13   C34   S    
O8    Zn4   S    
O35   C51   S    
C38   C40   S    
C37   H10   S    
C11   C13   D    
C2    C37   S    
C41   H14   S    
C13   H6    S    
C30   Cl7   S    
C49   H40   S    
O27   C43   S    
C33   C35   D    
C46   H30   S    
C45   H28   S    
C51   H45   S    
O18   Zn1   S    
C29   O30   S    
C12   O19   A    
O22   Zn1   S    
C36   Cl6   S    
O23   Zn2   S    
O14   Zn5   S    
C43   H21   S    
C27   C28   D    
C26   O16   A    
C14   C15   D    
C47   H32   S    
C20   O5    A    
C32   O33   S    
O33   C49   S    
C34   O23   A    
O1    Zn1   S    
C44   H25   S    
