data_mof_unit_28219.cif
_audit_creation_date              2012-12-11T16:34:01-0500
_audit_creation_method            fapswitch 2.2
_symmetry_space_group_name_H-M    P1
_symmetry_Int_Tables_number       1
_space_group_crystal_system       triclinic
_cell_length_a                    8.897117
_cell_length_b                    17.523153
_cell_length_c                    27.125666
_cell_angle_alpha                 96.280536
_cell_angle_beta                  91.901474
_cell_angle_gamma                 82.100996
_cell_volume                      4163.06746424

loop_
_atom_site_label
_atom_site_type_symbol
_atom_type_description
_atom_site_fract_x
_atom_site_fract_y
_atom_site_fract_z
_atom_type_partial_charge
Ba1   Ba    Ba6+2 0.856110 0.463800 0.523550 1.684971
Ba2   Ba    Ba6+2 0.333710 0.536130 0.476450 1.725928
C1    C     C_3   0.670251 0.183291 0.685606 0.689183
C2    C     C_R   0.981002 0.576299 0.183374 0.667331
C3    C     C_2   0.785588 0.564422 0.272606 0.408629
C4    C     C_3   0.185297 0.242270 0.654518 0.632887
C5    C     C_3   0.761033 0.587289 0.327902 -0.161980
C6    C     C_1   0.999227 0.498303 0.343941 0.108570
C7    C     C_2   0.025735 0.484104 0.294434 -0.127422
C8    C     C_2   0.912829 0.517749 0.256517 0.231495
C9    C     C_R   0.011831 0.505081 0.101137 -0.144534
C10   C     C_R   0.985876 0.437135 0.121814 -0.178478
C11   C     C_R   0.988562 0.367445 0.089483 0.429527
C12   C     C_3   0.655533 0.251111 0.651223 0.715800
C13   C     C_R   0.998490 0.576465 0.131566 0.002147
C14   C     C_2   0.888028 0.552588 0.361498 -0.289690
C15   C     C_2   0.343772 0.468570 0.641539 -0.309601
C16   C     C_3   0.176077 0.191253 0.697859 0.359175
C17   C     C_R   0.125411 0.426689 0.970415 -0.073651
C18   C     C_R   0.110315 0.568150 0.978028 0.034179
C19   C     C_R   0.132509 0.495934 0.948308 -0.026210
C20   C     C_R   0.190783 0.355757 0.944083 0.310699
C21   C     C_R   0.219477 0.351343 0.892883 0.433718
C22   C     C_R   0.209292 0.419918 0.868928 -0.114531
C23   C     C_3   0.514919 0.674541 0.641087 0.314294
C24   C     C_R   0.171577 0.492536 0.897143 -0.173588
C25   C     C_R   0.173151 0.561722 0.874337 -0.035042
C26   C     C_R   0.204101 0.556013 0.822490 0.601500
C27   C     C_R   0.244950 0.417724 0.817968 0.718069
C28   C     C_3   0.172302 0.272737 0.376517 0.260078
C29   C     C_2   0.429425 0.457752 0.730926 0.328456
C30   C     C_3   0.477929 0.462462 0.678268 -0.122195
C31   C     C_1   0.206735 0.505903 0.655504 0.072440
C32   C     C_2   0.165234 0.506130 0.702846 0.325012
C33   C     C_2   0.281386 0.480725 0.743046 0.179604
C34   C     C_3   0.547642 0.713090 0.695496 -0.038991
C35   C     C_R   0.064927 0.430754 0.019355 -0.124716
C36   C     C_R   0.049536 0.502097 0.049809 0.008948
C37   C     C_R   0.065930 0.571066 0.028746 0.058342
C38   C     C_R   0.012444 0.366654 0.038513 0.396360
C39   C     C_R   0.996678 0.645902 0.108705 0.038504
C40   C     C_3   0.153170 0.201884 0.335603 0.664398
C41   C     C_R   0.145856 0.634134 0.957010 0.362745
C42   C     C_R   0.152659 0.633716 0.904909 0.004495
C43   C     C_R   0.023054 0.641770 0.057897 -0.032486
C44   C     C_R   0.391070 0.274522 0.510298 0.122251
C45   C     C_3   0.030288 0.730691 0.341827 0.810113
C46   C     C_R   0.540803 0.252950 0.490473 -0.082420
C47   C     C_R   0.598368 0.172407 0.486155 0.279776
C48   C     C_R   0.515202 0.119000 0.504985 0.004263
C49   C     C_R   0.376356 0.143587 0.529703 -0.136749
C50   C     C_R   0.316351 0.222745 0.533927 0.050992
C51   C     C_R   0.582533 0.836757 0.509197 0.216585
C52   C     C_3   0.986883 0.723815 0.608227 0.621996
C53   C     C_R   0.631112 0.755649 0.505057 0.073588
C54   C     C_R   0.863424 0.776494 0.464385 -0.069222
C55   C     C_R   0.816618 0.856726 0.469210 0.225711
C56   C     C_3   0.985018 0.784656 0.299539 0.580481
C57   C     C_R   0.674286 0.886553 0.490738 -0.078028
C58   C     C_1   0.621206 0.968890 0.495325 0.106578
C59   C     C_1   0.575075 0.037315 0.499406 0.108127
C60   C     C_R   0.770174 0.726482 0.481965 0.108301
C61   C     C_3   0.959243 0.807631 0.641000 0.120218
C62   C     C_3   0.625825 0.358412 0.367797 0.283028
C63   C     C_3   0.633505 0.325640 0.311813 0.637204
C64   C     C_3   0.721817 0.219166 0.600518 -0.202900
C65   C     C_3   0.992924 0.208708 0.313186 -0.079828
C66   C     C_3   0.079875 0.731111 0.564122 -0.175753
C67   C     C_3   0.472172 0.750463 0.360052 0.732475
C68   C     C_3   0.850851 0.806418 0.683294 -0.390891
C69   C     C_3   0.886543 0.872547 0.609452 -0.391784
C70   C     C_3   0.102542 0.835142 0.666372 -0.409363
C71   C     C_3   0.734199 0.416591 0.378480 -0.306604
C72   C     C_3   0.585302 0.115191 0.663756 -0.365739
C73   C     C_3   0.353818 0.662990 0.637076 -0.242508
C74   C     C_3   0.610274 0.595757 0.632950 -0.287253
C75   C     C_3   0.484100 0.799973 0.705040 -0.379170
C76   C     C_3   0.498942 0.671301 0.738626 -0.398782
C77   C     C_3   0.924786 0.867802 0.321356 -0.244144
C78   C     C_3   0.394270 0.821581 0.334869 0.596483
C79   C     C_3   0.639908 0.759129 0.367216 -0.440627
C80   C     C_3   0.171641 0.437349 0.275070 -0.240066
C81   C     C_3   0.955522 0.725691 0.136082 -0.301077
C82   C     C_3   0.136950 0.711081 0.883668 -0.338330
C83   C     C_3   0.372934 0.434176 0.589718 -0.279879
C84   C     C_3   0.292048 0.083493 0.548531 -0.360330
C85   C     C_3   0.053089 0.228721 0.735324 -0.153533
C86   C     C_3   0.150424 0.108415 0.677146 -0.292076
C87   C     C_3   0.338697 0.279562 0.381804 -0.268683
C88   C     C_3   0.107966 0.257461 0.425488 -0.247779
C89   C     C_R   0.946185 0.442750 0.173033 0.636638
H1    H     H_    0.512934 0.389183 0.375722 0.099444
H2    H     H_    0.729850 0.265073 0.576397 0.129098
H3    H     H_    0.056926 0.107686 0.649230 0.138691
H4    H     H_    0.409489 0.224697 0.389319 0.057261
H5    H     H_    0.369877 0.299137 0.346971 0.195503
H6    H     H_    0.358239 0.324463 0.410877 0.051149
H7    H     H_    0.091633 0.311063 0.451185 0.181758
H8    H     H_    0.997018 0.236157 0.419217 0.129697
H9    H     H_    0.183984 0.211908 0.442794 0.072832
H10   H     H_    0.834901 0.185198 0.603983 0.141828
H11   H     H_    0.348100 0.168028 0.301822 0.338032
H12   H     H_    0.283103 0.122971 0.369954 0.292698
H13   H     H_    0.975638 0.154327 0.289823 0.121278
H14   H     H_    0.907202 0.219512 0.342565 0.012616
H15   H     H_    0.977327 0.256222 0.288859 0.102614
H16   H     H_    0.801261 0.692045 0.620198 0.308139
H17   H     H_    0.012572 0.771270 0.541547 0.030328
H18   H     H_    0.182354 0.757923 0.574587 0.060346
H19   H     H_    0.751443 0.322163 0.298771 -0.004697
H20   H     H_    0.107323 0.675093 0.541534 0.119538
H21   H     H_    0.737171 0.804855 0.666677 0.140346
H22   H     H_    0.888006 0.756312 0.704619 0.142171
H23   H     H_    0.843221 0.860147 0.709576 0.113949
H24   H     H_    0.968790 0.887790 0.583454 0.120334
H25   H     H_    0.786772 0.854482 0.588084 0.135631
H26   H     H_    0.847138 0.926812 0.633414 0.122630
H27   H     H_    0.146163 0.795057 0.693981 0.133294
H28   H     H_    0.190011 0.841862 0.639637 0.105031
H29   H     H_    0.075362 0.893375 0.687367 0.124372
H30   H     H_    0.671936 0.707471 0.699985 0.095540
H31   H     H_    0.842795 0.385995 0.390331 0.118312
H32   H     H_    0.745486 0.442736 0.344039 0.007704
H33   H     H_    0.693399 0.462345 0.408359 0.118532
H34   H     H_    0.654749 0.077471 0.634959 0.080508
H35   H     H_    0.476987 0.134793 0.645848 0.118851
H36   H     H_    0.564367 0.078365 0.692962 0.131814
H37   H     H_    0.560231 0.357881 0.248310 0.340522
H38   H     H_    0.670298 0.213702 0.314433 0.297556
H39   H     H_    0.465322 0.302677 0.677669 0.319107
H40   H     H_    0.629418 0.172600 0.755066 0.324954
H41   H     H_    0.927422 0.708246 0.352467 -0.177062
H42   H     H_    0.323733 0.629868 0.666628 0.045062
H43   H     H_    0.289663 0.719977 0.641386 0.110070
H44   H     H_    0.329647 0.632544 0.600507 0.086010
H45   H     H_    0.546020 0.550281 0.617088 0.043478
H46   H     H_    0.688042 0.597182 0.604262 0.185317
H47   H     H_    0.674430 0.579040 0.666458 0.118463
H48   H     H_    0.475717 0.829732 0.670811 0.157243
H49   H     H_    0.371236 0.808622 0.721981 0.119183
H50   H     H_    0.558709 0.829624 0.732251 0.114075
H51   H     H_    0.374050 0.681424 0.743181 0.172071
H52   H     H_    0.271713 0.821055 0.335671 0.149869
H53   H     H_    0.536089 0.608099 0.733510 0.113259
H54   H     H_    0.551002 0.694323 0.773997 0.140617
H55   H     H_    0.830152 0.110613 0.712636 0.284306
H56   H     H_    0.338106 0.236364 0.735832 0.387726
H57   H     H_    0.085364 0.633907 0.300900 0.296501
H58   H     H_    0.138997 0.737688 0.251242 0.371265
H59   H     H_    0.849176 0.787204 0.241533 0.337508
H60   H     H_    0.015936 0.895747 0.342123 0.154011
H61   H     H_    0.883524 0.903865 0.291173 0.115670
H62   H     H_    0.829940 0.868124 0.346740 0.072993
H63   H     H_    0.293207 0.220898 0.636627 0.004206
H64   H     H_    0.699049 0.713957 0.388682 0.062480
H65   H     H_    0.689774 0.755185 0.330417 0.160588
H66   H     H_    0.655353 0.815246 0.388157 0.074584
H67   H     H_    0.413814 0.799423 0.426089 0.301514
H68   H     H_    0.511136 0.909262 0.346412 0.321233
H69   H     H_    0.212558 0.347776 0.647901 0.292046
H70   H     H_    0.375198 0.858760 0.269869 0.340503
H71   H     H_    0.175726 0.375578 0.280957 0.167979
H72   H     H_    0.186262 0.439586 0.234965 0.098248
H73   H     H_    0.269677 0.460954 0.293313 0.203187
H74   H     H_    0.002471 0.695293 0.041150 0.144670
H75   H     H_    0.032707 0.289399 0.134008 0.333006
H76   H     H_    0.637005 0.433547 0.754381 0.315105
H77   H     H_    0.248277 0.237746 0.885341 0.354944
H78   H     H_    0.274870 0.309188 0.002322 0.326912
H79   H     H_    0.940927 0.320160 0.975654 0.310810
H80   H     H_    0.617715 0.639809 0.255056 0.340960
H81   H     H_    0.942455 0.772128 0.110875 0.100937
H82   H     H_    0.845446 0.728818 0.154809 0.156993
H83   H     H_    0.046335 0.738843 0.163415 0.173561
H84   H     H_    0.264326 0.720036 0.970538 0.313846
H85   H     H_    0.879579 0.568953 0.400804 0.146845
H86   H     H_    0.046741 0.713372 0.854380 0.155025
H87   H     H_    0.100128 0.760585 0.911696 0.121195
H88   H     H_    0.246773 0.720287 0.868562 0.149274
H89   H     H_    0.998911 0.521614 0.749054 0.307391
H90   H     H_    0.270770 0.430363 0.569819 0.202493
H91   H     H_    0.435360 0.469908 0.568714 0.141586
H92   H     H_    0.426235 0.373695 0.588828 0.129841
H93   H     H_    0.389229 0.830046 0.539842 0.323485
H94   H     H_    0.184555 0.107807 0.566841 0.114455
H95   H     H_    0.263972 0.041595 0.516966 0.174332
H96   H     H_    0.648189 0.178987 0.582014 0.005419
H97   H     H_    0.364939 0.051572 0.575609 0.122478
H98   H     H_    0.869605 0.958586 0.457922 0.328569
H99   H     H_    0.769464 0.180424 0.444292 0.333793
H100  H     H_    0.343010 0.374202 0.481535 0.321921
H101  H     H_    0.953734 0.257768 0.716423 0.192302
H102  H     H_    0.019707 0.185851 0.758707 0.109675
H103  H     H_    0.094438 0.275015 0.761028 0.156542
H104  H     H_    0.910200 0.638686 0.496013 0.314256
H105  H     H_    0.254112 0.077693 0.658585 0.088669
H106  H     H_    0.126685 0.074318 0.707514 0.120985
N1    N     N_R   0.949522 0.511239 0.203469 -0.409788
N2    N     N_R   0.237981 0.484816 0.795143 -0.425653
O1    O     O_2   0.910880 0.540430 0.617910 -0.419856
O2    O     O_2   0.175951 0.771939 0.473435 -0.419469
O3    O     O_3   0.092674 0.772485 0.382902 -0.583937
O4    O     O_3   0.142880 0.540370 0.557740 -0.529863
O5    O     O_3   0.562610 0.408580 0.475460 -0.515479
O6    O     O_2   0.365880 0.685750 0.523280 -0.491855
O7    O     O_3   0.543672 0.724214 0.604834 -0.643806
O8    O     O_2   0.472870 0.531484 0.321516 -0.438756
O9    O     O_3   0.448740 0.681832 0.328806 -0.536689
O10   O     O_2   0.907185 0.387360 0.190449 -0.564554
O11   O     O_2   0.285063 0.355897 0.793840 -0.518099
O12   O     O_3   0.661046 0.297702 0.397649 -0.673167
O13   O     O_2   0.995422 0.634240 0.211057 -0.593755
O14   O     O_2   0.204917 0.614215 0.801684 -0.614150
O15   O     O_3   0.675650 0.402220 0.588450 -0.481620
O16   O     O_2   0.797530 0.450534 0.672522 -0.418717
O17   O     O_3   0.059173 0.663992 0.636116 -0.651532
O18   O     O_3   0.734317 0.312159 0.673052 -0.571708
O19   O     O_2   0.823810 0.314230 0.476690 -0.449702
O20   O     O_3   0.086630 0.363340 0.564170 -0.427117
O21   O     O_2   0.002609 0.230751 0.525326 -0.457247
O22   O     O_3   0.250671 0.200577 0.295299 -0.702518
O23   O     O_3   0.069456 0.234635 0.618556 -0.629662
O24   O     O_3   0.178305 0.130196 0.356058 -0.732990
O25   O     O_3   0.848712 0.703889 0.590349 -0.780490
O26   O     O_3   0.540111 0.376274 0.283708 -0.718253
O27   O     O_3   0.587092 0.251735 0.303200 -0.717229
O28   O     O_3   0.502518 0.278618 0.644752 -0.852918
O29   O     O_3   0.614948 0.214314 0.732684 -0.680889
O30   O     O_3   0.822754 0.152702 0.690542 -0.802903
O31   O     O_3   0.315093 0.183665 0.724066 -0.719605
O32   O     O_3   0.137846 0.667656 0.325356 -0.674948
O33   O     O_3   0.110081 0.789065 0.269999 -0.740722
O34   O     O_2   0.278810 0.459550 0.382060 -0.489753
O35   O     O_3   0.870380 0.754851 0.269457 -0.728360
O36   O     O_3   0.406946 0.748928 0.406298 -0.671148
O37   O     O_3   0.422031 0.892448 0.361140 -0.762830
O38   O     O_3   0.178443 0.320020 0.674210 -0.745133
O39   O     O_3   0.439646 0.816536 0.285254 -0.724681
O40   O     O_3   0.961218 0.299073 0.105866 -0.618512
O41   O     O_3   0.534142 0.440817 0.768290 -0.683814
O42   O     O_3   0.266342 0.280524 0.866217 -0.654971
O43   O     O_3   0.242966 0.291393 0.968115 -0.680984
O44   O     O_3   0.975227 0.303080 0.008306 -0.624294
O45   O     O_3   0.046820 0.459570 0.442260 -0.478948
O46   O     O_3   0.688520 0.597770 0.237728 -0.682863
O47   O     O_3   0.190442 0.695447 0.987912 -0.745604
O48   O     O_3   0.016121 0.532522 0.714850 -0.676050
O49   O     O_3   0.449332 0.870353 0.532149 -0.722796
O50   O     O_3   0.912925 0.903411 0.452213 -0.700906
O51   O     O_3   0.734756 0.142456 0.463972 -0.718943
O52   O     O_3   0.300870 0.342554 0.503015 -0.776705
O53   O     O_3   0.814344 0.648102 0.476918 -0.721541
O54   O     O_3   0.514050 0.597710 0.411540 -0.399690
O55   O     O_3   0.092910 0.341491 0.360064 -0.676610
O56   O     O_3   0.627090 0.591350 0.524530 -0.421947
O57   O     O_3   0.103080 0.636600 0.435820 -0.451817
P1    P     P_3+3 0.078810 0.562990 0.610370 1.037463
P2    P     P_3+3 0.645380 0.325580 0.462150 0.950416
P3    P     P_3+3 0.123675 0.261501 0.561335 1.001996
P4    P     P_3+3 0.110900 0.436950 0.389630 0.964956
P5    P     P_3+3 0.054985 0.737665 0.438831 1.100301
P6    P     P_3+3 0.666922 0.404834 0.653560 1.014795
P7    P     P_3+3 0.538925 0.688442 0.540063 1.026341
P8    P     P_3+3 0.553838 0.596947 0.348664 1.060833

loop_
_geom_bond_atom_site_label_1
_geom_bond_atom_site_label_2
_ccdc_geom_bond_type
Ba2   P4    S    
C29   O41   S    
Ba2   O54   S    
C84   H97   S    
C83   H91   S    
C87   H4    S    
C9    C36   A    
H68   O37   S    
C86   H105  S    
C10   C89   A    
O45   P4    S    
C75   H49   S    
H78   O43   S    
C28   C88   S    
Ba2   O56   S    
C1    O30   S    
C74   H45   S    
C73   H43   S    
C33   N2    S    
O1    P1    D    
C11   O40   S    
C74   H46   S    
C68   H23   S    
C52   O17   S    
O8    P8    D    
C46   P2    S    
C24   C25   A    
C79   H65   S    
H80   O46   S    
C53   P7    S    
C17   C19   A    
O2    P5    D    
Ba1   Ba2   S    
C35   C38   A    
C34   C75   S    
C76   H51   S    
C36   C37   A    
H56   O31   S    
C73   H44   S    
C55   C57   A    
C72   H34   S    
C45   O32   S    
C52   C61   S    
C41   O47   S    
C39   C81   S    
C53   C60   A    
C44   C50   A    
H99   O51   S    
C54   C55   A    
H98   O50   S    
C32   C33   S    
Ba1   P2    S    
C78   O39   S    
C47   C48   A    
C1    C72   S    
C78   O37   S    
C22   C27   A    
C11   C38   A    
C77   H61   S    
C17   C35   A    
C76   H54   S    
H12   O24   S    
C89   N1    Am   
C9    C13   A    
H40   O29   S    
H84   O47   S    
H77   O42   S    
C6    C7    D    
C27   N2    Am   
H38   O27   S    
C69   H25   S    
H100  O52   S    
C62   C71   S    
C28   O55   S    
C62   O12   S    
C17   C20   A    
C71   H33   S    
C21   O42   S    
C40   O22   S    
C7    C8    S    
O23   P3    S    
C89   O10   D    
C7    C80   S    
C37   C43   A    
C14   H85   S    
C60   O53   S    
C67   C78   S    
C57   C58   S    
C83   H92   S    
Ba2   O45   S    
C64   H96   S    
C81   H81   S    
H93   O49   S    
O16   P6    D    
C15   C31   D    
O17   P1    S    
C28   C87   S    
C32   O48   S    
C25   C42   A    
C49   C84   S    
C88   H9    S    
C19   C24   A    
C64   H10   S    
C65   H13   S    
C31   C32   D    
O34   P4    D    
Ba1   P1    S    
C51   C53   A    
C68   H22   S    
C51   C57   A    
C4    C16   S    
C4    O38   S    
C44   C46   A    
C44   O52   S    
C26   N2    Am   
C79   H66   S    
H69   O38   S    
C69   H26   S    
C63   O26   S    
C49   C50   A    
O19   P2    D    
H79   O44   S    
C27   O11   D    
O21   P3    D    
Ba2   O5    S    
C85   H102  S    
C16   O31   S    
C3    O46   S    
C3    C5    S    
C18   C37   A    
C65   H14   S    
H70   O39   S    
O6    P7    D    
C12   O18   S    
C56   O35   S    
C15   C83   S    
H59   O35   S    
C50   P3    S    
O4    P1    S    
C16   C86   S    
C70   H27   S    
C45   O3    S    
C87   H6    S    
C58   C59   T    
C23   C73   S    
C66   H20   S    
C86   H106  S    
C6    P4    S    
C82   H88   S    
C30   P6    S    
C41   C42   A    
C35   C36   A    
Ba1   O45   S    
C76   H53   S    
H67   O36   S    
C77   H62   S    
Ba2   O34   S    
C52   O25   S    
C72   H36   S    
C61   C68   S    
O55   P4    S    
C21   C22   A    
C78   H52   S    
H104  O53   S    
C70   H29   S    
C48   C49   A    
C12   C64   S    
C69   H24   S    
C5    P8    S    
Ba1   O20   S    
H57   O32   S    
C8    N1    S    
O9    P8    S    
C18   C19   A    
C82   H87   S    
C13   C39   A    
C4    H63   S    
C1    C12   S    
C68   H21   S    
C56   C77   S    
O12   P2    S    
C64   H2    S    
C47   O51   S    
O54   P8    S    
H76   O41   S    
O56   P7    S    
H39   O28   S    
C84   H95   S    
C81   H82   S    
C40   C65   S    
C15   C30   S    
C29   C33   D    
Ba1   O15   S    
Ba1   O1    S    
O20   P3    S    
C62   H1    S    
C55   O50   S    
C23   O7    S    
Ba1   O4    S    
O3    P5    S    
C88   H8    S    
C20   O43   S    
C18   C41   A    
C77   H60   S    
H16   O25   S    
O5    P2    S    
C26   O14   D    
C48   C59   S    
C46   C47   A    
C67   O9    S    
C83   H90   S    
O18   P6    S    
H58   O33   S    
O15   P6    S    
C29   C30   S    
C5    C14   S    
Ba2   O4    S    
C75   H48   S    
C85   H103  S    
C61   C69   S    
C42   C82   S    
Ba2   O57   S    
H37   O26   S    
C9    C10   A    
C73   H42   S    
C65   H15   S    
C74   H47   S    
C80   H71   S    
O7    P7    S    
C16   C85   S    
C79   H64   S    
C45   H41   S    
C23   C74   S    
C62   C63   S    
C85   H101  S    
C2    C13   A    
C34   H30   S    
H75   O40   S    
C51   O49   S    
C3    C8    D    
C34   C76   S    
C45   C56   S    
C22   C24   A    
C72   H35   S    
C80   H73   S    
C87   H5    S    
C2    O13   D    
C70   H28   S    
C2    N1    Am   
C63   O27   S    
C54   P5    S    
C54   C60   A    
C66   H18   S    
C67   O36   S    
C82   H86   S    
C75   H50   S    
C63   H19   S    
C38   O44   S    
C67   C79   S    
C23   C34   S    
H89   O48   S    
Ba1   O56   S    
C12   O28   S    
C52   C66   S    
C61   C70   S    
C56   O33   S    
C84   H94   S    
C6    C14   D    
C71   H31   S    
C80   H72   S    
C81   H83   S    
C31   P1    S    
C25   C26   A    
C86   H3    S    
C39   C43   A    
C20   C21   A    
C28   C40   S    
Ba1   O19   S    
C66   H17   S    
C10   C11   A    
O57   P5    S    
Ba1   O5    S    
C43   H74   S    
C1    O29   S    
C88   H7    S    
C40   O24   S    
H11   O22   S    
Ba2   O6    S    
C4    O23   S    
H55   O30   S    
C71   H32   S    
