data_mof_unit_11755.cif
_audit_creation_date              2012-12-10T18:09:51-0500
_audit_creation_method            fapswitch 2.2
_symmetry_space_group_name_H-M    P1
_symmetry_Int_Tables_number       1
_space_group_crystal_system       triclinic
_cell_length_a                    10.904648
_cell_length_b                    12.691665
_cell_length_c                    13.043097
_cell_angle_alpha                 81.064539
_cell_angle_beta                  94.505352
_cell_angle_gamma                 102.016803
_cell_volume                      1742.16008097

loop_
_atom_site_label
_atom_site_type_symbol
_atom_type_description
_atom_site_fract_x
_atom_site_fract_y
_atom_site_fract_z
_atom_type_partial_charge
C1    C     C_R   0.466077 0.440071 0.689060 0.842613
C2    C     C_R   0.397369 0.458491 0.965714 0.105678
C3    C     C_R   0.403572 0.486844 0.857000 0.062535
C4    C     C_R   0.741877 0.502821 0.494644 0.868636
C5    C     C_R   0.425965 0.543523 0.028441 0.028602
C6    C     C_R   0.457466 0.653669 0.981848 0.031454
C7    C     C_R   0.433058 0.678287 0.875397 -0.263974
C8    C     C_R   0.400711 0.595492 0.814933 -0.122590
C9    C     C_R   0.434664 0.521184 0.135807 -0.271749
C10   C     C_R   0.539698 0.707307 0.149108 -0.121001
C11   C     C_R   0.411501 0.406222 0.794073 -0.157678
C12   C     C_3   0.120964 0.498250 0.500077 -0.163539
C13   C     C_R   0.297293 0.087886 0.357135 0.424127
C14   C     C_R   0.668491 0.801057 0.619802 0.523328
C15   C     C_R   0.737325 0.907829 0.608803 0.284521
C16   C     C_R   0.509778 0.561380 0.308029 0.868545
C17   C     C_R   0.682351 0.989361 0.549308 -0.267623
C18   C     C_R   0.559427 0.965570 0.503343 0.010913
C19   C     C_R   0.511266 0.855254 0.496032 0.030679
C20   C     C_R   0.485943 0.044816 0.459566 -0.158075
C21   C     C_R   0.376041 0.012730 0.395562 -0.143139
C22   C     C_R   0.348027 0.905589 0.371013 0.455948
C23   C     C_3   0.063089 0.499499 0.382808 -0.203173
C24   C     C_R   0.412315 0.827799 0.423972 -0.282183
C25   C     C_R   0.511051 0.152117 0.484076 0.579394
C26   C     C_R   0.328512 0.192089 0.385929 -0.222432
C27   C     C_R   0.258395 0.498573 0.502104 0.888260
C28   C     C_3   0.905736 0.391522 0.550588 -0.361794
C29   C     C_3   0.049919 0.397227 0.577092 0.376423
C30   C     C_3   0.923358 0.517984 0.377769 0.245250
C31   C     C_3   0.960001 0.602108 0.547522 -0.147174
C32   C     C_3   0.880225 0.505259 0.492186 -0.179252
C33   C     C_1   0.854638 0.303583 0.485993 0.252943
C34   C     C_3   0.101839 0.607333 0.536017 0.327713
C35   C     C_3   0.855492 0.613452 0.222419 0.117997
C36   C     C_3   0.881699 0.723791 0.155038 -0.771710
C37   C     C_1   0.141426 0.583361 0.310307 0.244271
C38   C     C_1   0.609498 0.789327 0.208592 0.245436
C39   C     C_3   0.496525 0.909157 0.969136 0.068362
C40   C     C_3   0.549890 0.012002 0.017241 -0.845636
C41   C     C_1   0.327668 0.209831 0.774491 0.118819
C42   C     C_3   0.310786 0.902301 0.198286 0.181350
C43   C     C_3   0.208876 0.888004 0.111732 -0.843022
C44   C     C_3   0.162102 0.118745 0.213435 0.120963
C45   C     C_R   0.517682 0.735520 0.041573 0.417035
C46   C     C_3   0.023167 0.096978 0.180043 -0.745337
C47   C     C_3   0.585839 0.196056 0.646485 0.177416
C48   C     C_3   0.637588 0.118001 0.729966 -1.020760
C49   C     C_3   0.735154 0.742389 0.787411 0.125975
C50   C     C_3   0.726701 0.639252 0.866732 -0.789976
C51   C     C_3   0.893828 0.003927 0.706581 0.057781
C52   C     C_3   0.020458 0.996688 0.761359 -0.812259
C53   C     C_3   0.044993 0.328031 0.759741 0.108111
C54   C     C_3   0.046823 0.366317 0.864874 -0.781365
C55   C     C_1   0.087888 0.292780 0.564161 0.131708
C56   C     C_R   0.495593 0.599362 0.196359 -0.178554
C57   C     C_1   0.063842 0.397770 0.341731 0.123436
C58   C     C_1   0.933616 0.710897 0.503983 0.303003
C59   C     C_1   0.929425 0.582718 0.657801 0.405298
C60   C     C_3   0.208775 0.742608 0.635805 0.103627
C61   C     C_3   0.169826 0.767127 0.737839 -0.864706
C62   C     C_R   0.370297 0.295670 0.836470 0.021663
C63   C     C_R   0.350312 0.267664 0.942100 -0.214167
C64   C     C_R   0.370059 0.346785 0.006909 -0.213498
H1    H     H_    0.137481 0.672730 0.471364 0.096676
H2    H     H_    0.385759 0.746970 0.404700 0.220148
H3    H     H_    0.859210 0.452666 0.339922 0.086466
H4    H     H_    0.752637 0.585683 0.228910 0.133678
H5    H     H_    0.892051 0.555324 0.182735 0.128787
H6    H     H_    0.977856 0.739213 0.127273 0.241389
H7    H     H_    0.814838 0.724573 0.086423 0.208916
H8    H     H_    0.873126 0.789284 0.199722 0.282794
H9    H     H_    0.399308 0.875392 0.994016 0.130353
H10   H     H_    0.490143 0.932667 0.883610 0.157082
H11   H     H_    0.645215 0.048445 0.989406 0.266980
H12   H     H_    0.442606 0.761099 0.837072 0.149865
H13   H     H_    0.488135 0.071971 0.994931 0.205398
H14   H     H_    0.556513 0.993027 0.103065 0.246708
H15   H     H_    0.377430 0.848642 0.191869 0.133728
H16   H     H_    0.362566 0.988423 0.186235 0.103702
H17   H     H_    0.120189 0.903812 0.135829 0.285239
H18   H     H_    0.237279 0.946385 0.041015 0.189493
H19   H     H_    0.192428 0.804197 0.091774 0.236736
H20   H     H_    0.215961 0.099087 0.152864 0.128089
H21   H     H_    0.191454 0.207330 0.215769 0.115947
H22   H     H_    0.968123 0.121555 0.237130 0.272776
H23   H     H_    0.396460 0.441338 0.174257 0.174392
H24   H     H_    0.008503 0.144382 0.102614 0.187287
H25   H     H_    0.987981 0.009247 0.175516 0.251805
H26   H     H_    0.484833 0.181750 0.654627 0.181535
H27   H     H_    0.632322 0.278021 0.663874 0.190361
H28   H     H_    0.741044 0.139060 0.731273 0.242314
H29   H     H_    0.608316 0.128930 0.806553 0.242321
H30   H     H_    0.600625 0.032332 0.718392 0.259764
H31   H     H_    0.667967 0.790108 0.808117 0.130571
H32   H     H_    0.831482 0.790116 0.796247 0.179949
H33   H     H_    0.821093 0.621436 0.889356 0.226690
H34   H     H_    0.358623 0.316809 0.088059 0.122506
H35   H     H_    0.689438 0.651336 0.939463 0.217713
H36   H     H_    0.665883 0.568292 0.836388 0.277383
H37   H     H_    0.824221 0.988988 0.767913 0.138385
H38   H     H_    0.901221 0.086847 0.662048 0.165945
H39   H     H_    0.089468 0.997614 0.702989 0.296526
H40   H     H_    0.052368 0.066511 0.805264 0.207940
H41   H     H_    0.013961 0.920368 0.816954 0.230024
H42   H     H_    0.113320 0.273964 0.765933 0.160020
H43   H     H_    0.950613 0.278786 0.743914 0.101590
H44   H     H_    0.963958 0.402757 0.869853 0.246086
H45   H     H_    0.319181 0.183255 0.975139 0.130742
H46   H     H_    0.043632 0.295963 0.927664 0.194623
H47   H     H_    0.133623 0.427393 0.876983 0.278030
H48   H     H_    0.170289 0.796851 0.571479 0.140229
H49   H     H_    0.312404 0.765806 0.633694 0.154236
H50   H     H_    0.188297 0.704282 0.803096 0.276197
H51   H     H_    0.223259 0.847888 0.753970 0.210974
H52   H     H_    0.068266 0.768940 0.732734 0.265442
H53   H     H_    0.853322 0.370781 0.622852 0.154705
H54   H     H_    0.376727 0.618467 0.734405 0.226526
H55   H     H_    0.267809 0.249645 0.364957 0.192379
H56   H     H_    0.740130 0.068438 0.536442 0.243563
N1    N     N_R   0.433240 0.222190 0.444680 -0.172777
N2    N     N_1   0.906527 0.565372 0.744329 -0.216071
N3    N     N_R   0.566070 0.776970 0.554790 -0.183530
N4    N     N_1   0.819438 0.238949 0.431187 -0.173469
N5    N     N_1   0.203444 0.647382 0.253151 -0.200860
N6    N     N_1   0.664999 0.854926 0.256384 -0.196773
N7    N     N_1   0.289089 0.139024 0.727366 -0.245518
N8    N     N_1   0.115719 0.211982 0.553897 -0.158429
N9    N     N_1   0.062922 0.318578 0.308025 -0.217467
N10   N     N_1   0.913733 0.795742 0.469510 -0.095814
O1    O     O_R   0.468120 0.366740 0.627160 -0.643076
O2    O     O_3   0.579254 0.835620 0.992952 -0.630836
O3    O     O_3   0.256203 0.874748 0.296163 -0.555875
O4    O     O_3   0.180193 0.052959 0.309591 -0.536582
O5    O     O_3   0.616345 0.187471 0.545624 -0.636245
O6    O     O_3   0.711736 0.716974 0.684324 -0.578000
O7    O     O_3   0.864057 0.925418 0.638409 -0.588882
O8    O     O_3   0.080764 0.418939 0.681798 -0.571307
O9    O     O_3   0.172303 0.629129 0.630023 -0.567464
O10   O     O_R   0.510770 0.544830 0.662520 -0.578714
O11   O     O_R   0.663880 0.410950 0.482330 -0.591452
O12   O     O_R   0.706530 0.589040 0.517700 -0.570615
O13   O     O_R   0.489230 0.455170 0.337480 -0.621455
O14   O     O_R   0.531880 0.633260 0.372840 -0.618473
O15   O     O_R   0.293470 0.410960 0.482300 -0.623383
O16   O     O_R   0.336120 0.589050 0.517670 -0.633700
O17   O     O_3   0.912962 0.622117 0.322735 -0.599091
Zn1   Zn    Zn3+2 0.471520 0.381090 0.476390 0.962434
Zn2   Zn    Zn3+2 0.528480 0.618910 0.523610 0.990271

loop_
_geom_bond_atom_site_label_1
_geom_bond_atom_site_label_2
_ccdc_geom_bond_type
N3    Zn2   S    
C52   H39   S    
C42   H16   S    
C6    C45   A    
C12   C29   S    
C43   H19   S    
C13   O4    S    
C41   N7    T    
C35   C36   S    
C1    C11   S    
C11   C62   A    
C8    H54   S    
C7    C8    A    
C46   H25   S    
C53   C54   S    
C51   H38   S    
C29   O8    S    
C12   C23   S    
C19   N3    A    
C50   H35   S    
C62   C63   A    
C48   H30   S    
C42   O3    S    
O12   Zn2   S    
C57   N9    T    
C28   C29   S    
C16   O14   A    
C28   H53   S    
C4    O12   A    
C5    C6    A    
C20   C25   A    
C34   O9    S    
C54   H46   S    
C18   C20   A    
C15   C17   A    
C18   C19   A    
C39   H10   S    
C31   C59   S    
O11   Zn1   S    
C53   H42   S    
C47   C48   S    
C44   C46   S    
C61   H51   S    
C33   N4    T    
C26   N1    A    
C10   C56   A    
C46   H24   S    
C30   H3    S    
C17   H56   S    
C36   H7    S    
C24   H2    S    
C59   N2    T    
C64   H34   S    
C42   H15   S    
C21   C22   A    
C60   H49   S    
C41   C62   S    
C10   C45   A    
C34   H1    S    
C38   N6    T    
C2    C64   A    
C6    C7    A    
C37   N5    T    
C44   O4    S    
O13   Zn1   S    
N1    Zn1   S    
C48   H29   S    
C12   C27   S    
C51   C52   S    
C23   C30   S    
C39   O2    S    
C28   C32   S    
C16   O13   A    
C26   H55   S    
C3    C8    A    
C4    O11   A    
C29   C55   S    
C1    O1    A    
C23   C37   S    
C53   O8    S    
C60   C61   S    
C63   H45   S    
C16   C56   S    
C5    C9    A    
O14   Zn2   S    
C60   H48   S    
O16   Zn2   S    
C30   O17   S    
C53   H43   S    
C31   C32   S    
C27   O15   A    
C61   H52   S    
C17   C18   A    
C31   C34   S    
C13   C21   A    
O1    Zn1   S    
C9    C56   A    
C35   O17   S    
C49   H31   S    
C4    C32   S    
C1    O10   A    
C51   O7    S    
C36   H6    S    
C49   O6    S    
C52   H41   S    
C43   H17   S    
C47   H26   S    
C22   C24   A    
C13   C26   A    
C2    C5    A    
C42   C43   S    
C12   C34   S    
C44   H21   S    
C39   C40   S    
O15   Zn1   S    
C31   C58   S    
C23   C57   S    
C52   H40   S    
C50   H33   S    
C14   N3    A    
C47   O5    S    
C14   C15   A    
C47   H27   S    
C44   H20   S    
C28   C33   S    
C7    H12   S    
C51   H37   S    
C50   H36   S    
C40   H11   S    
C54   H44   S    
C10   C38   S    
C55   N8    T    
C2    C3    A    
C9    H23   S    
C30   C32   S    
C14   O6    S    
C35   H4    S    
C58   N10   T    
C27   O16   A    
C22   O3    S    
C54   H47   S    
C19   C24   A    
C40   H14   S    
C39   H9    S    
C49   H32   S    
C25   O5    S    
C3    C11   A    
C60   O9    S    
C63   C64   A    
C20   C21   A    
C35   H5    S    
C45   O2    S    
C49   C50   S    
C48   H28   S    
C61   H50   S    
C43   H18   S    
C40   H13   S    
C46   H22   S    
C25   N1    A    
O10   Zn2   S    
C36   H8    S    
C15   O7    S    
