data_mof_unit_30942.cif
_audit_creation_date              2012-12-11T14:08:14-0500
_audit_creation_method            fapswitch 2.2
_symmetry_space_group_name_H-M    P1
_symmetry_Int_Tables_number       1
_space_group_crystal_system       triclinic
_cell_length_a                    10.982996
_cell_length_b                    10.998156
_cell_length_c                    18.748405
_cell_angle_alpha                 90.664608
_cell_angle_beta                  90.161545
_cell_angle_gamma                 60.07266
_cell_volume                      1962.55305968

loop_
_atom_site_label
_atom_site_type_symbol
_atom_type_description
_atom_site_fract_x
_atom_site_fract_y
_atom_site_fract_z
_atom_type_partial_charge
C1    C     C_R   0.238441 0.644401 0.609256 0.549107
C2    C     C_2   0.776386 0.164128 0.708152 -0.187877
C3    C     C_2   0.183825 0.658845 0.681955 -0.064209
C4    C     C_R   0.652755 0.621762 0.601923 0.545555
C5    C     C_2   0.200408 0.655492 0.841730 0.218155
C6    C     C_2   0.186300 0.562374 0.800036 -0.146972
C7    C     C_2   0.218052 0.544887 0.722845 0.204017
C8    C     C_2   0.647489 0.640487 0.315777 -0.030586
C9    C     C_2   0.635651 0.664147 0.159048 -0.135241
C10   C     C_2   0.714368 0.544893 0.193973 -0.160639
C11   C     C_2   0.699801 0.528802 0.270329 0.217708
C12   C     C_3   0.693099 0.540267 0.799570 -0.360117
C13   C     C_2   0.631484 0.196354 0.319054 -0.058651
C14   C     C_2   0.636589 0.200203 0.164574 -0.083617
C15   C     C_2   0.522708 0.227602 0.201735 -0.164344
C16   C     C_R   0.628325 0.228604 0.601850 0.586647
C17   C     C_2   0.516235 0.256670 0.277407 -0.134173
C18   C     C_2   0.114899 0.685299 0.348020 0.200939
C19   C     C_2   0.107669 0.697261 0.191841 -0.039889
C20   C     C_2   0.042495 0.811520 0.235462 0.200303
C21   C     C_2   0.080256 0.800473 0.310364 -0.164349
C22   C     C_R   0.702910 0.102521 0.897818 0.625707
C23   C     C_3   0.695968 0.677272 0.813376 0.118417
C24   C     C_R   0.721869 0.687664 0.889241 0.631042
C25   C     C_R   0.118826 0.705711 0.907590 0.621140
C26   C     C_R   0.673121 0.113470 0.101525 0.568563
C27   C     C_R   0.692608 0.688804 0.094561 0.557790
C28   C     C_R   0.215407 0.651386 0.404804 0.590679
C29   C     C_R   0.082880 0.715941 0.116085 0.576587
C30   C     C_R   0.639363 0.618052 0.391533 0.584436
C31   C     C_R   0.613512 0.234091 0.393477 0.553722
C32   C     C_3   0.553366 0.805977 0.787504 0.452518
C33   C     C_3   0.530008 0.778673 0.708435 0.106924
C34   C     C_3   0.667973 0.649793 0.677294 0.000336
C35   C     C_3   0.821379 0.671295 0.770611 0.148080
C36   C     C_3   0.796365 0.670998 0.689481 0.082373
C37   C     C_3   0.691201 0.517731 0.719166 -0.288235
C38   C     C_2   0.681026 0.150555 0.667927 0.234393
C39   C     C_2   0.683928 0.177261 0.830869 0.273464
C40   C     C_2   0.794265 0.131246 0.785067 -0.155876
Cr1   Cr    Cr6+3 0.393010 0.398050 0.501480 1.108290
Cr2   Cr    Cr6+3 0.398820 0.707980 0.501630 1.050684
Cr3   Cr    Cr6+3 0.708140 0.393940 0.496850 1.066962
Cr4   Cr    Cr6+3 0.937950 0.938450 0.008940 1.070806
Cr5   Cr    Cr6+3 0.626180 0.937030 0.994750 1.096429
Cr6   Cr    Cr6+3 0.937790 0.625760 0.001410 1.033049
H1    H     H_    0.917943 0.571611 0.784458 0.169261
H2    H     H_    0.465646 0.011826 0.786888 0.372011
H3    H     H_    0.793857 0.426160 0.703625 0.201576
H4    H     H_    0.928059 0.595648 0.609580 0.337491
H5    H     H_    0.837666 0.206574 0.685430 0.126071
H6    H     H_    0.551356 0.337300 0.774814 0.327757
H7    H     H_    0.685864 0.001037 0.720596 0.377608
H8    H     H_    0.297642 0.343326 0.731015 0.361492
H9    H     H_    0.348813 0.655334 0.786830 0.318648
H10   H     H_    0.354429 0.899678 0.813785 0.352546
H11   H     H_    0.130775 0.763510 0.705514 0.090642
H12   H     H_    0.899782 0.056716 0.802699 0.139702
H13   H     H_    0.803131 0.325213 0.258150 0.303510
H14   H     H_    0.541772 0.750503 0.182786 0.104792
H15   H     H_    0.604445 0.747228 0.297271 0.042322
H16   H     H_    0.439230 0.213939 0.178866 0.160103
H17   H     H_    0.411993 0.323036 0.299854 0.179544
H18   H     H_    0.715762 0.220769 0.186772 0.110667
H19   H     H_    0.735830 0.129565 0.298130 0.100040
H20   H     H_    0.941097 0.014847 0.243949 0.303463
H21   H     H_    0.178761 0.592840 0.211585 0.086084
H22   H     H_    0.985676 0.637204 0.301110 0.325665
H23   H     H_    0.140974 0.502611 0.821585 0.123952
H24   H     H_    0.552726 0.901357 0.639972 0.354996
H25   H     H_    0.923611 0.772996 0.763276 0.306420
H26   H     H_    0.599028 0.545832 0.824960 0.171361
H27   H     H_    0.802957 0.457041 0.167403 0.149415
H28   H     H_    0.447250 0.748445 0.707386 0.168045
H29   H     H_    0.102319 0.880596 0.330456 0.124839
H30   H     H_    0.774150 0.773437 0.667188 0.117110
H31   H     H_    0.786970 0.448398 0.822717 0.137522
H32   H     H_    0.607685 0.491760 0.706210 0.101387
O1    O     O_R   0.507110 0.256280 0.580300 -0.426254
O2    O     O_R   0.837080 0.593860 0.915300 -0.554067
O3    O     O_R   0.064770 0.636080 0.932550 -0.528680
O4    O     O_R   0.280830 0.527190 0.577940 -0.432790
O5    O     O_R   0.068250 0.829200 0.092940 -0.453314
O6    O     O_R   0.799650 0.057040 0.080330 -0.467055
O7    O     O_R   0.586130 0.079760 0.077080 -0.526938
O8    O     O_R   0.627700 0.809630 0.066580 -0.497206
O9    O     O_R   0.816140 0.597180 0.075920 -0.517258
O10   O     O_R   0.045360 0.639170 0.081440 -0.511627
O11   O     O_3   0.833980 0.833750 0.001700 -0.271161
O12   O     O_R   0.524640 0.695370 0.425100 -0.511745
O13   O     O_R   0.261360 0.738990 0.584270 -0.517886
O14   O     O_R   0.532590 0.694780 0.574370 -0.486242
O15   O     O_R   0.744470 0.503750 0.577000 -0.489871
O16   O     O_R   0.698520 0.277230 0.571620 -0.550012
O17   O     O_R   0.498530 0.256920 0.419280 -0.521864
O18   O     O_R   0.272880 0.527780 0.428680 -0.465417
O19   O     O_R   0.252780 0.739630 0.423250 -0.548879
O20   O     O_3   0.560755 0.929881 0.794284 -0.592797
O21   O     O_3   0.918711 0.562397 0.657176 -0.694634
O22   O     O_3   0.548114 0.277294 0.812870 -0.680556
O23   O     O_R   0.735890 0.504390 0.415980 -0.436725
O24   O     O_3   0.616085 0.079336 0.691639 -0.650253
O25   O     O_3   0.279831 0.411760 0.692766 -0.609000
O26   O     O_3   0.273359 0.720023 0.819939 -0.690322
O27   O     O_3   0.443169 0.818441 0.830862 -0.678679
O28   O     O_3   0.752680 0.394677 0.296679 -0.664385
O29   O     O_3   0.953243 0.942892 0.208042 -0.669810
O30   O     O_3   0.072123 0.589618 0.330374 -0.703163
O31   O     O_3   0.476064 0.902304 0.667888 -0.661532
O32   O     O_3   0.841508 0.783828 0.790443 -0.708398
O33   O     O_R   0.690560 0.277820 0.422350 -0.464497
O34   O     O_3   0.499990 0.499990 0.499980 -0.292448
O35   O     O_R   0.089190 0.825870 0.932320 -0.469697
O36   O     O_R   0.819070 0.053960 0.931440 -0.545592
O37   O     O_R   0.607070 0.076440 0.916460 -0.443782
O38   O     O_R   0.647110 0.806550 0.917690 -0.411556

loop_
_geom_bond_atom_site_label_1
_geom_bond_atom_site_label_2
_ccdc_geom_bond_type
C28   O19   A    
C6    H23   S    
C18   C21   D    
C35   C36   S    
H20   O29   S    
C30   O12   A    
Cr4   O5    S    
C35   H1    S    
Cr6   O11   S    
C13   H19   S    
C12   C23   S    
H4    O21   S    
C29   O5    A    
C3    C7    D    
C26   O7    A    
C5    C6    D    
C10   H27   S    
Cr1   O18   S    
Cr1   O4    S    
C34   C37   S    
H25   O32   S    
Cr3   O16   S    
Cr2   O13   S    
C12   C37   S    
C2    C38   D    
C29   O10   A    
Cr2   O34   S    
C36   H30   S    
C24   O2    A    
C19   C20   D    
Cr1   O34   S    
C23   C24   S    
C19   H21   S    
Cr5   O11   S    
C9    C10   D    
Cr2   O14   S    
C8    H15   S    
C20   O29   S    
C12   H26   S    
C5    O26   S    
Cr4   O36   S    
C1    O13   A    
C7    O25   S    
C25   O3    A    
Cr3   O33   S    
Cr6   O10   S    
C4    C34   S    
H13   O28   S    
C40   H12   S    
H8    O25   S    
C18   C28   S    
C2    H5    S    
Cr2   O19   S    
C39   C40   D    
C1    O4    A    
H9    O26   S    
H6    O22   S    
C1    C3    S    
C27   O8    A    
Cr5   O7    S    
Cr3   O23   S    
H24   O31   S    
C25   O35   A    
Cr6   O3    S    
C37   H3    S    
Cr5   O37   S    
H7    O24   S    
C14   H18   S    
C12   H31   S    
C11   O28   S    
C33   C34   S    
C14   C26   S    
C27   O9    A    
C35   O32   S    
C5    C25   S    
C3    H11   S    
C22   O37   A    
Cr4   O35   S    
C24   O38   A    
C23   C35   S    
C32   O27   S    
C33   O31   S    
Cr3   O34   S    
C19   C29   S    
C9    C27   S    
Cr6   O9    S    
C15   C17   S    
C26   O6    A    
C13   C31   S    
Cr4   O6    S    
Cr1   O1    S    
C6    C7    S    
H2    O20   S    
C37   H32   S    
C21   H29   S    
C16   O16   A    
C13   C17   D    
C28   O18   A    
C9    H14   S    
C8    C30   S    
C32   C33   S    
C16   O1    A    
Cr5   O8    S    
C38   O24   S    
C23   C32   S    
Cr6   O2    S    
Cr5   O38   S    
C39   O22   S    
Cr1   O17   S    
C8    C11   D    
C31   O17   A    
C22   C39   S    
C30   O23   A    
Cr3   O15   S    
C15   H16   S    
C32   O20   S    
C36   O21   S    
C34   C36   S    
C18   O30   S    
H10   O27   S    
C10   C11   S    
C4    O15   A    
C2    C40   S    
C33   H28   S    
C22   O36   A    
C20   C21   S    
C31   O33   A    
C14   C15   D    
H22   O30   S    
Cr2   O12   S    
C17   H17   S    
Cr4   O11   S    
C16   C38   S    
C4    O14   A    
