data_mof_unit_25178.cif
_audit_creation_date              2012-12-11T16:17:53-0500
_audit_creation_method            fapswitch 2.2
_symmetry_space_group_name_H-M    P1
_symmetry_Int_Tables_number       1
_space_group_crystal_system       triclinic
_cell_length_a                    14.105158
_cell_length_b                    14.080692
_cell_length_c                    30.095643
_cell_angle_alpha                 97.212625
_cell_angle_beta                  97.245761
_cell_angle_gamma                 61.261662
_cell_volume                      5184.70015281

loop_
_atom_site_label
_atom_site_type_symbol
_atom_type_description
_atom_site_fract_x
_atom_site_fract_y
_atom_site_fract_z
_atom_type_partial_charge
C1    C     C_R   0.385128 0.711996 0.442579 0.578975
C2    C     C_R   0.390998 0.249259 0.220875 -0.123584
C3    C     C_R   0.395043 0.251875 0.267426 0.082390
C4    C     C_R   0.326426 0.347295 0.292065 0.012252
C5    C     C_R   0.317998 0.340286 0.198068 -0.027899
C6    C     C_1   0.306588 0.327034 0.149936 -0.027197
C7    C     C_1   0.342927 0.354323 0.340507 0.024533
C8    C     C_1   0.293935 0.306644 0.110346 -0.001629
C9    C     C_R   0.757391 0.372112 0.398909 -0.041045
C10   C     C_R   0.720657 0.315531 0.365249 0.249077
C11   C     C_R   0.730665 0.321436 0.320185 0.266711
C12   C     C_R   0.398952 0.381266 0.426235 0.563783
C13   C     C_R   0.797927 0.362018 0.309519 -0.002287
C14   C     C_R   0.846207 0.406138 0.343472 0.066164
C15   C     C_R   0.822617 0.414458 0.387856 -0.144341
C16   C     C_R   0.807592 0.417261 0.152511 -0.151171
C17   C     C_R   0.837088 0.401044 0.108425 0.218691
C18   C     C_R   0.906551 0.205334 0.111788 0.217173
C19   C     C_R   0.886929 0.222660 0.157261 0.102166
C20   C     C_R   0.838726 0.328658 0.177361 -0.059201
C21   C     C_1   0.826051 0.346570 0.224247 0.019941
C22   C     C_1   0.816096 0.356229 0.263613 0.058724
C23   C     C_R   0.709359 0.405667 0.442384 0.569771
C24   C     C_R   0.891164 0.293958 0.088318 -0.002287
C25   C     C_R   0.359228 0.775216 0.402933 0.039244
C26   C     C_R   0.442189 0.768255 0.378354 0.038077
C27   C     C_R   0.417892 0.796953 0.334227 -0.105344
C28   C     C_R   0.312760 0.835070 0.314483 -0.036599
C29   C     C_R   0.227788 0.856610 0.339970 -0.096247
C30   C     C_R   0.250085 0.827757 0.384513 0.242798
C31   C     C_R   0.261658 0.815591 0.147623 -0.134549
C32   C     C_R   0.259282 0.835392 0.103075 -0.119632
C33   C     C_R   0.321190 0.968196 0.128358 -0.100140
C34   C     C_R   0.390563 0.709795 0.568703 0.554378
C35   C     C_R   0.315998 0.954711 0.172895 0.286726
C36   C     C_R   0.288602 0.876086 0.182474 0.041776
C37   C     C_1   0.289573 0.858276 0.228203 0.025454
C38   C     C_1   0.295522 0.848397 0.267523 0.003230
C39   C     C_R   0.288565 0.912311 0.093277 -0.013380
C40   C     C_R   0.369859 0.366005 0.594116 -0.035202
C41   C     C_R   0.448812 0.328525 0.630761 0.230621
C42   C     C_R   0.416884 0.329306 0.672865 0.262562
C43   C     C_R   0.311071 0.348346 0.676976 -0.032807
C44   C     C_R   0.233697 0.377148 0.640168 0.092130
C45   C     C_R   0.402792 0.383452 0.552576 0.603795
C46   C     C_R   0.260354 0.394875 0.599531 0.227044
C47   C     C_R   0.196193 0.401131 0.831112 -0.112209
C48   C     C_R   0.199294 0.387578 0.876409 -0.126259
C49   C     C_R   0.376533 0.229107 0.871571 -0.112418
C50   C     C_R   0.373352 0.243262 0.826346 -0.108580
C51   C     C_R   0.281566 0.326689 0.805880 0.017390
C52   C     C_1   0.277719 0.336143 0.759083 -0.007253
C53   C     C_1   0.285127 0.341757 0.720457 0.051597
C54   C     C_R   0.287520 0.298580 0.896576 0.015314
C55   C     C_1   0.765627 0.376818 0.611949 0.026475
C56   C     C_R   0.713188 0.407946 0.568415 0.557009
C57   C     C_R   0.800243 0.430586 0.728687 -0.124774
C58   C     C_R   0.817886 0.415031 0.774565 -0.168278
C59   C     C_R   0.908284 0.219778 0.757257 0.296687
C60   C     C_R   0.884369 0.236004 0.711340 -0.094363
C61   C     C_R   0.831058 0.341106 0.697052 -0.010076
C62   C     C_R   0.868637 0.309854 0.789059 0.031272
C63   C     C_1   0.887121 0.294936 0.836468 -0.034931
C64   C     C_1   0.799737 0.357947 0.650279 -0.021211
C65   C     C_1   0.910672 0.282328 0.875968 -0.011393
C66   C     C_1   0.380093 0.748978 0.615123 0.015974
C67   C     C_1   0.364498 0.363744 0.380383 0.038032
C68   C     C_R   0.299003 0.753268 0.722630 0.087074
C69   C     C_R   0.286644 0.774757 0.769323 0.248638
C70   C     C_R   0.413863 0.847938 0.776543 0.046550
C71   C     C_R   0.422863 0.829692 0.730171 -0.143534
C72   C     C_R   0.363956 0.785125 0.703008 -0.028223
C73   C     C_R   0.344449 0.822188 0.796194 0.022295
C74   C     C_1   0.322188 0.856482 0.842694 0.015955
C75   C     C_1   0.372960 0.769260 0.655101 -0.015579
C76   C     C_1   0.297801 0.894080 0.880354 0.001196
C77   C     C_R   0.949779 0.273431 0.047855 0.575469
C78   C     C_R   0.251324 0.439475 0.269211 0.096149
C79   C     C_R   0.275790 0.270611 0.065160 0.540088
C80   C     C_R   0.260021 0.954927 0.048934 0.545068
C81   C     C_R   0.953001 0.269022 0.921890 0.542538
C82   C     C_R   0.275274 0.265578 0.939056 0.540397
C83   C     C_R   0.261708 0.950198 0.923089 0.541619
C84   C     C_R   0.246637 0.435711 0.221882 0.107316
Cr1   Cr    Cr6+3 0.581000 0.584320 0.508140 1.066218
Cr2   Cr    Cr6+3 0.339110 0.576430 0.496080 1.008750
Cr3   Cr    Cr6+3 0.579910 0.339270 0.495810 1.028461
Cr4   Cr    Cr6+3 0.082090 0.079210 0.982490 1.021528
Cr5   Cr    Cr6+3 0.082460 0.324610 0.994920 1.029502
Cr6   Cr    Cr6+3 0.323630 0.087860 0.996130 1.030487
H1    H     H_    0.231471 0.793416 0.076370 0.135750
H2    H     H_    0.239357 0.755803 0.154914 0.154702
H3    H     H_    0.145122 0.893346 0.325113 0.142488
H4    H     H_    0.340706 0.030259 0.121396 0.137819
H5    H     H_    0.482393 0.785775 0.314600 0.167426
H6    H     H_    0.129514 0.442800 0.894794 0.134471
H7    H     H_    0.126036 0.467359 0.815522 0.127694
H8    H     H_    0.440883 0.186958 0.806943 0.152772
H9    H     H_    0.445478 0.160014 0.886087 0.159824
H10   H     H_    0.758853 0.512432 0.717886 0.137826
H11   H     H_    0.442780 0.174364 0.202212 0.172028
H12   H     H_    0.790982 0.485056 0.798707 0.131385
H13   H     H_    0.908865 0.166667 0.686889 0.117829
H14   H     H_    0.474594 0.852075 0.715217 0.154646
H15   H     H_    0.766100 0.498914 0.168214 0.136049
H16   H     H_    0.852518 0.456783 0.413519 0.180044
O1    O     O_R   0.688580 0.499770 0.460490 -0.491307
O2    O     O_R   0.348600 0.476260 0.536540 -0.507557
O3    O     O_R   0.494840 0.313840 0.539010 -0.506982
O4    O     O_R   0.672120 0.351750 0.545910 -0.503614
O5    O     O_3   0.500010 0.500010 0.500010 -0.257295
O6    O     O_R   0.167510 0.972920 0.030390 -0.487939
O7    O     O_R   0.990840 0.178580 0.027590 -0.480582
O8    O     O_R   0.972840 0.345510 0.038590 -0.481486
O9    O     O_R   0.181550 0.320660 0.045200 -0.493768
O10   O     O_R   0.346150 0.177650 0.050510 -0.516886
O11   O     O_R   0.314200 0.996600 0.036060 -0.506412
O12   O     O_R   0.480400 0.672610 0.462660 -0.470913
O13   O     O_R   0.168690 0.969990 0.933130 -0.523901
O14   O     O_R   0.991920 0.175870 0.937430 -0.500923
O15   O     O_R   0.974010 0.342590 0.941330 -0.507837
O16   O     O_R   0.182630 0.317940 0.955040 -0.506129
O17   O     O_R   0.347320 0.174720 0.953250 -0.508324
O18   O     O_R   0.315290 0.993890 0.945900 -0.478461
O19   O     O_3   0.162730 0.163890 0.991180 -0.254109
O20   O     O_R   0.315310 0.685650 0.451800 -0.500564
O21   O     O_R   0.346220 0.474990 0.446280 -0.504891
O22   O     O_R   0.492270 0.312460 0.441630 -0.495745
O23   O     O_R   0.669740 0.350480 0.455640 -0.461607
O24   O     O_R   0.691150 0.501150 0.557860 -0.501596
O25   O     O_R   0.482790 0.673890 0.552920 -0.493260
O26   O     O_R   0.317880 0.687030 0.549170 -0.514927
I1    I     I_    0.144031 0.582879 0.305961 -0.411195
I2    I     I_    0.940539 0.086353 0.196113 -0.385650
O27   O     O_3   0.954718 0.099475 0.092821 -0.524135
C85   C     C_3   0.877841 0.080853 0.063146 0.045050
H17   H     H_    0.922876 0.019045 0.036307 0.161406
H18   H     H_    0.816586 0.154173 0.045838 0.108250
C86   C     C_3   0.820754 0.035981 0.087666 -0.268088
H19   H     H_    0.882400 0.963165 0.104805 0.205346
H20   H     H_    0.771274 0.098570 0.113332 0.186960
C87   C     C_3   0.746523 0.004434 0.055201 -0.485493
H21   H     H_    0.683213 0.076289 0.038032 0.158529
H22   H     H_    0.706116 0.972874 0.074066 0.158308
H23   H     H_    0.794219 0.940018 0.029677 0.147917
O28   O     O_3   0.671030 0.289312 0.287427 -0.539169
C88   C     C_3   0.585130 0.380358 0.266449 0.025943
H24   H     H_    0.537549 0.349455 0.242691 0.170273
H25   H     H_    0.615713 0.417596 0.245522 0.130998
C89   C     C_3   0.507303 0.468252 0.299335 -0.278660
H26   H     H_    0.472240 0.431921 0.318388 0.199471
H27   H     H_    0.550834 0.502583 0.323781 0.167920
C90   C     C_3   0.416936 0.561864 0.274266 -0.462002
H28   H     H_    0.450482 0.608128 0.260506 0.154672
H29   H     H_    0.354986 0.616933 0.297724 0.185028
H30   H     H_    0.377598 0.531591 0.246092 0.180761
O29   O     O_3   0.165833 0.855811 0.411275 -0.554498
C91   C     C_3   0.111958 0.793764 0.396328 0.034717
H31   H     H_    0.170584 0.707939 0.386690 0.181236
H32   H     H_    0.053409 0.830149 0.367174 0.147398
C92   C     C_3   0.050458 0.792662 0.434501 -0.264270
H33   H     H_    0.107253 0.762182 0.464687 0.193308
H34   H     H_    0.987602 0.876671 0.443670 0.158796
C93   C     C_3   0.997477 0.719694 0.421158 -0.461862
H35   H     H_    0.944467 0.744086 0.389636 0.193555
H36   H     H_    0.947413 0.726265 0.448173 0.145528
H37   H     H_    0.060666 0.633668 0.416114 0.190836
I3    I     I_    0.607255 0.714700 0.402086 -0.355708
O30   O     O_3   0.340067 0.018228 0.206538 -0.558478
C94   C     C_3   0.243593 0.100660 0.224880 0.021356
H38   H     H_    0.268246 0.140179 0.254967 0.191810
H39   H     H_    0.194892 0.067886 0.237182 0.154944
C95   C     C_3   0.172199 0.186669 0.191645 -0.295888
H40   H     H_    0.223474 0.204583 0.172852 0.179220
H41   H     H_    0.126781 0.154960 0.166935 0.180897
C96   C     C_3   0.091663 0.290891 0.216042 -0.432613
H42   H     H_    0.041472 0.272983 0.235630 0.187073
H43   H     H_    0.038824 0.350817 0.191366 0.168333
H44   H     H_    0.134827 0.326621 0.239671 0.192176
I4    I     I_    0.132190 0.571543 0.185514 -0.426129
I5    I     I_    0.078784 0.389550 0.645437 -0.413631
O31   O     O_3   0.180965 0.432054 0.564383 -0.538155
C97   C     C_3   0.137956 0.545948 0.562565 0.048849
H45   H     H_    0.136436 0.561336 0.527080 0.157714
H46   H     H_    0.187010 0.580853 0.583162 0.167430
C98   C     C_3   0.021729 0.607252 0.576819 -0.253888
H47   H     H_    0.972665 0.570740 0.557944 0.202996
H48   H     H_    0.022447 0.601445 0.613276 0.210492
C99   C     C_3   0.969100 0.727348 0.568236 -0.484525
H49   H     H_    0.015894 0.765816 0.587539 0.175172
H50   H     H_    0.885219 0.769634 0.579117 0.155728
H51   H     H_    0.965501 0.736980 0.531919 0.139659
O32   O     O_3   0.554626 0.306791 0.627445 -0.548309
C100  C     C_3   0.620687 0.194548 0.615974 0.045900
H52   H     H_    0.678751 0.188194 0.592572 0.168985
H53   H     H_    0.575081 0.153109 0.597669 0.117342
C101  C     C_3   0.685201 0.134835 0.657665 -0.255165
H54   H     H_    0.714355 0.185983 0.679959 0.197220
H55   H     H_    0.631972 0.118989 0.676431 0.202444
C102  C     C_3   0.782461 0.026275 0.645097 -0.495746
H56   H     H_    0.755226 0.973440 0.622856 0.148958
H57   H     H_    0.825852 0.984542 0.676014 0.168311
H58   H     H_    0.839679 0.039306 0.627652 0.146801
O33   O     O_3   0.493824 0.300147 0.709142 -0.573605
C103  C     C_3   0.477401 0.392003 0.738975 0.017262
H59   H     H_    0.506968 0.362914 0.773187 0.156465
H60   H     H_    0.390735 0.454449 0.740820 0.162846
C104  C     C_3   0.541908 0.445136 0.726704 -0.246216
H61   H     H_    0.625618 0.381545 0.720351 0.197907
H62   H     H_    0.503177 0.488018 0.695595 0.199248
C105  C     C_3   0.546109 0.526148 0.764640 -0.467336
H63   H     H_    0.464079 0.580927 0.775918 0.187999
H64   H     H_    0.578364 0.575904 0.752921 0.160755
H65   H     H_    0.599021 0.482381 0.793752 0.154305
O34   O     O_3   0.969581 0.115319 0.770479 -0.596502
C106  C     C_3   0.078429 0.094343 0.780904 0.005407
H66   H     H_    0.119185 0.022527 0.801035 0.138085
H67   H     H_    0.085426 0.160449 0.803279 0.141834
C107  C     C_3   0.139405 0.067618 0.738253 -0.275768
H68   H     H_    0.218559 0.994810 0.742716 0.148197
H69   H     H_    0.094825 0.047805 0.708635 0.181468
C108  C     C_3   0.160933 0.159278 0.728857 -0.425240
H70   H     H_    0.202168 0.137671 0.697244 0.172105
H71   H     H_    0.214590 0.171146 0.756738 0.165949
H72   H     H_    0.084246 0.236368 0.725452 0.187372
I6    I     I_    0.224998 0.667239 0.682414 -0.504690
O35   O     O_3   0.227498 0.739814 0.789888 -0.560588
C109  C     C_3   0.114597 0.806124 0.780691 0.017401
H73   H     H_    0.081286 0.754909 0.761237 0.185822
H74   H     H_    0.092822 0.876158 0.760520 0.151096
C110  C     C_3   0.060161 0.848596 0.824966 -0.261369
H75   H     H_    0.083504 0.779333 0.845577 0.182638
H76   H     H_    0.088250 0.904375 0.844045 0.179407
C111  C     C_3   0.936846 0.908976 0.817004 -0.461567
H77   H     H_    0.911075 0.978541 0.796352 0.203419
H78   H     H_    0.900197 0.940431 0.849741 0.157169
H79   H     H_    0.906543 0.853340 0.799567 0.154323
I7    I     I_    0.501900 0.921080 0.814775 -0.468541
I8    I     I_    0.502943 0.106288 0.297845 -0.384884
O36   O     O_3   0.808954 0.489160 0.083821 -0.548599
C112  C     C_3   0.856201 0.554480 0.104364 0.032193
H80   H     H_    0.910497 0.554139 0.080538 0.175089
H81   H     H_    0.907461 0.525085 0.136188 0.139128
C113  C     C_3   0.766907 0.671247 0.112982 -0.274992
H82   H     H_    0.719504 0.701884 0.080792 0.179578
H83   H     H_    0.710977 0.673027 0.136355 0.171764
C114  C     C_3   0.813944 0.746072 0.133221 -0.455111
H84   H     H_    0.869397 0.746564 0.110212 0.160485
H85   H     H_    0.747139 0.830154 0.138559 0.160341
H86   H     H_    0.859032 0.718849 0.166118 0.203082
I9    I     I_    0.947054 0.469660 0.329241 -0.362275
O37   O     O_3   0.662504 0.266632 0.375899 -0.525327
C115  C     C_3   0.727120 0.152552 0.370188 0.047266
H87   H     H_    0.815006 0.125584 0.379977 0.110841
H88   H     H_    0.718244 0.124702 0.334409 0.209681
C116  C     C_3   0.689542 0.098228 0.399731 -0.237759
H89   H     H_    0.707744 0.118250 0.435628 0.165297
H90   H     H_    0.600658 0.129278 0.393698 0.223005
C117  C     C_3   0.746302 0.975188 0.390008 -0.474257
H91   H     H_    0.720873 0.952950 0.355597 0.202569
H92   H     H_    0.725090 0.936942 0.414497 0.172275
H93   H     H_    0.835293 0.943388 0.392712 0.139445

loop_
_geom_bond_atom_site_label_1
_geom_bond_atom_site_label_2
_ccdc_geom_bond_type
C58   C62   A    
C30   O29   S    
C100  H53   S    
C55   C56   S    
Cr5   O9    S    
O29   C91   S    
C79   O9    A    
C99   H51   S    
C11   C13   A    
C41   C42   A    
C42   O33   S    
C35   C36   A    
C106  C107  S    
C88   H24   S    
C71   H14   S    
C117  H93   S    
Cr2   O26   S    
C33   H4    S    
C34   C66   S    
C109  H74   S    
C92   H33   S    
O27   C85   S    
Cr3   O4    S    
Cr5   O19   S    
C95   H40   S    
C19   I2    S    
C48   C54   A    
C81   O14   A    
C26   I3    S    
C26   C27   A    
C33   C39   A    
C74   C76   T    
C18   C24   A    
C5    C6    S    
C15   H16   S    
C27   C28   A    
C36   C37   S    
C88   H25   S    
C106  H67   S    
C18   C19   A    
C72   C75   S    
C115  H87   S    
C63   C65   T    
C86   C87   S    
C59   O34   S    
C103  C104  S    
C100  C101  S    
Cr3   O5    S    
Cr5   O16   S    
C49   C54   A    
C116  C117  S    
C113  H82   S    
C23   O23   A    
C99   H50   S    
C112  H80   S    
C73   C74   S    
C32   C39   A    
C83   O13   A    
Cr4   O7    S    
C101  H55   S    
O31   C97   S    
C109  H73   S    
C41   O32   S    
C91   C92   S    
Cr5   O8    S    
C27   H5    S    
C43   C53   S    
C96   H44   S    
O35   C109  S    
C42   C43   A    
C102  H56   S    
C89   C90   S    
C116  H90   S    
C8    C79   S    
C69   C73   A    
C70   C71   A    
C58   H12   S    
Cr6   O10   S    
C83   O18   A    
C90   H29   S    
C60   H13   S    
C9    C10   A    
C45   O3    A    
C10   O37   S    
O32   C100  S    
C45   O2    A    
C16   C20   A    
C96   H43   S    
C100  H52   S    
C34   O26   A    
C59   C60   A    
C21   C22   T    
C116  H89   S    
C91   H32   S    
O33   C103  S    
C87   H23   S    
C99   H49   S    
C111  H78   S    
C70   C73   A    
C85   C86   S    
C77   O7    A    
C69   O35   S    
C76   C83   S    
C56   O4    A    
Cr3   O22   S    
C92   H34   S    
C44   C46   A    
C96   H42   S    
C95   H41   S    
C40   C45   S    
C12   C67   S    
Cr1   O12   S    
C50   H8    S    
C17   C24   A    
C51   C52   S    
Cr6   O11   S    
C47   C48   A    
C88   C89   S    
C106  H66   S    
C102  H57   S    
C85   H18   S    
C97   C98   S    
C104  H61   S    
C107  H68   S    
C115  H88   S    
C5    C84   A    
Cr3   O23   S    
C9    C23   S    
C47   C51   A    
C14   I9    S    
C2    H11   S    
C4    C7    S    
C25   C26   A    
C103  H59   S    
C57   H10   S    
C7    C67   T    
C3    C4    A    
C81   O15   A    
C60   C61   A    
C112  H81   S    
C111  H79   S    
Cr4   O6    S    
C101  C102  S    
C40   C46   A    
C97   H45   S    
C105  H63   S    
C4    C78   A    
C37   C38   T    
C12   O21   A    
C89   H27   S    
C78   C84   A    
Cr1   O24   S    
C107  H69   S    
C84   I4    S    
C65   C81   S    
C31   C32   A    
C28   C38   S    
C68   C72   A    
C23   O1    A    
C55   C64   T    
C80   O6    A    
C62   C63   S    
C50   C51   A    
C114  H85   S    
C18   O27   S    
C110  H76   S    
O30   C94   S    
C1    O20   A    
C90   H30   S    
C108  H71   S    
C16   H15   S    
C98   H47   S    
C12   O22   A    
Cr4   O13   S    
C40   C41   A    
C105  H64   S    
C34   O25   A    
C49   C50   A    
C43   C44   A    
C104  C105  S    
C91   H31   S    
C35   O30   S    
C87   H22   S    
C2    C5    A    
Cr4   O14   S    
C111  H77   S    
C98   H48   S    
C117  H91   S    
C28   C29   A    
C82   O17   A    
C54   C82   S    
C92   C93   S    
C52   C53   T    
C86   H19   S    
O28   C88   S    
C95   C96   S    
C25   C30   A    
C80   O11   A    
C93   H35   S    
C59   C62   A    
C48   H6    S    
Cr2   O21   S    
C31   C36   A    
Cr6   O18   S    
C68   C69   A    
C93   H37   S    
Cr2   O2    S    
C85   H17   S    
C117  H92   S    
C47   H7    S    
C115  C116  S    
C6    C8    T    
C114  H84   S    
C1    C25   S    
C11   O28   S    
C57   C61   A    
Cr3   O3    S    
C70   I7    S    
C108  H72   S    
C113  C114  S    
C112  C113  S    
Cr2   O20   S    
C46   O31   S    
C19   C20   A    
C97   H46   S    
Cr2   O5    S    
C9    C15   A    
C71   C72   A    
Cr1   O1    S    
C39   C80   S    
C61   C64   S    
C29   H3    S    
C86   H20   S    
C49   H9    S    
C57   C58   A    
C16   C17   A    
Cr5   O15   S    
C98   C99   S    
C102  H58   S    
C79   O10   A    
C66   C75   T    
C44   I5    S    
C93   H36   S    
O36   C112  S    
C33   C35   A    
Cr6   O19   S    
C113  H83   S    
C13   C22   S    
C2    C3    A    
C110  C111  S    
C68   I6    S    
C1    O12   A    
C109  C110  S    
O34   C106  S    
C101  H54   S    
C78   I1    S    
C56   O24   A    
Cr4   O19   S    
C10   C11   A    
C29   C30   A    
C32   H1    S    
C17   O36   S    
Cr1   O5    S    
C24   C77   S    
C105  H65   S    
C20   C21   S    
C104  H62   S    
C31   H2    S    
C94   H38   S    
C110  H75   S    
C87   H21   S    
C14   C15   A    
O37   C115  S    
C94   H39   S    
C90   H28   S    
C13   C14   A    
C103  H60   S    
C108  H70   S    
C82   O16   A    
Cr6   O17   S    
Cr1   O25   S    
C77   O8    A    
C114  H86   S    
C3    I8    S    
C89   H26   S    
C107  C108  S    
C94   C95   S    
