data_mof_unit_5301.cif
_audit_creation_date              2012-10-26T20:35:07-0400
_audit_creation_method            fapswitch 2.2
_symmetry_space_group_name_H-M    P1
_symmetry_Int_Tables_number       1
_space_group_crystal_system       triclinic
_cell_length_a                    8.724895
_cell_length_b                    17.713373
_cell_length_c                    16.535162
_cell_angle_alpha                 88.776449
_cell_angle_beta                  97.382437
_cell_angle_gamma                 92.134478
_cell_volume                      2532.16937809

loop_
_atom_site_label
_atom_site_type_symbol
_atom_type_description
_atom_site_fract_x
_atom_site_fract_y
_atom_site_fract_z
_atom_type_partial_charge
C1    C     C_R   0.501053 0.355863 0.500867 0.541848
C2    C     C_R   0.595430 0.548188 0.258761 0.141377
C3    C     C_R   0.407572 0.454008 0.826618 -0.128279
C4    C     C_R   0.591532 0.546491 0.173333 -0.128667
C5    C     C_R   0.506999 0.503628 0.873960 0.029393
C6    C     C_R   0.492484 0.496723 0.125988 0.029568
C7    C     C_1   0.503022 0.501789 0.963121 -0.027686
C8    C     C_1   0.496442 0.498616 0.036825 -0.027575
C9    C     C_R   0.203632 0.499805 0.479374 0.545005
C10   C     C_R   0.796351 0.500054 0.520627 0.543946
C11   C     C_2   0.038315 0.499776 0.467749 -0.164439
C12   C     C_R   0.496719 0.644586 0.498903 0.544627
C13   C     C_2   0.961637 0.499789 0.532257 -0.165161
C14   C     C_R   0.572414 0.844946 0.567117 -0.010845
C15   C     C_R   0.368478 0.153833 0.475697 -0.014212
C16   C     C_R   0.569608 0.766359 0.564279 -0.131116
C17   C     C_R   0.370841 0.232559 0.475597 -0.128366
C18   C     C_R   0.492907 0.727718 0.497056 -0.006566
C19   C     C_R   0.506252 0.273688 0.503023 0.005851
C20   C     C_R   0.413345 0.768572 0.430773 -0.004681
C21   C     C_R   0.644309 0.236751 0.531034 0.004290
C22   C     C_R   0.420238 0.848491 0.431896 0.105752
C23   C     C_1   0.501523 0.967198 0.501465 0.038940
C24   C     C_R   0.643372 0.156837 0.530897 0.107646
C25   C     C_R   0.498423 0.886150 0.500300 0.057714
C26   C     C_R   0.505247 0.116018 0.503128 0.053940
C27   C     C_3   0.657031 0.881829 0.642319 -0.381097
C28   C     C_3   0.219817 0.111023 0.446275 -0.365175
C29   C     C_3   0.318152 0.726820 0.361494 -0.350551
C30   C     C_3   0.789213 0.283884 0.558780 -0.368131
C31   C     C_3   0.717433 0.608346 0.878098 -0.414192
C32   C     C_3   0.282617 0.391741 0.121814 -0.411903
C33   C     C_3   0.289759 0.395182 0.699124 -0.339552
C34   C     C_1   0.503688 0.034958 0.502394 0.036582
C35   C     C_3   0.709053 0.605371 0.300820 -0.343122
C36   C     C_R   0.605253 0.552498 0.833039 -0.019311
C37   C     C_R   0.394661 0.447624 0.166911 -0.019489
C38   C     C_R   0.598863 0.549235 0.746682 0.055431
C39   C     C_R   0.401286 0.450722 0.253294 0.058227
C40   C     C_R   0.403935 0.452132 0.741210 0.147116
Cu1   Cu    Cu3+1 0.499990 0.499980 0.580420 0.922606
Cu2   Cu    Cu3+1 0.500010 0.500020 0.419580 0.918505
H1    H     H_    0.979432 0.499860 0.405653 0.128383
H2    H     H_    0.605856 0.860646 0.696966 0.130589
H3    H     H_    0.780699 0.867128 0.649107 0.148633
H4    H     H_    0.187380 0.072027 0.495222 0.176520
H5    H     H_    0.122858 0.149515 0.429075 0.148793
H6    H     H_    0.235263 0.077875 0.391908 0.176516
H7    H     H_    0.233608 0.762492 0.324477 0.163116
H8    H     H_    0.395594 0.703608 0.320626 0.158941
H9    H     H_    0.248227 0.680106 0.386066 0.139273
H10   H     H_    0.892592 0.250523 0.577407 0.163189
H11   H     H_    0.816578 0.322438 0.508345 0.131009
H12   H     H_    0.020505 0.499663 0.594352 0.129017
H13   H     H_    0.770189 0.318209 0.611770 0.151265
H14   H     H_    0.713159 0.606373 0.944853 0.146984
H15   H     H_    0.836911 0.596153 0.867156 0.129576
H16   H     H_    0.690446 0.666415 0.855419 0.129758
H17   H     H_    0.286560 0.393920 0.055034 0.146208
H18   H     H_    0.310031 0.333658 0.144278 0.138176
H19   H     H_    0.163146 0.403712 0.132958 0.129585
H20   H     H_    0.318583 0.337698 0.723132 0.111658
H21   H     H_    0.171667 0.407336 0.712511 0.092328
H22   H     H_    0.284380 0.393340 0.632961 0.193345
H23   H     H_    0.629211 0.734944 0.615161 0.123976
H24   H     H_    0.827077 0.593943 0.286784 0.094943
H25   H     H_    0.678747 0.662855 0.277378 0.108414
H26   H     H_    0.715562 0.606638 0.367054 0.197027
H27   H     H_    0.266457 0.262333 0.454345 0.107785
H28   H     H_    0.674220 0.586669 0.715814 0.123926
H29   H     H_    0.326161 0.413157 0.284154 0.129453
H30   H     H_    0.331196 0.415979 0.856468 0.103473
H31   H     H_    0.667452 0.584757 0.143471 0.104185
H32   H     H_    0.651638 0.944227 0.640800 0.170986
I1    I     I_    0.319500 0.914544 0.329567 -0.417091
I2    I     I_    0.847223 0.095427 0.571716 -0.465501
N1    N     N_R   0.499960 0.499970 0.701210 -0.216441
N2    N     N_R   0.500040 0.500030 0.298790 -0.218278
O1    O     O_R   0.499990 0.391240 0.567930 -0.510656
O2    O     O_R   0.500010 0.608760 0.432070 -0.515177
O3    O     O_R   0.500000 0.391270 0.432120 -0.496063
O4    O     O_R   0.500000 0.608730 0.567880 -0.501449
O5    O     O_R   0.274830 0.499990 0.552240 -0.507614
O6    O     O_R   0.725170 0.500010 0.447760 -0.507950
O7    O     O_R   0.274840 0.500020 0.416420 -0.505886
O8    O     O_R   0.725160 0.499980 0.583580 -0.503171

loop_
_geom_bond_atom_site_label_1
_geom_bond_atom_site_label_2
_ccdc_geom_bond_type
C2    C35   S    
C38   H28   S    
C28   H5    S    
Cu2   O2    S    
Cu1   Cu2   S    
C7    C8    T    
C29   H7    S    
C17   H27   S    
Cu1   O8    S    
C28   H4    S    
C31   H16   S    
C19   C21   A    
C24   C26   A    
C32   H19   S    
Cu1   N1    S    
C1    O3    A    
Cu1   O5    S    
C5    C36   A    
C9    O7    A    
C27   H2    S    
C26   C34   S    
C10   O8    A    
C33   H20   S    
C22   C25   A    
C11   H1    S    
C14   C27   S    
C27   H32   S    
C21   C30   S    
C29   H8    S    
C27   H3    S    
Cu2   O3    S    
C22   I1    S    
C20   C29   S    
C30   H11   S    
C1    C19   S    
C33   C40   S    
C39   N2    A    
Cu2   O6    S    
C4    C6    A    
C5    C7    S    
C24   I2    S    
C15   C26   A    
C6    C8    S    
C35   H24   S    
C2    C4    A    
C2    N2    A    
C35   H25   S    
C33   H21   S    
C23   C34   T    
C6    C37   A    
C12   O4    A    
Cu2   O7    S    
C32   C37   S    
C9    C11   S    
C4    H31   S    
C9    O5    A    
C20   C22   A    
C3    C40   A    
Cu2   N2    S    
C1    O1    A    
C14   C16   A    
C32   H18   S    
C13   H12   S    
C29   H9    S    
C15   C17   A    
C30   H10   S    
C28   H6    S    
C40   N1    A    
C3    C5    A    
C10   C13   S    
Cu1   O1    S    
C38   N1    A    
C30   H13   S    
C31   H15   S    
C36   C38   A    
C3    H30   S    
C37   C39   A    
C11   C13   D    
C15   C28   S    
C35   H26   S    
C33   H22   S    
Cu1   O4    S    
C12   O2    A    
C10   O6    A    
C17   C19   A    
C31   H14   S    
C18   C20   A    
C23   C25   S    
C14   C25   A    
C16   C18   A    
C21   C24   A    
C12   C18   S    
C39   H29   S    
C31   C36   S    
C16   H23   S    
C32   H17   S    
