data_mof_unit_58914.cif
_audit_creation_date              2012-10-26T20:05:01-0400
_audit_creation_method            fapswitch 2.2
_symmetry_space_group_name_H-M    P1
_symmetry_Int_Tables_number       1
_space_group_crystal_system       triclinic
_cell_length_a                    15.844563
_cell_length_b                    15.044271
_cell_length_c                    13.709353
_cell_angle_alpha                 90.48125
_cell_angle_beta                  89.973618
_cell_angle_gamma                 89.736677
_cell_volume                      3267.74690695

loop_
_atom_site_label
_atom_site_type_symbol
_atom_type_description
_atom_site_fract_x
_atom_site_fract_y
_atom_site_fract_z
_atom_type_partial_charge
C1    C     C_R   0.500335 0.328993 0.499492 0.618220
C2    C     C_R   0.500156 0.046947 0.501964 -0.078101
C3    C     C_R   0.423348 0.906764 0.499435 -0.029086
C4    C     C_R   0.577271 0.093456 0.506350 -0.028189
C5    C     C_R   0.655538 0.953143 0.513648 0.280019
C6    C     C_R   0.345768 0.046607 0.498156 0.266701
C7    C     C_R   0.653547 0.046403 0.510994 -0.111485
C8    C     C_R   0.347036 0.954064 0.498364 -0.100935
C9    C     C_R   0.545827 0.437265 0.792548 0.045373
C10   C     C_R   0.454130 0.562620 0.207243 0.055117
C11   C     C_R   0.454084 0.562342 0.793961 0.031370
C12   C     C_R   0.499572 0.671036 0.500622 0.622054
C13   C     C_R   0.545687 0.437372 0.206022 0.034225
C14   C     C_R   0.452957 0.563567 0.896856 -0.058645
C15   C     C_R   0.546021 0.435331 0.103039 -0.060465
C16   C     C_R   0.339686 0.500034 0.500046 0.576604
C17   C     C_R   0.660306 0.500203 0.499929 0.574629
C18   C     C_R   0.499057 0.498847 0.948137 -0.005395
C19   C     C_R   0.498919 0.499245 0.051735 -0.006318
C20   C     C_R   0.545833 0.434284 0.895756 -0.008018
C21   C     C_R   0.452465 0.564121 0.104077 0.002911
C22   C     C_R   0.407232 0.628263 0.949194 -0.125108
C23   C     C_R   0.499787 0.767355 0.502700 0.002335
C24   C     C_R   0.592396 0.371051 0.050611 -0.116456
C25   C     C_R   0.405773 0.628460 0.052004 0.251740
C26   C     C_R   0.591258 0.368788 0.947863 0.265571
C27   C     C_3   0.971682 0.436262 0.558260 -0.103120
C28   C     C_3   0.028278 0.564878 0.440590 -0.100601
C29   C     C_3   0.028043 0.421159 0.467260 -0.103055
C30   C     C_3   0.971917 0.579985 0.531606 -0.094342
C31   C     C_1   0.249936 0.499836 0.500265 -0.032349
C32   C     C_1   0.750046 0.500942 0.499552 -0.025236
C33   C     C_3   0.027799 0.515143 0.590696 -0.096785
C34   C     C_R   0.500570 0.232737 0.497743 -0.004666
C35   C     C_3   0.972129 0.485988 0.408174 -0.099230
C36   C     C_3   0.082616 0.500045 0.499699 0.050269
C37   C     C_3   0.917343 0.501111 0.499197 0.051785
C38   C     C_1   0.174315 0.499692 0.500127 -0.076588
C39   C     C_1   0.825655 0.501400 0.499282 -0.067751
C40   C     C_R   0.423169 0.813567 0.496301 0.193922
C41   C     C_R   0.577298 0.186733 0.505149 0.192810
C42   C     C_3   0.277455 0.674440 0.107875 -0.025089
C43   C     C_3   0.227044 0.758645 0.129309 -0.373567
C44   C     C_3   0.587508 0.233501 0.870101 -0.016096
C45   C     C_R   0.576369 0.812183 0.516459 0.223271
C46   C     C_3   0.588702 0.160470 0.946553 -0.388544
C47   C     C_3   0.317661 0.751113 0.405214 -0.012899
C48   C     C_3   0.223112 0.734246 0.409803 -0.384975
C49   C     C_3   0.686899 0.251549 0.424343 -0.022453
C50   C     C_3   0.781610 0.264933 0.434936 -0.375321
C51   C     C_3   0.659937 0.760259 0.638216 0.021141
C52   C     C_3   0.738877 0.706685 0.661644 -0.352248
C53   C     C_3   0.335092 0.237492 0.369112 0.029100
C54   C     C_3   0.250430 0.282184 0.350492 -0.349972
C55   C     C_3   0.793031 0.941484 0.571905 -0.126252
C56   C     C_R   0.424004 0.187510 0.486675 0.200528
C57   C     C_3   0.239673 0.098602 0.593938 -0.095930
C58   C     C_R   0.578372 0.905944 0.510937 0.027326
C59   C     C_R   0.422532 0.094098 0.495203 0.014358
C60   C     C_R   0.500742 0.953190 0.503869 -0.079453
Cu1   Cu    Cu3+1 0.500010 0.499990 0.597420 0.971482
Cu2   Cu    Cu3+1 0.499990 0.500010 0.402580 0.943150
H1    H     H_    0.052540 0.356005 0.440876 0.101131
H2    H     H_    0.287172 0.919653 0.497624 0.162541
H3    H     H_    0.582215 0.389418 0.750620 0.166899
H4    H     H_    0.418639 0.611293 0.248787 0.143543
H5    H     H_    0.418381 0.611351 0.753672 0.130951
H6    H     H_    0.581794 0.388716 0.246319 0.106110
H7    H     H_    0.268086 0.626948 0.168673 0.122074
H8    H     H_    0.251801 0.644623 0.039252 0.123069
H9    H     H_    0.159780 0.741765 0.141891 0.093748
H10   H     H_    0.252275 0.792719 0.195106 0.154938
H11   H     H_    0.231256 0.804518 0.066458 0.155659
H12   H     H_    0.947410 0.645136 0.557985 0.103583
H13   H     H_    0.613824 0.205499 0.801244 0.165911
H14   H     H_    0.520954 0.253029 0.853751 0.112866
H15   H     H_    0.557404 0.183967 0.014531 0.135686
H16   H     H_    0.554280 0.101429 0.918514 0.103554
H17   H     H_    0.654790 0.140885 0.963112 0.164333
H18   H     H_    0.348855 0.690846 0.374875 0.160872
H19   H     H_    0.328536 0.807834 0.354859 0.128223
H20   H     H_    0.189175 0.796731 0.428942 0.142419
H21   H     H_    0.200033 0.709557 0.338197 0.090498
H22   H     H_    0.209046 0.683805 0.465952 0.172998
H23   H     H_    0.372571 0.679247 0.910490 0.117307
H24   H     H_    0.658631 0.313646 0.395497 0.153257
H25   H     H_    0.676901 0.196907 0.369978 0.114945
H26   H     H_    0.812619 0.201241 0.454658 0.137294
H27   H     H_    0.808525 0.288552 0.365034 0.098850
H28   H     H_    0.794779 0.314700 0.493021 0.171569
H29   H     H_    0.605355 0.728243 0.674770 0.134647
H30   H     H_    0.667745 0.828200 0.669596 0.128332
H31   H     H_    0.794115 0.733740 0.622110 0.162514
H32   H     H_    0.751462 0.709698 0.741269 0.087002
H33   H     H_    0.729902 0.636279 0.639971 0.167685
H34   H     H_    0.629388 0.321935 0.089342 0.113655
H35   H     H_    0.332491 0.169130 0.337304 0.145434
H36   H     H_    0.384838 0.275606 0.330586 0.131610
H37   H     H_    0.252256 0.352305 0.375690 0.156792
H38   H     H_    0.236289 0.280899 0.271174 0.081626
H39   H     H_    0.199579 0.246790 0.389948 0.178152
H40   H     H_    0.840175 0.888666 0.586947 0.135001
H41   H     H_    0.765722 0.962709 0.643369 0.093006
H42   H     H_    0.827454 0.997067 0.537266 0.110324
H43   H     H_    0.179211 0.136063 0.593461 0.136749
H44   H     H_    0.285064 0.136986 0.639596 0.138310
H45   H     H_    0.946950 0.383464 0.606455 0.107451
H46   H     H_    0.227336 0.032598 0.626977 0.095118
H47   H     H_    0.052908 0.617620 0.392258 0.100601
H48   H     H_    0.947809 0.474004 0.333307 0.105986
H49   H     H_    0.052060 0.527074 0.665598 0.106676
H50   H     H_    0.712326 0.082401 0.510045 0.150642
N1    N     N_R   0.499960 0.499930 0.743810 -0.254043
N2    N     N_R   0.500040 0.500070 0.256190 -0.247693
O1    O     O_R   0.500020 0.370250 0.582280 -0.490600
O2    O     O_3   0.639362 0.305368 0.899404 -0.568007
O3    O     O_3   0.347690 0.767562 0.500620 -0.574803
O4    O     O_3   0.652092 0.233037 0.516985 -0.568016
O5    O     O_3   0.648597 0.763092 0.535836 -0.504903
O6    O     O_3   0.350754 0.235865 0.470686 -0.524641
O7    O     O_3   0.731660 0.906687 0.507445 -0.514234
O8    O     O_3   0.268499 0.089612 0.497037 -0.547280
O9    O     O_R   0.499980 0.629750 0.417720 -0.506699
O10   O     O_R   0.500010 0.370270 0.417740 -0.533805
O11   O     O_R   0.499990 0.629730 0.582260 -0.509221
O12   O     O_R   0.379080 0.499980 0.582260 -0.486179
O13   O     O_R   0.620920 0.500020 0.417740 -0.495799
O14   O     O_R   0.379070 0.500000 0.417710 -0.516725
O15   O     O_R   0.620930 0.500000 0.582290 -0.499745
O16   O     O_3   0.363825 0.696273 0.100661 -0.571041

loop_
_geom_bond_atom_site_label_1
_geom_bond_atom_site_label_2
_ccdc_geom_bond_type
C43   H11   S    
C57   H43   S    
C29   H1    S    
C34   C56   A    
C43   H10   S    
C23   C45   A    
C5    O7    S    
C27   C29   S    
C49   H25   S    
C54   H39   S    
Cu2   O10   S    
C53   O6    S    
C53   C54   S    
C27   C33   S    
C16   C31   S    
C15   C19   A    
C12   C23   S    
C5    C58   A    
C35   C37   S    
C24   C26   A    
Cu2   N2    S    
C24   H34   S    
C46   H17   S    
C30   H12   S    
C11   C14   A    
C2    C60   A    
C22   H23   S    
C4    C41   A    
C58   C60   A    
C23   C40   A    
C55   H41   S    
C42   H8    S    
C33   C36   S    
C7    H50   S    
C52   H33   S    
C18   C19   A    
C32   C39   T    
C44   H14   S    
C14   C18   A    
C55   O7    S    
C50   H27   S    
C51   H29   S    
C57   O8    S    
C50   H28   S    
C47   C48   S    
C28   C35   S    
C11   H5    S    
C22   C25   A    
Cu1   O1    S    
C51   O5    S    
C52   H32   S    
Cu1   O12   S    
C33   H49   S    
C41   O4    S    
C13   N2    A    
C10   N2    A    
Cu1   O15   S    
C3    C60   A    
C45   O5    S    
C57   H44   S    
C56   O6    S    
C54   H38   S    
C34   C41   A    
C47   H18   S    
C4    C7    A    
C25   O16   S    
C6    C59   A    
Cu2   O9    S    
C44   C46   S    
C1    C34   S    
C9    H3    S    
C10   H4    S    
C10   C21   A    
C55   H40   S    
C45   C58   A    
C17   O15   A    
C51   C52   S    
C3    C8    A    
C5    C7    A    
C2    C59   A    
C17   O13   A    
C6    C8    A    
C12   O11   A    
C53   H35   S    
C55   H42   S    
C42   H7    S    
C48   H22   S    
C30   C37   S    
C44   H13   S    
C2    C4    A    
C51   H30   S    
C9    C20   A    
C49   O4    S    
C29   C36   S    
C27   H45   S    
C52   H31   S    
C42   O16   S    
C16   O14   A    
C28   C36   S    
C35   H48   S    
C8    H2    S    
C15   C24   A    
C3    C40   A    
C13   C15   A    
Cu1   N1    S    
C53   H36   S    
C54   H37   S    
C42   C43   S    
C6    O8    S    
C46   H16   S    
C21   C25   A    
C43   H9    S    
C30   C33   S    
C19   C21   A    
C49   H24   S    
C46   H15   S    
C31   C38   T    
C50   H26   S    
C28   H47   S    
C29   C35   S    
C56   C59   A    
C9    N1    A    
C14   C22   A    
C36   C38   S    
C1    O10   A    
C37   C39   S    
Cu2   O14   S    
Cu2   O13   S    
C12   O9    A    
C20   C26   A    
C27   C37   S    
C28   C30   S    
C48   H20   S    
C40   O3    S    
C18   C20   A    
C47   H19   S    
Cu1   Cu2   S    
C11   N1    A    
C26   O2    S    
C47   O3    S    
C57   H46   S    
C44   O2    S    
C49   C50   S    
C17   C32   S    
C48   H21   S    
Cu1   O11   S    
C1    O1    A    
C16   O12   A    
C13   H6    S    
