data_mof_unit_36186.cif
_audit_creation_date              2012-12-10T17:38:18-0500
_audit_creation_method            fapswitch 2.2
_symmetry_space_group_name_H-M    P1
_symmetry_Int_Tables_number       1
_space_group_crystal_system       triclinic
_cell_length_a                    12.382254
_cell_length_b                    13.348693
_cell_length_c                    19.346746
_cell_angle_alpha                 75.449241
_cell_angle_beta                  101.376013
_cell_angle_gamma                 117.638473
_cell_volume                      2729.84067228

loop_
_atom_site_label
_atom_site_type_symbol
_atom_type_description
_atom_site_fract_x
_atom_site_fract_y
_atom_site_fract_z
_atom_type_partial_charge
C1    C     C_R   0.855136 0.287474 0.505787 0.802090
C2    C     C_R   0.005587 0.505625 0.708717 -0.104306
C3    C     C_R   0.005395 0.506604 0.070654 0.426399
C4    C     C_R   0.006396 0.507520 0.930525 0.431735
C5    C     C_R   0.027794 0.424338 0.200712 -0.122967
C6    C     C_R   0.027449 0.424739 0.272524 -0.177345
C7    C     C_R   0.003616 0.506654 0.291622 -0.058003
C8    C     C_R   0.983217 0.591027 0.237603 -0.015245
C9    C     C_R   0.983493 0.589936 0.165735 -0.175982
C10   C     C_R   0.005172 0.506578 0.146674 0.034757
C11   C     C_R   0.318086 0.947265 0.592191 -0.193124
C12   C     C_R   0.002452 0.502747 0.632192 0.798688
C13   C     C_R   0.229152 0.830997 0.500705 -0.069494
C14   C     C_R   0.793310 0.167270 0.417555 -0.209296
C15   C     C_R   0.692909 0.106469 0.373410 0.023573
C16   C     C_R   0.576434 0.051423 0.397445 -0.196733
C17   C     C_R   0.559955 0.041253 0.469754 0.058339
C18   C     C_R   0.664110 0.103988 0.514425 0.032270
C19   C     C_R   0.443227 0.977043 0.498390 0.049331
C20   C     C_R   0.432501 0.994628 0.565912 0.129212
C21   C     C_R   0.536816 0.050596 0.609976 -0.266975
C22   C     C_R   0.652237 0.097268 0.586652 -0.054162
C23   C     C_R   0.145310 0.712858 0.492071 0.796439
C24   C     C_R   0.339059 0.889363 0.467187 -0.073873
C25   C     C_R   0.216369 0.867474 0.558833 -0.192307
C26   C     C_R   0.777051 0.175493 0.485003 -0.093850
C27   C     C_R   0.303726 0.285257 0.579567 -0.278750
C28   C     C_R   0.769005 0.655455 0.407946 0.089372
C29   C     C_R   0.670891 0.681315 0.378937 -0.266585
C30   C     C_R   0.556371 0.613675 0.405107 -0.019335
C31   C     C_R   0.542252 0.524255 0.465400 -0.060522
C32   C     C_R   0.642372 0.493485 0.489572 0.227700
C33   C     C_R   0.431808 0.460781 0.501639 -0.035741
C34   C     C_R   0.001543 0.502791 0.367718 0.778435
C35   C     C_R   0.408570 0.350701 0.542727 0.141970
C36   C     C_R   0.495684 0.310499 0.553118 -0.283312
C37   C     C_R   0.615709 0.387385 0.540087 -0.021718
C38   C     C_R   0.346089 0.503070 0.502386 0.048268
C39   C     C_R   0.223952 0.331383 0.578427 0.106864
C40   C     C_R   0.047131 0.435253 0.763921 -0.029151
C41   C     C_R   0.047136 0.436998 0.835638 -0.185128
C42   C     C_R   0.006835 0.507775 0.854442 0.024706
C43   C     C_R   0.966759 0.578284 0.800348 -0.182792
C44   C     C_R   0.965688 0.577914 0.728132 -0.032089
Cu1   Cu    Cu3+1 0.098280 0.475420 0.516260 0.971213
Cu2   Cu    Cu3+1 0.901720 0.524580 0.483740 0.974076
H1    H     H_    0.880683 0.221323 0.395481 0.131240
H2    H     H_    0.140910 0.279861 0.604879 0.158540
H3    H     H_    0.476427 0.227232 0.587515 0.156852
H4    H     H_    0.357843 0.587223 0.473259 0.142441
H5    H     H_    0.131936 0.822826 0.584494 0.159598
N1    N     N_R   0.975929 0.581599 0.949549 -0.232460
N2    N     N_R   0.975525 0.581180 0.018264 -0.231629
N3    N     N_R   0.035679 0.432388 0.051651 -0.229408
N4    N     N_R   0.036210 0.432896 0.982928 -0.229945
N5    N     N_R   0.246290 0.438200 0.540910 -0.196001
N6    N     N_R   0.754310 0.561190 0.459520 -0.208440
O1    O     O_R   0.972510 0.318130 0.520450 -0.586586
O2    O     O_R   0.806530 0.359650 0.492990 -0.577063
O3    O     O_R   0.083010 0.479220 0.613590 -0.572705
O4    O     O_R   0.917030 0.520740 0.586130 -0.570426
O5    O     O_R   0.193470 0.640350 0.507010 -0.575343
O6    O     O_R   0.027490 0.681870 0.479550 -0.586615
O7    O     O_R   0.082970 0.479260 0.413870 -0.571202
O8    O     O_R   0.916990 0.520780 0.386410 -0.578364
C45   C     C_1   0.087586 0.357366 0.749767 0.309332
N7    N     N_1   0.120378 0.294793 0.739134 -0.279655
H6    H     H_    0.528540 0.052647 0.664380 0.156837
H7    H     H_    0.309171 0.964885 0.641985 0.141744
C46   C     C_1   0.344086 0.845187 0.407403 0.196174
N8    N     N_1   0.346272 0.809578 0.359299 -0.260646
H8    H     H_    0.500595 0.024294 0.357264 0.159722
C47   C     C_1   0.707604 0.111615 0.300361 0.242573
N9    N     N_1   0.719544 0.115877 0.241696 -0.258822
C48   C     C_1   0.757061 0.128205 0.639449 0.254273
N10   N     N_1   0.840825 0.152164 0.681822 -0.258616
H9    H     H_    0.285135 0.200016 0.610570 0.144714
H10   H     H_    0.078576 0.382135 0.877035 0.163316
H11   H     H_    0.856073 0.707181 0.385907 0.162302
C49   C     C_1   0.452056 0.621408 0.359592 0.247701
N11   N     N_1   0.368233 0.625673 0.322341 -0.238152
H12   H     H_    0.682935 0.750669 0.333180 0.166001
C50   C     C_1   0.694242 0.364800 0.600512 0.336305
N12   N     N_1   0.747713 0.339938 0.652652 -0.305664
H13   H     H_    0.935777 0.633904 0.814236 0.163019
C51   C     C_1   0.925062 0.654652 0.675515 0.247440
N13   N     N_1   0.892242 0.715963 0.633494 -0.274794
H14   H     H_    0.045333 0.359279 0.187640 0.163271
H15   H     H_    0.044454 0.359989 0.313256 0.146975
C52   C     C_1   0.969055 0.683726 0.254063 0.258889
N14   N     N_1   0.958373 0.758783 0.266627 -0.295913
H16   H     H_    0.968277 0.655457 0.124709 0.162541

loop_
_geom_bond_atom_site_label_1
_geom_bond_atom_site_label_2
_ccdc_geom_bond_type
Cu1   O3    S    
Cu2   O2    S    
C41   C42   A    
C19   C20   A    
C16   H8    S    
C43   C44   A    
C2    C12   S    
C24   C46   S    
C7    C8    A    
C28   N6    A    
C13   C23   S    
C4    N1    A    
C22   C48   S    
C36   C37   A    
C1    O2    A    
C30   C31   A    
C3    N3    A    
C11   C25   A    
C15   C16   A    
Cu1   O5    S    
C34   O8    A    
C47   N9    T    
C28   H11   S    
C17   C19   A    
C5    H14   S    
C23   O5    A    
C50   N12   T    
Cu1   N5    S    
C2    C44   A    
C16   C17   A    
C18   C26   A    
C31   C33   A    
C46   N8    T    
C9    C10   A    
C30   C49   S    
C23   O6    A    
C45   N7    T    
C40   C45   S    
C21   C22   A    
C13   C25   A    
C32   N6    A    
C44   C51   S    
C9    H16   S    
C11   C20   A    
Cu1   O1    S    
Cu2   O4    S    
C43   H13   S    
Cu2   O8    S    
C27   C39   A    
C41   H10   S    
C51   N13   T    
C8    C9    A    
C27   C35   A    
Cu1   Cu2   S    
C13   C24   A    
C35   C36   A    
C48   N10   T    
C25   H5    S    
C29   C30   A    
C31   C32   A    
C34   O7    A    
C17   C18   A    
C39   N5    A    
C32   C37   A    
C14   C26   A    
C6    C7    A    
C40   C41   A    
C15   C47   S    
C21   H6    S    
C4    N4    A    
C1    C26   S    
C7    C34   S    
C8    C52   S    
C42   C43   A    
N1    N2    A    
N3    N4    A    
C28   C29   A    
C18   C22   A    
C49   N11   T    
C27   H9    S    
C11   H7    S    
C14   H1    S    
C38   H4    S    
C6    H15   S    
Cu1   O7    S    
C33   C38   A    
Cu2   O6    S    
C19   C24   A    
C29   H12   S    
Cu2   N6    S    
C3    C10   S    
C1    O1    A    
C12   O4    A    
C3    N2    A    
C52   N14   T    
C5    C6    A    
C4    C42   S    
C33   C35   A    
C12   O3    A    
C2    C40   A    
C5    C10   A    
C38   N5    A    
C20   C21   A    
C14   C15   A    
C37   C50   S    
C36   H3    S    
C39   H2    S    
