data_mof_unit_52725.cif
_audit_creation_date              2013-03-05T16:44:36-0500
_audit_creation_method            fapswitch 2.2
_symmetry_space_group_name_H-M    P1
_symmetry_Int_Tables_number       1
_space_group_crystal_system       triclinic
_cell_length_a                    27.643306
_cell_length_b                    10.733432
_cell_length_c                    9.916661
_cell_angle_alpha                 89.638955
_cell_angle_beta                  91.274128
_cell_angle_gamma                 91.288546
_cell_volume                      2940.82725039

loop_
_atom_site_label
_atom_site_type_symbol
_atom_site_description
_atom_site_fract_x
_atom_site_fract_y
_atom_site_fract_z
_atom_type_partial_charge
O1    O     O_R   0.500010 0.316790 0.614690 -0.621184
O2    O     O_R   0.500000 0.316760 0.385350 -0.620516
C1    C     C_R   0.500010 0.260428 0.500076 0.906559
O3    O     O_R   0.428760 0.500040 0.614660 -0.621390
O4    O     O_R   0.428750 0.500000 0.385310 -0.619277
C2    C     C_R   0.406166 0.501935 0.498548 0.865375
Zn1   Zn    Zn3+2 0.500000 0.500020 0.653130 1.010890
Zn2   Zn    Zn3+2 0.500000 0.499980 0.346870 1.024414
O5    O     O_R   0.500000 0.683240 0.614650 -0.558011
O6    O     O_R   0.499990 0.683210 0.385310 -0.598773
O7    O     O_R   0.571250 0.500000 0.614690 -0.609410
O8    O     O_R   0.571240 0.499960 0.385340 -0.517750
C3    C     C_R   0.499234 0.739578 0.499324 0.919962
C4    C     C_R   0.593749 0.497241 0.500766 0.920172
C5    C     C_R   0.179106 0.398164 0.443272 0.519498
O9    O     O_2   0.206409 0.300421 0.411839 -0.509012
N1    N     N_R   0.201591 0.509624 0.471269 -0.364638
C6    C     C_R   0.176666 0.615683 0.490656 0.534876
C7    C     C_R   0.279873 0.563091 0.374641 -0.101243
C8    C     C_R   0.330080 0.560281 0.381159 -0.213283
C9    C     C_R   0.326595 0.463394 0.602907 -0.178523
C10   C     C_R   0.276381 0.465820 0.596014 -0.089730
C11   C     C_R   0.253081 0.514547 0.481393 0.304811
C12   C     C_R   0.101513 0.497210 0.458922 -0.117877
C13   C     C_R   0.128201 0.386852 0.444113 -0.072586
C14   C     C_R   0.102931 0.271120 0.427032 -0.028941
C15   C     C_R   0.125922 0.612847 0.482384 -0.138983
C16   C     C_R   0.353618 0.508644 0.494436 -0.014916
H1    H     H_    0.344161 0.423678 0.691177 0.157740
H2    H     H_    0.255469 0.428297 0.678555 0.146014
C17   C     C_R   0.646004 0.483678 0.500028 -0.162702
C18   C     C_R   0.974590 0.370518 0.454092 0.073068
C19   C     C_R   0.973136 0.598636 0.434170 0.005646
C20   C     C_R   0.948459 0.482454 0.444672 0.076447
C21   C     C_R   0.948931 0.257728 0.479038 -0.210525
C22   C     C_R   0.899035 0.255443 0.491086 -0.126489
C23   C     C_R   0.872892 0.364599 0.475097 0.008331
C24   C     C_R   0.897358 0.478351 0.448424 -0.117764
C25   C     C_R   0.870789 0.587957 0.427754 -0.139205
C26   C     C_R   0.820060 0.579774 0.433343 0.586232
N2    N     N_R   0.797637 0.470419 0.470615 -0.330639
C27   C     C_R   0.822724 0.363363 0.489380 0.575386
C28   C     C_R   0.716980 0.400119 0.399186 -0.181173
C29   C     C_R   0.666873 0.404209 0.406180 0.523344
C30   C     C_R   0.675300 0.551768 0.590598 -0.313803
C31   C     C_R   0.725657 0.542057 0.590059 0.014040
C32   C     C_R   0.746478 0.468477 0.489586 0.162416
O10   O     O_2   0.799159 0.256564 0.523289 -0.555302
C33   C     C_R   0.025569 0.375611 0.442764 0.048577
C34   C     C_R   0.050295 0.492159 0.451194 0.077513
C35   C     C_R   0.023989 0.603850 0.452537 0.007775
C36   C     C_R   0.052516 0.267594 0.425167 -0.262177
H3    H     H_    0.733116 0.344697 0.321860 0.181378
H4    H     H_    0.881028 0.167540 0.513810 0.170545
H5    H     H_    0.966714 0.170504 0.496692 0.137820
H6    H     H_    0.034848 0.178104 0.408390 0.159708
O11   O     O_2   0.201316 0.723113 0.516738 -0.485867
C37   C     C_R   0.098967 0.721382 0.499781 0.543898
H7    H     H_    0.350489 0.598035 0.297755 0.170763
H8    H     H_    0.261731 0.600898 0.286077 0.145461
C38   C     C_R   0.946125 0.706131 0.407273 -0.315430
C39   C     C_R   0.895643 0.702098 0.405038 0.557890
O12   O     O_2   0.793069 0.679966 0.403866 -0.493436
C40   C     C_R   0.049013 0.716962 0.478835 -0.310304
H9    H     H_    0.963422 0.794706 0.384327 0.168542
H10   H     H_    0.658757 0.614744 0.659168 0.221196
H11   H     H_    0.030314 0.803181 0.491493 0.159550
C41   C     C_R   0.522957 0.063894 0.604430 -0.024573
C42   C     C_R   0.501977 0.128768 0.497421 -0.163971
C43   C     C_R   0.485037 0.065667 0.382063 -0.270442
H12   H     H_    0.470500 0.115361 0.295413 0.189944
C44   C     C_R   0.482768 0.936882 0.381906 0.479213
C45   C     C_R   0.500202 0.871761 0.496474 -0.179371
C46   C     C_R   0.521783 0.936235 0.604460 0.031408
C47   C     C_3   0.512334 0.928196 0.752831 0.325521
C48   C     C_3   0.513351 0.069936 0.751927 -0.314858
H13   H     H_    0.542550 0.884081 0.810238 0.138849
H14   H     H_    0.477564 0.109105 0.772162 0.174096
C49   C     C_R   0.459314 0.465624 0.068716 0.054840
N3    N     N_R   0.499670 0.499140 0.142800 -0.159632
C50   C     C_R   0.537679 0.550920 0.075701 0.511077
C51   C     C_R   0.538549 0.547346 0.931943 -0.141111
N4    N     N_R   0.499670 0.499180 0.857150 -0.147311
C52   C     C_R   0.459144 0.467057 0.926522 0.207055
C53   C     C_3   0.432301 0.345450 0.918693 -0.501381
C54   C     C_3   0.433366 0.342297 0.072260 -0.240545
H15   H     H_    0.395812 0.354843 0.871181 0.209000
H16   H     H_    0.454156 0.272575 0.874030 0.223264
H17   H     H_    0.456300 0.267450 0.115469 0.169267
O13   O     O_3   0.121313 0.834187 0.532030 -0.561200
C55   C     C_3   0.115341 0.856148 0.670815 -0.166278
H18   H     H_    0.128453 0.776989 0.734062 0.147891
H19   H     H_    0.076917 0.875282 0.692828 0.122871
H20   H     H_    0.137277 0.939849 0.700013 0.228193
O14   O     O_3   0.870924 0.810153 0.376915 -0.556243
C56   C     C_3   0.870626 0.883072 0.494735 -0.186653
H21   H     H_    0.856828 0.829054 0.582791 0.169636
H22   H     H_    0.845767 0.961404 0.476887 0.215936
H23   H     H_    0.907259 0.923249 0.518301 0.115279
C57   C     C_2   0.755594 0.609494 0.693951 0.962168
O15   O     O_2   0.739480 0.700023 0.750671 -0.607568
O16   O     O_R   0.801817 0.568329 0.729545 -0.810558
H24   H     H_    0.818455 0.622187 0.801088 0.350221
O17   O     O_3   0.462645 0.876063 0.270871 -0.635761
C58   C     C_3   0.412224 0.864313 0.287538 -0.276416
H25   H     H_    0.403378 0.810700 0.380633 0.161974
H26   H     H_    0.396336 0.811994 0.200557 0.181258
H27   H     H_    0.395145 0.957202 0.288841 0.194004
O18   O     O_3   0.465573 0.878011 0.777186 -0.584746
C59   C     C_3   0.460894 0.855685 0.916498 -0.227823
H28   H     H_    0.468417 0.941679 0.976319 0.172803
H29   H     H_    0.484993 0.779816 0.950819 0.139939
H30   H     H_    0.423107 0.824693 0.935600 0.198026
C60   C     C_2   0.554787 0.128052 0.832699 0.908288
O19   O     O_2   0.596491 0.098062 0.813116 -0.596198
O20   O     O_R   0.545150 0.216761 0.930438 -0.820404
H31   H     H_    0.575588 0.250010 0.977907 0.370272
O21   O     O_3   0.576310 0.601601 0.149055 -0.534732
C61   C     C_3   0.572775 0.732649 0.150239 -0.246564
H32   H     H_    0.535079 0.764283 0.161971 0.178292
H33   H     H_    0.588032 0.774379 0.057300 0.158872
H34   H     H_    0.594510 0.769324 0.237230 0.198236
C62   C     C_2   0.582950 0.594524 0.869053 0.982736
O22   O     O_2   0.581318 0.679869 0.787351 -0.655956
O23   O     O_R   0.627517 0.549912 0.915421 -0.745095
H35   H     H_    0.656056 0.601962 0.883516 0.355142
C63   C     C_2   0.384063 0.348347 0.132861 0.983658
O24   O     O_2   0.373457 0.277512 0.225117 -0.624832
O25   O     O_R   0.350369 0.433297 0.082839 -0.821186
H36   H     H_    0.317992 0.424531 0.128358 0.347710
C64   C     C_2   0.126712 0.149296 0.417815 1.019102
O26   O     O_2   0.154495 0.115315 0.507664 -0.557821
O27   O     O_R   0.115174 0.070630 0.309425 -0.795154
H37   H     H_    0.133442 0.989825 0.313994 0.378152
O28   O     O_3   0.638520 0.336425 0.315055 -0.570235
C65   C     C_3   0.628957 0.217688 0.371333 -0.236409
H38   H     H_    0.610484 0.224284 0.469674 0.144049
H39   H     H_    0.662802 0.164088 0.383681 0.181873
H40   H     H_    0.604279 0.165072 0.301430 0.195932

loop_
_geom_bond_atom_site_label_1
_geom_bond_atom_site_label_2
_geom_bond_distance
_ccdc_geom_bond_type
Zn1   N4    2.023383 S    
C45   C46   1.394236 A    
C21   C22   1.386752 A    
C12   C15   1.417365 A    
C4    C17   1.455248 S    
C47   C48   1.520960 S    
C63   O25   1.398918 S    
C60   O19   1.223862 D    
O28   C65   1.409982 S    
C53   C54   1.522679 S    
Zn1   O7    2.014445 S    
C58   H26   1.109247 S    
N1    C11   1.424489 S    
C26   O12   1.349460 S    
C22   C23   1.396694 A    
C1    C42   1.415865 S    
C48   H14   1.106465 S    
O3    Zn1   1.997579 S    
O4    C2    1.297395 A    
O7    C4    1.302504 A    
C62   O23   1.398940 S    
C41   C46   1.369867 A    
C5    O9    1.348218 S    
C56   H23   1.112270 S    
O20   H31   1.013855 S    
N1    C6    1.360705 A    
N2    C27   1.365036 A    
C23   C27   1.396903 A    
O5    C3    1.290283 A    
C59   H28   1.113503 S    
O21   C61   1.412320 S    
C28   H3    1.083398 S    
C2    C16   1.455648 S    
O14   C56   1.410676 S    
C41   C42   1.388811 A    
C56   H22   1.108673 S    
C48   C60   1.508653 S    
O6    C3    1.286500 A    
C43   H12   1.082982 S    
C38   C39   1.394894 A    
C29   O28   1.382517 S    
C53   H15   1.110156 S    
O1    Zn1   2.005654 S    
C9    C10   1.389065 A    
C37   C40   1.391635 A    
O16   H24   1.013778 S    
C65   H40   1.109697 S    
O17   C58   1.409949 S    
C50   C51   1.427114 A    
C61   H33   1.109730 S    
C12   C34   1.416048 A    
C24   C25   1.412289 A    
C58   H27   1.112967 S    
C47   O18   1.414305 S    
C17   C29   1.408025 A    
C6    C15   1.402974 A    
C21   H5    1.078697 S    
C40   H11   1.079455 S    
C62   O22   1.220043 D    
C52   C53   1.488447 S    
C65   H39   1.113324 S    
C46   C47   1.501672 S    
C55   H18   1.115201 S    
C44   C45   1.411526 A    
C44   O17   1.383286 S    
C13   C14   1.420599 A    
C30   C31   1.398422 A    
C9    H1    1.081418 S    
C50   O21   1.381944 S    
C15   C37   1.410453 A    
O1    C1    1.290919 A    
C18   C20   1.417257 A    
C7    C11   1.396874 A    
C28   C29   1.390081 A    
C18   C21   1.412573 A    
C23   C24   1.408848 A    
C14   C36   1.393026 A    
C55   H19   1.112988 S    
O27   H37   1.013644 S    
C47   H13   1.113200 S    
C6    O11   1.349592 S    
N4    C52   1.364207 A    
Zn2   O8    1.997579 S    
C33   C36   1.405950 A    
C56   H21   1.114742 S    
C57   O16   1.398538 S    
C34   C35   1.416335 A    
N2    C32   1.430474 S    
C27   O10   1.350097 S    
C12   C13   1.419593 A    
C8    H7    1.082977 S    
C37   O13   1.382865 S    
C59   H30   1.109064 S    
O3    C2    1.297937 A    
C26   N2    1.367664 A    
C9    C16   1.401361 A    
C3    C45   1.418540 S    
C51   N4    1.384504 A    
O23   H35   1.011761 S    
C19   C35   1.413384 A    
C64   O26   1.222633 D    
C51   C62   1.467642 S    
C25   C26   1.405409 A    
O25   H36   1.013540 S    
C53   H16   1.100232 S    
Zn1   O5    2.000896 S    
C25   C39   1.410404 A    
C31   C57   1.488187 S    
C31   C32   1.415485 A    
C10   H2    1.082947 S    
C54   C63   1.504589 S    
C20   C24   1.413626 A    
Zn2   O6    2.005653 S    
O2    Zn2   2.000897 S    
C35   C40   1.406668 A    
O8    C4    1.291099 A    
N3    C50   1.362259 A    
C64   O27   1.397886 S    
C54   H17   1.112380 S    
O4    Zn2   2.014447 S    
C60   O20   1.396964 S    
C61   H32   1.111965 S    
C5    N1    1.362989 A    
C7    H8    1.082867 S    
C41   C48   1.494454 S    
C8    C16   1.402955 A    
C58   H25   1.113665 S    
C7    C8    1.388947 A    
O2    C1    1.285018 A    
O18   C59   1.408939 S    
C55   H20   1.108886 S    
O13   C55   1.411708 S    
C49   C52   1.409981 A    
C36   H6    1.079873 S    
C57   O15   1.223303 D    
C61   H34   1.109380 S    
C19   C20   1.412274 A    
C42   C43   1.399410 A    
C59   H29   1.110674 S    
C18   C33   1.415965 A    
C22   H4    1.081637 S    
C49   N3    1.364740 A    
C38   H9    1.079776 S    
C5    C13   1.409888 A    
C19   C38   1.409207 A    
C33   C34   1.413998 A    
C17   C30   1.394968 A    
C30   H10   1.077919 S    
Zn2   N3    2.023587 S    
C10   C11   1.398378 A    
C65   H38   1.114215 S    
C43   C44   1.382328 A    
C39   O14   1.383089 S    
C28   C32   1.398492 A    
C49   C54   1.491896 S    
C14   C64   1.480917 S    
C63   O24   1.222351 D    
