data_mof_unit_11445.cif
_audit_creation_date              2012-12-10T18:04:04-0500
_audit_creation_method            fapswitch 2.2
_symmetry_space_group_name_H-M    P1
_symmetry_Int_Tables_number       1
_space_group_crystal_system       triclinic
_cell_length_a                    10.861259
_cell_length_b                    9.647057
_cell_length_c                    11.082631
_cell_angle_alpha                 89.927489
_cell_angle_beta                  97.577009
_cell_angle_gamma                 90.063928
_cell_volume                      1151.08835533

loop_
_atom_site_label
_atom_site_type_symbol
_atom_type_description
_atom_site_fract_x
_atom_site_fract_y
_atom_site_fract_z
_atom_type_partial_charge
C1    C     C_R   0.263542 0.499988 0.508207 0.830509
C2    C     C_R   0.736448 0.500502 0.491592 0.835022
C3    C     C_R   0.409720 0.074860 0.429123 0.027114
C4    C     C_R   0.593114 0.074492 0.567651 0.026064
C5    C     C_R   0.405100 0.927383 0.434934 0.232484
C6    C     C_R   0.595834 0.926659 0.564037 0.245288
C7    C     C_R   0.494140 0.500540 0.261819 0.811833
C8    C     C_R   0.502501 0.499896 0.737849 0.830068
C9    C     C_R   0.444812 0.615407 0.052716 -0.001498
C10   C     C_R   0.464617 0.617022 0.931032 -0.003049
C11   C     C_R   0.482900 0.499941 0.127080 -0.080674
C12   C     C_R   0.498148 0.498853 0.870622 -0.078058
C13   C     C_R   0.509904 0.377126 0.065982 -0.154013
C14   C     C_R   0.512896 0.375526 0.939296 -0.131789
C15   C     C_3   0.516176 0.760959 0.942582 0.210990
C16   C     C_3   0.454777 0.771166 0.058343 0.217287
C17   C     C_R   0.063090 0.375801 0.499384 -0.141312
C18   C     C_R   0.934600 0.376782 0.485475 -0.184857
C19   C     C_R   0.870191 0.502199 0.484189 -0.138873
C20   C     C_R   0.129767 0.500211 0.514975 -0.138355
C21   C     C_R   0.937404 0.627379 0.488125 0.176348
C22   C     C_R   0.064792 0.624965 0.523944 0.158927
Cu1   Cu    Cu3+1 0.500000 0.640660 0.500000 1.056772
Cu2   Cu    Cu3+1 0.500000 0.359340 0.500000 1.023492
H1    H     H_    0.533946 0.282660 0.116318 0.223103
H2    H     H_    0.532506 0.278655 0.896947 0.227100
H3    H     H_    0.109562 0.277151 0.501302 0.236166
H4    H     H_    0.885863 0.279576 0.471527 0.234007
N1    N     N_R   0.500000 0.852070 0.500000 -0.208777
N2    N     N_R   0.500000 0.147940 0.500000 -0.274076
O1    O     O_R   0.319640 0.618740 0.499990 -0.550052
O2    O     O_R   0.680360 0.618740 0.500010 -0.547193
O3    O     O_R   0.319620 0.381170 0.499990 -0.585978
O4    O     O_R   0.680380 0.381170 0.500010 -0.592737
O5    O     O_R   0.499990 0.618810 0.319660 -0.553139
O6    O     O_R   0.500010 0.618810 0.680340 -0.554574
O7    O     O_R   0.499960 0.381240 0.319650 -0.573497
O8    O     O_R   0.500040 0.381240 0.680350 -0.557940
I1    I     I_    0.717635 0.740497 0.980575 -0.189385
I2    I     I_    0.264568 0.847360 0.021719 -0.170268
I3    I     I_    0.457423 0.917036 0.808640 -0.228858
I4    I     I_    0.560241 0.892897 0.198259 -0.208241
I5    I     I_    0.868505 0.806847 0.389288 -0.149724
I6    I     I_    0.141303 0.795675 0.630995 -0.178427
C23   C     C_2   0.323102 0.147071 0.336301 0.948550
O9    O     O_2   0.216610 0.169277 0.354326 -0.595514
O10   O     O_R   0.358417 0.173338 0.221913 -0.742634
H5    H     H_    0.289565 0.217538 0.163851 0.343627
C24   C     C_2   0.691836 0.146841 0.648099 0.941453
O11   O     O_2   0.668727 0.201018 0.741773 -0.583662
O12   O     O_R   0.814602 0.138596 0.624360 -0.757116
H6    H     H_    0.874897 0.185749 0.689222 0.346026
I7    I     I_    0.247914 0.832555 0.331010 -0.168107
I8    I     I_    0.745594 0.828849 0.678212 -0.159853

loop_
_geom_bond_atom_site_label_1
_geom_bond_atom_site_label_2
_ccdc_geom_bond_type
C3    N2    A    
Cu2   O8    S    
Cu1   Cu2   S    
C16   I4    S    
C11   C13   A    
C9    C10   A    
Cu1   O5    S    
Cu2   O3    S    
C4    C24   S    
C8    C12   S    
C15   I1    S    
Cu1   O2    S    
C2    O4    A    
C17   C18   A    
C7    O7    A    
C1    O3    A    
C21   I5    S    
C13   C14   A    
C14   H2    S    
C7    C11   S    
C9    C11   A    
C13   H1    S    
C8    O8    A    
C16   I2    S    
Cu1   N1    S    
C4    C6    A    
C19   C21   A    
C9    C16   S    
C20   C22   A    
C6    I8    S    
C5    N1    A    
C10   C15   S    
C23   O10   S    
C10   C12   A    
Cu2   N2    S    
C15   C16   S    
C17   H3    S    
O10   H5    S    
C23   O9    D    
C1    O1    A    
C6    N1    A    
C18   H4    S    
C15   I3    S    
C2    O2    A    
Cu1   O6    S    
C8    O6    A    
C5    I7    S    
Cu2   O7    S    
C24   O11   D    
C18   C19   A    
C1    C20   S    
C22   I6    S    
C24   O12   S    
C2    C19   S    
C21   C22   A    
C7    O5    A    
C17   C20   A    
C3    C23   S    
C4    N2    A    
O12   H6    S    
C12   C14   A    
C3    C5    A    
Cu1   O1    S    
Cu2   O4    S    
