data_mof_unit_37045.cif
_audit_creation_date              2012-12-10T17:00:41-0500
_audit_creation_method            fapswitch 2.2
_symmetry_space_group_name_H-M    P1
_symmetry_Int_Tables_number       1
_space_group_crystal_system       triclinic
_cell_length_a                    27.823073
_cell_length_b                    10.912585
_cell_length_c                    9.70307
_cell_angle_alpha                 90.212246
_cell_angle_beta                  90.461225
_cell_angle_gamma                 89.652224
_cell_volume                      2945.89270761

loop_
_atom_site_label
_atom_site_type_symbol
_atom_type_description
_atom_site_fract_x
_atom_site_fract_y
_atom_site_fract_z
_atom_type_partial_charge
C1    C     C_R   0.499248 0.265404 0.499861 0.837237
C2    C     C_R   0.277181 0.439326 0.399633 -0.190132
C3    C     C_R   0.253435 0.492559 0.511543 0.281915
C4    C     C_R   0.101760 0.488860 0.506323 -0.137330
C5    C     C_R   0.127788 0.378251 0.528432 -0.112460
C6    C     C_R   0.102140 0.266459 0.542008 0.210962
C7    C     C_R   0.126757 0.600379 0.485454 -0.044275
C8    C     C_R   0.354436 0.496185 0.498851 -0.123688
C9    C     C_R   0.645480 0.496470 0.502023 -0.076239
C10   C     C_R   0.974963 0.385400 0.555188 0.025045
C11   C     C_R   0.973877 0.594989 0.465474 0.071969
C12   C     C_R   0.407486 0.498336 0.499262 0.810880
C13   C     C_R   0.949086 0.490202 0.511665 0.059147
C14   C     C_R   0.949770 0.293058 0.624903 -0.233823
C15   C     C_R   0.899651 0.294500 0.634223 0.261635
C16   C     C_R   0.873059 0.390714 0.572112 -0.060986
C17   C     C_R   0.898094 0.490540 0.515061 -0.103067
C18   C     C_R   0.872190 0.591294 0.461623 -0.011857
C19   C     C_R   0.821884 0.589391 0.461500 0.579305
C20   C     C_R   0.822289 0.391518 0.565345 0.525454
C21   C     C_R   0.721453 0.484624 0.378900 0.306765
C22   C     C_R   0.671101 0.489827 0.377984 -0.272776
C23   C     C_R   0.500537 0.734647 0.500257 0.857082
C24   C     C_R   0.670836 0.498942 0.627679 -0.198598
C25   C     C_R   0.720856 0.495467 0.629386 -0.163900
C26   C     C_R   0.746455 0.488692 0.505899 0.330905
C27   C     C_R   0.025555 0.379116 0.534803 -0.027711
C28   C     C_R   0.050672 0.488501 0.505900 0.015453
C29   C     C_R   0.024759 0.597769 0.476015 0.033841
C30   C     C_R   0.051545 0.266777 0.538285 0.213264
C31   C     C_R   0.100366 0.709801 0.462301 0.265601
C32   C     C_R   0.946823 0.693717 0.410697 -0.218818
C33   C     C_R   0.896940 0.691492 0.408536 -0.146847
C34   C     C_R   0.592517 0.499338 0.500537 0.825762
C35   C     C_R   0.050372 0.707223 0.459211 -0.277700
C36   C     C_2   0.497875 0.932619 0.386903 -0.147565
C37   C     C_2   0.502884 0.866730 0.502488 -0.303365
C38   C     C_2   0.500040 0.066635 0.386414 -0.153992
C39   C     C_2   0.496322 0.133480 0.501844 -0.314883
C40   C     C_2   0.488402 0.406511 0.923978 -0.003974
C41   C     C_2   0.498570 0.401523 0.076298 -0.058485
C42   C     C_R   0.178641 0.383827 0.533166 0.533131
C43   C     C_R   0.177421 0.598852 0.490122 0.588079
C44   C     C_R   0.280059 0.547003 0.619011 0.312802
C45   C     C_R   0.330268 0.548953 0.611344 -0.332482
C46   C     C_R   0.327241 0.440007 0.391766 0.217006
Cu1   Cu    Cu3+1 0.500010 0.500020 0.638630 0.996687
Cu2   Cu    Cu3+1 0.499990 0.499980 0.361370 0.955637
H1    H     H_    0.963285 0.772560 0.364355 0.135633
H2    H     H_    0.652078 0.504127 0.724898 0.188565
H3    H     H_    0.877822 0.769131 0.364865 0.185149
H4    H     H_    0.739914 0.499066 0.727074 0.153821
H5    H     H_    0.032311 0.794277 0.446682 0.138839
H6    H     H_    0.492842 0.887433 0.287918 0.173686
H7    H     H_    0.509874 0.908146 0.602055 0.157441
H8    H     H_    0.504204 0.110891 0.287156 0.160721
H9    H     H_    0.256360 0.397165 0.317560 0.160972
H10   H     H_    0.490003 0.092849 0.601547 0.148783
H11   H     H_    0.471881 0.327010 0.876439 0.117857
H12   H     H_    0.503013 0.312273 0.123314 0.145030
H13   H     H_    0.485240 0.576948 0.109833 0.230517
H14   H     H_    0.652103 0.487257 0.280122 0.173378
H15   H     H_    0.968783 0.221716 0.680191 0.167642
H16   H     H_    0.350486 0.591927 0.694130 0.171294
N1    N     N_R   0.201789 0.492145 0.513433 -0.448871
N2    N     N_R   0.798082 0.489656 0.510452 -0.462935
N3    N     N_2   0.499480 0.498660 0.846910 -0.093518
N4    N     N_2   0.499460 0.498630 0.153040 -0.265129
O1    O     O_R   0.500010 0.321960 0.617040 -0.589468
O2    O     O_2   0.797128 0.294169 0.609504 -0.501581
O3    O     O_2   0.202585 0.702635 0.471210 -0.506216
O4    O     O_2   0.796824 0.686626 0.413050 -0.530054
O5    O     O_R   0.499990 0.321920 0.382900 -0.587371
O6    O     O_R   0.430270 0.500040 0.617060 -0.579804
O7    O     O_R   0.430260 0.500000 0.382910 -0.587549
O8    O     O_R   0.500010 0.678080 0.617100 -0.552289
O9    O     O_R   0.499990 0.678040 0.382960 -0.578815
O10   O     O_R   0.569740 0.500000 0.617090 -0.554985
O11   O     O_R   0.569730 0.499960 0.382940 -0.564186
O12   O     O_2   0.205372 0.283099 0.559298 -0.557941
N5    N     N_2   0.348779 0.381190 0.276504 -0.434307
H17   H     H_    0.371810 0.434455 0.220157 0.273668
C47   C     C_3   0.365914 0.257891 0.301852 -0.634848
H18   H     H_    0.379351 0.217259 0.204308 0.215819
H19   H     H_    0.336183 0.200030 0.340255 0.241945
H20   H     H_    0.395711 0.258347 0.378667 0.218243
N6    N     N_2   0.256444 0.601874 0.733436 -0.406531
H21   H     H_    0.274713 0.675319 0.775256 0.255061
C48   C     C_3   0.241708 0.516089 0.837986 -0.670255
H22   H     H_    0.222184 0.565950 0.920541 0.223948
H23   H     H_    0.273677 0.469909 0.884189 0.225208
H24   H     H_    0.217197 0.446185 0.793748 0.250043
N7    N     N_2   0.123419 0.824541 0.443249 -0.376027
H25   H     H_    0.107580 0.894964 0.498009 0.254416
C49   C     C_3   0.130066 0.857009 0.300282 -0.610651
H26   H     H_    0.150959 0.943165 0.294328 0.224503
H27   H     H_    0.094681 0.871542 0.248667 0.192667
H28   H     H_    0.150265 0.783712 0.245431 0.243475
I1    I     I_    0.552225 0.624193 0.911571 -0.306010
N8    N     N_2   0.125906 0.150622 0.550384 -0.427145
H29   H     H_    0.152261 0.133287 0.478822 0.295622
C50   C     C_3   0.135625 0.107298 0.688808 -0.632431
H30   H     H_    0.152380 0.014806 0.684176 0.236532
H31   H     H_    0.101725 0.100876 0.747904 0.199347
H32   H     H_    0.160412 0.170189 0.744137 0.258698
N9    N     N_2   0.746797 0.478137 0.252171 -0.413580
H33   H     H_    0.728761 0.518315 0.170556 0.259387
C51   C     C_3   0.764719 0.357303 0.217479 -0.663025
H34   H     H_    0.785366 0.361814 0.120166 0.224372
H35   H     H_    0.734305 0.292852 0.202801 0.230286
H36   H     H_    0.789084 0.322199 0.299523 0.248819
N10   N     N_2   0.876778 0.199953 0.709716 -0.367118
H37   H     H_    0.893497 0.115629 0.701092 0.247222
C52   C     C_3   0.867147 0.231869 0.851774 -0.615807
H38   H     H_    0.846776 0.156839 0.901010 0.231518
H39   H     H_    0.845213 0.317142 0.857798 0.238395
H40   H     H_    0.901435 0.245158 0.909363 0.195008
N11   N     N_2   0.027060 0.153055 0.520188 -0.439151
H41   H     H_    0.041348 0.079460 0.572979 0.266088
C53   C     C_3   0.015234 0.123550 0.378574 -0.687427
H42   H     H_    0.993922 0.037863 0.374972 0.217041
H43   H     H_    0.048627 0.109545 0.318245 0.225703
H44   H     H_    0.993365 0.198157 0.331417 0.242047

loop_
_geom_bond_atom_site_label_1
_geom_bond_atom_site_label_2
_ccdc_geom_bond_type
C10   C27   A    
N6    H21   S    
C42   O12   S    
N7    H25   S    
C12   O6    A    
C35   H5    S    
C49   H26   S    
C23   O8    A    
C21   C26   A    
N10   C52   S    
C52   H38   S    
C49   H28   S    
C2    C46   A    
C50   H32   S    
Cu2   O11   S    
C20   N2    A    
C28   C29   A    
Cu1   O8    S    
C5    C6    A    
C9    C22   A    
N9    H33   S    
C15   C16   A    
C51   H34   S    
C19   N2    A    
C18   C19   A    
N11   H41   S    
Cu1   O1    S    
C4    C28   A    
C8    C45   A    
Cu1   Cu2   S    
C16   C17   A    
C40   N3    D    
C42   N1    A    
C7    C43   A    
C8    C12   S    
C48   H23   S    
C44   N6    S    
C21   N9    S    
C53   H44   S    
C43   N1    A    
N7    C49   S    
C40   H11   S    
C21   C22   A    
C27   C30   A    
Cu2   O7    S    
C20   O2    S    
C19   O4    S    
C3    N1    S    
C4    C7    A    
Cu2   O5    S    
Cu1   N3    S    
N10   H37   S    
N5    C47   S    
C53   H43   S    
N5    H17   S    
C41   N4    D    
N11   C53   S    
C24   H2    S    
C3    C44   A    
C2    H9    S    
C7    C31   A    
C26   N2    S    
C24   C25   A    
C41   H12   S    
C10   C14   A    
C30   N11   S    
C25   C26   A    
C23   C37   S    
C39   H10   S    
C1    O1    A    
C6    N8    S    
Cu2   O9    S    
C34   O11   A    
C22   H14   S    
C46   N5    S    
C47   H18   S    
C16   C20   A    
N8    C50   S    
C17   C18   A    
C23   O9    A    
C48   H24   S    
C50   H31   S    
C40   C41   S    
C47   H19   S    
C11   C32   A    
N6    C48   S    
C9    C34   S    
C31   C35   A    
C53   H42   S    
C5    C42   A    
C36   C37   D    
C43   O3    S    
C6    C30   A    
C15   N10   S    
C44   C45   A    
Cu1   O6    S    
C4    C5    A    
Cu2   N4    S    
C10   C13   A    
C52   H39   S    
C49   H27   S    
C9    C24   A    
N3    I1    S    
C33   H3    S    
C29   C35   A    
C45   H16   S    
C51   H36   S    
C13   C17   A    
C1    O5    A    
C32   C33   A    
C36   C38   S    
C2    C3    A    
C25   H4    S    
C31   N7    S    
C34   O10   A    
C11   C13   A    
H13   N4    S    
C38   C39   D    
N9    C51   S    
C14   H15   S    
N8    H29   S    
C51   H35   S    
C50   H30   S    
C18   C33   A    
C8    C46   A    
C32   H1    S    
C52   H40   S    
C36   H6    S    
C1    C39   S    
C37   H7    S    
C47   H20   S    
C38   H8    S    
C11   C29   A    
C12   O7    A    
C27   C28   A    
C14   C15   A    
Cu1   O10   S    
C48   H22   S    
