data_mof_unit_14744.cif
_audit_creation_date              2013-03-05T15:44:58-0500
_audit_creation_method            fapswitch 2.2
_symmetry_space_group_name_H-M    P1
_symmetry_Int_Tables_number       1
_space_group_crystal_system       triclinic
_cell_length_a                    11.07648
_cell_length_b                    11.302869
_cell_length_c                    18.81376
_cell_angle_alpha                 91.165573
_cell_angle_beta                  88.700638
_cell_angle_gamma                 120.608236
_cell_volume                      2026.59872052

loop_
_atom_site_label
_atom_site_type_symbol
_atom_site_description
_atom_site_fract_x
_atom_site_fract_y
_atom_site_fract_z
_atom_type_partial_charge
O1    O     O_R   0.766500 0.250040 0.579790 -0.489624
O2    O     O_R   0.798570 0.516780 0.574780 -0.477698
C1    C     C_R   0.863176 0.636941 0.603357 0.594556
O3    O     O_R   0.984000 0.732950 0.581090 -0.434474
O4    O     O_R   0.218600 0.700890 0.574760 -0.452732
C2    C     C_R   0.262818 0.629857 0.605703 0.576499
O5    O     O_R   0.249390 0.515350 0.579940 -0.482059
O6    O     O_R   0.982790 0.280900 0.573700 -0.514802
C3    C     C_R   0.859588 0.223702 0.601585 0.510458
O7    O     O_R   0.766600 0.251130 0.419260 -0.468265
O8    O     O_R   0.798660 0.517790 0.425980 -0.524622
C4    C     C_R   0.865346 0.635330 0.397266 0.603771
O9    O     O_R   0.984100 0.734040 0.420570 -0.481047
O10   O     O_R   0.218690 0.701900 0.425960 -0.548970
C5    C     C_R   0.261640 0.629924 0.395036 0.603247
O11   O     O_R   0.249490 0.516440 0.419420 -0.468019
O12   O     O_R   0.982880 0.281910 0.424890 -0.540092
C6    C     C_R   0.865538 0.230596 0.395739 0.608536
Cr1   Cr    Cr6+3 0.791660 0.390250 0.499930 1.084355
Cr2   Cr    Cr6+3 0.098520 0.708290 0.500540 1.114025
Cr3   Cr    Cr6+3 0.109770 0.401430 0.499480 1.063261
O13   O     O_3   0.999980 0.499990 0.499980 -0.313526
C7    C     C_R   0.255912 0.739672 0.725184 -0.030332
C8    C     C_R   0.278126 0.748938 0.799582 -0.065334
C9    C     C_R   0.329026 0.670290 0.828024 0.030771
C10   C     C_R   0.342232 0.575654 0.784352 0.025191
C11   C     C_R   0.367746 0.601002 0.712322 0.013514
C12   C     C_R   0.307336 0.668946 0.680279 0.035985
C13   C     C_R   0.856817 0.156564 0.819383 0.037910
C14   C     C_R   0.058953 0.118995 0.806468 -0.095564
C15   C     C_R   0.164563 0.120937 0.764668 -0.104544
C16   C     C_R   0.167313 0.134782 0.691512 0.143917
C17   C     C_R   0.048381 0.120402 0.657567 0.043813
C18   C     C_R   0.947136 0.136276 0.699818 -0.060343
C19   C     C_R   0.954692 0.137549 0.776281 -0.010094
H1    H     H_    0.254196 0.128848 0.790677 0.112564
H2    H     H_    0.073861 0.121802 0.862884 0.187406
C20   C     C_R   0.726292 0.131797 0.714513 -0.026817
C21   C     C_R   0.763729 0.183441 0.783813 -0.000121
C22   C     C_R   0.584164 0.076445 0.694705 0.158853
C23   C     C_R   0.491921 0.086767 0.743587 -0.031793
C24   C     C_R   0.541510 0.165629 0.805530 -0.156325
C25   C     C_R   0.683808 0.230248 0.820706 0.028195
C26   C     C_R   0.835745 0.146627 0.669000 -0.080516
H3    H     H_    0.383360 0.042491 0.731694 0.185360
H4    H     H_    0.470117 0.178784 0.840368 0.082836
C27   C     C_R   0.749647 0.544501 0.720997 -0.039936
C28   C     C_R   0.710275 0.564109 0.789207 0.100832
C29   C     C_R   0.770734 0.699883 0.814229 0.039739
C30   C     C_R   0.794768 0.798677 0.763586 -0.201250
H5    H     H_    0.786372 0.885506 0.780425 0.097253
C31   C     C_R   0.799929 0.769599 0.690858 -0.009132
C32   C     C_R   0.807750 0.653165 0.672535 -0.000806
C33   C     C_R   0.406873 0.642194 0.296034 0.126650
C34   C     C_R   0.429233 0.648585 0.223361 0.119871
C35   C     C_R   0.355440 0.686232 0.177685 0.019469
C36   C     C_R   0.262563 0.723187 0.205307 -0.141253
H6    H     H_    0.215642 0.762283 0.169698 0.189252
C37   C     C_R   0.253301 0.734731 0.279142 -0.061197
C38   C     C_R   0.311769 0.675007 0.323482 0.022651
C39   C     C_R   0.723698 0.088139 0.297902 -0.015653
C40   C     C_R   0.706126 0.092897 0.225085 -0.030039
C41   C     C_R   0.825373 0.148817 0.178045 0.013770
C42   C     C_R   0.961289 0.218534 0.205561 0.075496
C43   C     C_R   0.978694 0.223700 0.279626 -0.014081
C44   C     C_R   0.857266 0.169371 0.325290 -0.013471
C45   C     C_R   0.876236 0.777206 0.298405 0.002896
C46   C     C_R   0.884752 0.791960 0.224829 0.075779
C47   C     C_R   0.823348 0.674290 0.178782 0.041323
C48   C     C_R   0.754806 0.541773 0.207657 -0.046846
C49   C     C_R   0.742418 0.527655 0.282457 -0.075828
C50   C     C_R   0.817890 0.646330 0.326744 -0.036717
O14   O     O_R   0.895110 0.806860 0.920430 -0.505700
O15   O     O_R   0.872260 0.046970 0.925000 -0.536759
C51   C     C_R   0.810024 0.101061 0.893895 0.558904
O16   O     O_R   0.691430 0.085060 0.918550 -0.516880
O17   O     O_R   0.451490 0.822460 0.925250 -0.516622
C52   C     C_R   0.393340 0.698311 0.898171 0.559396
O18   O     O_R   0.413330 0.603360 0.920440 -0.467112
O19   O     O_R   0.676110 0.626250 0.926750 -0.482577
C53   C     C_R   0.771420 0.730544 0.890611 0.571113
O20   O     O_R   0.895350 0.809870 0.080950 -0.466203
O21   O     O_R   0.872490 0.049760 0.073800 -0.505880
C54   C     C_R   0.803600 0.103578 0.103436 0.563157
O22   O     O_R   0.691680 0.088070 0.079070 -0.440524
O23   O     O_R   0.451720 0.825250 0.074050 -0.501748
C55   C     C_R   0.395936 0.703702 0.103208 0.557953
O24   O     O_R   0.413580 0.606370 0.080960 -0.461316
O25   O     O_R   0.676340 0.629040 0.075550 -0.474083
C56   C     C_R   0.799454 0.697285 0.104640 0.625254
Cr4   Cr    Cr6+3 0.874790 0.925890 0.000070 1.041858
Cr5   Cr    Cr6+3 0.574120 0.948670 0.999300 1.065614
Cr6   Cr    Cr6+3 0.551420 0.625320 0.000920 1.077418
O26   O     O_3   0.666780 0.833290 0.000090 -0.315497
C57   C     C_2   0.168479 0.791954 0.698283 0.243645
H7    H     H_    0.066505 0.757980 0.722317 0.101085
O27   O     O_2   0.212985 0.879819 0.652816 -0.483540
N1    N     N_3   0.527768 0.001687 0.629445 -0.573443
H8    H     H_    0.498269 0.058473 0.598625 0.286335
H9    H     H_    0.602044 0.990019 0.600073 0.246972
C58   C     C_2   0.713478 0.408138 0.697248 0.259224
H10   H     H_    0.793332 0.381016 0.699578 0.117346
O28   O     O_2   0.603574 0.335804 0.666311 -0.491674
N2    N     N_3   0.577150 0.461965 0.818692 -0.627046
H11   H     H_    0.521584 0.381169 0.783192 0.239816
H12   H     H_    0.588248 0.421287 0.865059 0.242326
C59   C     C_2   0.746531 0.826712 0.638773 0.176494
H13   H     H_    0.701489 0.886357 0.657767 0.103990
O29   O     O_2   0.739886 0.797706 0.575524 -0.473442
N3    N     N_3   0.486307 0.610108 0.343262 -0.566561
H14   H     H_    0.473250 0.514568 0.329394 0.244826
H15   H     H_    0.591950 0.686084 0.339405 0.251527
N4    N     N_3   0.535425 0.626093 0.195903 -0.578754
H16   H     H_    0.625811 0.700757 0.220440 0.195985
H17   H     H_    0.510558 0.527254 0.209927 0.246419
C60   C     C_2   0.237637 0.825310 0.851242 0.061783
H18   H     H_    0.189108 0.882971 0.835279 -0.036121
O30   O     O_2   0.183104 0.890347 0.833865 0.007740
C61   C     C_2   0.214006 0.835923 0.305655 0.225481
H19   H     H_    0.226621 0.870393 0.360274 0.170280
O31   O     O_2   0.179943 0.894989 0.264248 -0.533365
C62   C     C_2   0.601850 0.005683 0.346964 0.253032
H20   H     H_    0.499821 0.992440 0.337169 0.108824
O32   O     O_2   0.615649 0.952130 0.399495 -0.461003
C63   C     C_2   0.560602 0.037246 0.201174 0.324369
H21   H     H_    0.482090 0.940035 0.220193 0.069733
O33   O     O_2   0.526053 0.104597 0.166236 -0.431801
N5    N     N_3   0.081695 0.282414 0.158739 -0.530778
H22   H     H_    0.068213 0.343466 0.122438 0.248991
H23   H     H_    0.092187 0.206919 0.131260 0.263018
C64   C     C_2   0.121219 0.270033 0.308102 0.274727
H24   H     H_    0.133302 0.235903 0.359408 0.142267
O34   O     O_2   0.227739 0.341112 0.273384 -0.490036
C65   C     C_2   0.921951 0.899778 0.345731 0.264031
H25   H     H_    0.011807 0.997518 0.331433 0.105004
O35   O     O_2   0.858195 0.892051 0.400921 -0.437868
N6    N     N_3   0.934425 0.926190 0.197071 -0.572608
H26   H     H_    0.869605 0.959385 0.218853 0.193616
H27   H     H_    0.038206 0.992588 0.211891 0.278447
C66   C     C_2   0.682341 0.420969 0.159506 0.317075
H28   H     H_    0.573842 0.343751 0.169798 0.188634
O36   O     O_2   0.742862 0.408908 0.107276 -0.474501
C67   C     C_2   0.640725 0.393030 0.314795 0.243517
H29   H     H_    0.582211 0.389467 0.362520 0.138907
O37   O     O_2   0.621587 0.285105 0.289502 -0.507370
C68   C     C_2   0.295014 0.436042 0.809322 0.291466
H30   H     H_    0.321037 0.371406 0.778499 0.130476
O38   O     O_2   0.218887 0.389591 0.861748 -0.491956
N7    N     N_3   0.425575 0.532815 0.670655 -0.599671
H31   H     H_    0.487652 0.598697 0.630011 0.277421
H32   H     H_    0.497020 0.523626 0.701408 0.248609
N8    N     N_3   0.298577 0.182108 0.654660 -0.576204
H33   H     H_    0.293410 0.108149 0.619124 0.315530
H34   H     H_    0.321980 0.269587 0.625903 0.285063
C69   C     C_2   0.023321 0.073509 0.581255 0.313179
H35   H     H_    0.923604 0.041972 0.557116 0.172765
O39   O     O_2   0.111862 0.068251 0.543820 -0.501761
C70   C     C_2   0.745372 0.330170 0.880757 0.261655
H36   H     H_    0.680066 0.325880 0.925664 0.133171
O40   O     O_2   0.870432 0.416009 0.881033 -0.481141

loop_
_geom_bond_atom_site_label_1
_geom_bond_atom_site_label_2
_geom_bond_distance
_ccdc_geom_bond_type
C55   O24   1.272864 A    
O17   Cr5   1.962822 S    
C48   C66   1.481871 S    
Cr6   O26   2.024961 S    
C27   C58   1.444655 S    
C69   O39   1.219719 D    
C23   C24   1.393745 A    
C57   H7    1.081629 S    
C34   C35   1.410149 A    
C25   C70   1.488526 S    
N5    H22   1.045777 S    
N2    H12   1.032582 S    
O4    Cr2   1.981956 S    
C33   C38   1.370872 A    
O17   C52   1.307249 A    
C35   C36   1.381062 A    
N6    H27   1.043983 S    
O8    Cr1   1.995661 S    
C10   C11   1.383602 A    
C58   H10   1.075489 S    
C14   C19   1.407619 A    
O21   C54   1.304887 A    
C66   O36   1.221167 D    
C45   C50   1.390353 A    
N7    H32   1.038595 S    
C22   N1    1.437620 S    
O4    C2    1.286772 A    
N1    H8    1.045100 S    
C67   H29   1.084622 S    
C36   C37   1.398923 A    
C5    O11   1.311188 A    
C28   N2    1.438851 S    
C60   H18   1.084410 S    
C33   N3    1.438277 S    
C18   C19   1.442247 A    
C24   H4    1.081341 S    
C29   C53   1.470649 S    
C10   C68   1.470699 S    
N3    H14   1.042270 S    
O24   Cr6   2.054355 S    
C39   C44   1.389016 A    
O19   Cr6   1.937321 S    
C2    C12   1.480265 S    
C15   C16   1.386276 A    
C31   C59   1.472294 S    
C60   O30   1.217798 D    
O6    C3    1.279984 A    
C42   N5    1.438050 S    
C30   C31   1.407403 A    
C7    C8    1.419185 A    
C8    C9    1.392064 A    
C48   C49   1.415200 A    
C15   H1    1.078406 S    
C27   C32   1.402865 A    
C63   H21   1.058507 S    
C4    C50   1.468686 S    
C37   C38   1.436529 A    
C11   N7    1.440204 S    
Cr3   O13   2.024498 S    
C70   O40   1.221361 D    
C59   O29   1.221637 D    
C46   N6    1.430539 S    
C39   C40   1.394037 A    
C17   C69   1.502169 S    
O14   C53   1.321947 A    
N2    H11   1.039378 S    
C43   C64   1.496162 S    
O22   Cr5   2.081736 S    
O12   C6    1.256279 A    
C68   O38   1.221496 D    
C61   O31   1.218984 D    
O1    Cr1   2.115353 S    
O15   C51   1.285885 A    
C68   H30   1.068981 S    
C45   C46   1.392937 A    
O10   Cr2   1.937728 S    
Cr1   O13   1.987046 S    
O1    C3    1.287097 A    
C66   H28   1.082467 S    
O14   Cr4   2.077678 S    
O23   C55   1.311869 A    
C46   C47   1.428541 A    
C35   C55   1.447794 S    
C65   O35   1.221516 D    
C34   N4    1.409483 S    
C30   H5    1.072904 S    
C9    C10   1.399553 A    
O5    Cr3   2.083302 S    
O12   Cr3   1.961762 S    
O20   Cr4   2.118484 S    
C9    C52   1.464693 S    
C14   H2    1.075216 S    
N5    H23   1.043662 S    
C39   C62   1.496568 S    
O15   Cr4   1.996979 S    
C51   O16   1.306626 A    
C20   C26   1.408165 A    
C40   C41   1.430706 A    
C27   C28   1.395567 A    
C16   N8    1.434632 S    
O7    Cr1   2.081017 S    
C59   H13   1.075051 S    
C13   C21   1.400630 A    
Cr5   O26   2.029495 S    
C17   C18   1.442342 A    
C18   C26   1.433301 A    
C7    C12   1.446256 A    
C54   O22   1.256546 A    
C61   H19   1.077982 S    
C45   C65   1.491457 S    
C2    O5    1.309155 A    
O16   Cr5   2.082985 S    
C28   C29   1.401264 A    
N8    H34   1.044966 S    
C8    C60   1.493732 S    
N1    H9    1.042364 S    
C70   H36   1.085191 S    
C24   C25   1.392437 A    
C62   O32   1.221430 D    
C47   C56   1.478107 S    
C11   C12   1.400481 A    
C31   C32   1.398058 A    
C49   C67   1.488459 S    
N4    H16   1.035545 S    
C67   O37   1.215350 D    
C33   C34   1.380716 A    
C22   C23   1.406318 A    
C3    C26   1.494258 S    
C37   C61   1.490084 S    
O9    Cr2   2.105824 S    
O2    Cr1   1.961054 S    
C52   O18   1.280959 A    
Cr2   O13   2.029095 S    
O19   C53   1.303518 A    
C64   O34   1.218723 D    
O6    Cr3   1.954757 S    
C40   C63   1.478212 S    
C21   C25   1.406932 A    
O8    C4    1.270524 A    
C57   O27   1.215707 D    
O11   Cr3   2.068558 S    
O18   Cr6   2.096872 S    
C65   H25   1.078732 S    
C13   C51   1.516286 S    
C6    C44   1.465472 S    
O21   Cr4   1.959784 S    
N6    H26   1.038701 S    
C13   C19   1.438521 A    
O20   C56   1.253555 A    
C41   C54   1.466460 S    
C16   C17   1.409103 A    
O2    C1    1.282095 A    
C62   H20   1.081481 S    
C49   C50   1.427079 A    
O23   Cr5   1.956850 S    
C64   H24   1.082612 S    
C42   C43   1.407005 A    
Cr4   O26   1.987021 S    
C20   C22   1.422245 A    
C1    C32   1.474151 S    
C14   C15   1.385699 A    
C36   H6    1.084393 S    
C20   C21   1.399878 A    
O7    C6    1.297494 A    
C7    C57   1.469834 S    
C43   C44   1.432535 A    
O25   Cr6   1.978433 S    
C47   C48   1.404061 A    
N3    H15   1.042771 S    
C41   C42   1.402174 A    
O3    Cr2   2.058880 S    
C4    O9    1.295769 A    
C58   O28   1.219993 D    
C29   C30   1.398082 A    
C69   H35   1.080976 S    
C63   O33   1.219204 D    
C23   H3    1.068316 S    
O10   C5    1.260537 A    
N8    H33   1.038909 S    
O25   C56   1.303706 A    
N7    H31   1.044002 S    
C5    C38   1.444343 S    
C1    O3    1.287757 A    
N4    H17   1.043490 S    
