data_mof_unit_11723.cif
_audit_creation_date              2012-12-10T16:48:49-0500
_audit_creation_method            fapswitch 2.2
_symmetry_space_group_name_H-M    P1
_symmetry_Int_Tables_number       1
_space_group_crystal_system       triclinic
_cell_length_a                    17.240663
_cell_length_b                    8.675519
_cell_length_c                    7.559113
_cell_angle_alpha                 102.412919
_cell_angle_beta                  92.255305
_cell_angle_gamma                 94.60205
_cell_volume                      1098.77778086

loop_
_atom_site_label
_atom_site_type_symbol
_atom_type_description
_atom_site_fract_x
_atom_site_fract_y
_atom_site_fract_z
_atom_type_partial_charge
C1    C     C_R   0.496540 0.200245 0.454505 0.855388
C2    C     C_R   0.503708 0.799780 0.545473 0.879643
C3    C     C_2   0.490300 0.032139 0.431165 -0.374071
C4    C     C_2   0.510046 0.967931 0.568780 -0.379206
C5    C     C_R   0.351570 0.494327 0.521575 0.791879
C6    C     C_R   0.648488 0.494103 0.477162 0.790338
C7    C     C_R   0.267402 0.468971 0.525143 -0.056352
C8    C     C_R   0.733244 0.494838 0.472281 -0.065253
C9    C     C_R   0.225551 0.333738 0.412199 0.160695
C10   C     C_R   0.776836 0.438176 0.604401 0.149664
C11   C     C_R   0.143380 0.327125 0.393385 0.205871
C12   C     C_R   0.857847 0.479958 0.628986 0.201855
C13   C     C_R   0.104930 0.450675 0.497773 0.128909
C14   C     C_R   0.895487 0.553677 0.501439 0.133268
C15   C     C_R   0.147776 0.578232 0.616663 -0.200882
C16   C     C_R   0.852057 0.599966 0.365026 -0.212107
C17   C     C_R   0.228361 0.587862 0.629073 -0.257911
C18   C     C_R   0.771411 0.573036 0.352181 -0.262400
C19   C     C_2   0.019732 0.442153 0.495286 -0.204260
C20   C     C_2   0.980539 0.569237 0.496493 -0.233314
Cu1   Cu    Cu3+1 0.508700 0.517250 0.683000 0.935921
Cu2   Cu    Cu3+1 0.491300 0.482750 0.317000 0.940730
H1    H     H_    0.010271 0.680841 0.482283 0.153092
H2    H     H_    0.988041 0.328378 0.493969 0.171501
H3    H     H_    0.467527 0.961194 0.300761 0.165803
H4    H     H_    0.532821 0.038917 0.699169 0.162956
N1    N     N_2   0.478180 0.456750 0.041980 -0.051511
N2    N     N_2   0.521820 0.543250 0.958020 -0.053938
O1    O     O_R   0.505650 0.286040 0.618880 -0.596228
O2    O     O_R   0.494350 0.713960 0.381120 -0.591024
O3    O     O_R   0.490960 0.256910 0.309800 -0.596885
O4    O     O_R   0.509040 0.743090 0.690200 -0.594687
O5    O     O_R   0.394600 0.516230 0.672450 -0.592785
O6    O     O_R   0.605400 0.483770 0.327550 -0.595242
O7    O     O_R   0.379910 0.487100 0.363380 -0.568258
O8    O     O_R   0.620090 0.512900 0.636620 -0.575922
C21   C     C_3   0.267401 0.195895 0.313509 -0.867306
H5    H     H_    0.239554 0.082543 0.336461 0.232114
H6    H     H_    0.265152 0.192830 0.165852 0.232649
H7    H     H_    0.329146 0.201460 0.362428 0.219219
C22   C     C_3   0.738137 0.331772 0.716998 -0.824144
H8    H     H_    0.775810 0.237659 0.734594 0.224140
H9    H     H_    0.726521 0.402886 0.852426 0.244548
H10   H     H_    0.682920 0.267862 0.649080 0.230189
H11   H     H_    0.738683 0.616471 0.250636 0.154167
H12   H     H_    0.260468 0.690429 0.716596 0.156202
H13   H     H_    0.118662 0.671068 0.700674 0.151300
H14   H     H_    0.880829 0.656832 0.267819 0.148361
C23   C     C_3   0.902456 0.451250 0.794329 -0.887188
H15   H     H_    0.869388 0.487426 0.917325 0.238679
H16   H     H_    0.911923 0.323833 0.775448 0.230400
H17   H     H_    0.959666 0.522572 0.822539 0.243356
C24   C     C_3   0.098414 0.190665 0.259180 -0.898667
H18   H     H_    0.099263 0.080308 0.310857 0.230377
H19   H     H_    0.036958 0.210957 0.231470 0.231450
H20   H     H_    0.125119 0.173175 0.125903 0.242479
C25   C     C_3   0.441248 0.305587 0.945855 -0.350217
H21   H     H_    0.400565 0.259567 0.036192 0.156252
H22   H     H_    0.404669 0.314242 0.826584 0.188209
H23   H     H_    0.485573 0.220041 0.914501 0.163779
C26   C     C_3   0.558920 0.694272 0.054093 -0.361243
H24   H     H_    0.599891 0.739790 0.963910 0.155750
H25   H     H_    0.514738 0.780188 0.085043 0.167275
H26   H     H_    0.595237 0.685578 0.173674 0.182596

loop_
_geom_bond_atom_site_label_1
_geom_bond_atom_site_label_2
_ccdc_geom_bond_type
C1    O3    A    
C26   H26   S    
C2    C4    S    
C21   H5    S    
C14   C20   S    
C22   H9    S    
C22   H8    S    
C4    H4    S    
C19   C20   D    
C11   C24   S    
C20   H1    S    
C15   H13   S    
C2    O2    A    
C23   H17   S    
N2    C26   S    
C16   H14   S    
C23   H16   S    
C9    C21   S    
C19   H2    S    
C21   H6    S    
Cu1   O8    S    
C24   H18   S    
C10   C22   S    
Cu2   O7    S    
C9    C11   A    
C5    O5    A    
C25   H21   S    
C10   C12   A    
C5    O7    A    
C2    O4    A    
Cu1   O4    S    
Cu1   N2    S    
C12   C14   A    
C12   C23   S    
C21   H7    S    
Cu2   N1    S    
C24   H19   S    
C13   C15   A    
C26   H24   S    
Cu2   O6    S    
C22   H10   S    
C14   C16   A    
C1    O1    A    
C25   H22   S    
Cu1   O5    S    
Cu2   O3    S    
C13   C19   S    
C3    C4    D    
C18   H11   S    
C7    C9    A    
C11   C13   A    
C3    H3    S    
C17   H12   S    
C15   C17   A    
C23   H15   S    
N1    C25   S    
C24   H20   S    
N1    N2    D    
C5    C7    S    
C25   H23   S    
C6    C8    S    
Cu2   O2    S    
C1    C3    S    
Cu1   Cu2   S    
Cu1   O1    S    
C8    C10   A    
C8    C18   A    
C6    O6    A    
C6    O8    A    
C26   H25   S    
C7    C17   A    
C16   C18   A    
