data_mof_unit_22586.cif
_audit_creation_date              2012-12-10T17:18:12-0500
_audit_creation_method            fapswitch 2.2
_symmetry_space_group_name_H-M    P1
_symmetry_Int_Tables_number       1
_space_group_crystal_system       triclinic
_cell_length_a                    10.164818
_cell_length_b                    10.73748
_cell_length_c                    15.036397
_cell_angle_alpha                 89.884798
_cell_angle_beta                  81.029425
_cell_angle_gamma                 96.048902
_cell_volume                      1611.75722935

loop_
_atom_site_label
_atom_site_type_symbol
_atom_type_description
_atom_site_fract_x
_atom_site_fract_y
_atom_site_fract_z
_atom_type_partial_charge
C1    C     C_R   0.557218 0.733528 0.491785 0.881278
C2    C     C_2   0.073219 0.491301 0.491661 -0.052475
C3    C     C_R   0.500086 0.498099 0.673031 0.901476
C4    C     C_R   0.499998 0.501516 0.327424 0.891714
C5    C     C_R   0.493056 0.390326 0.187248 -0.097420
C6    C     C_R   0.478972 0.611563 0.815207 -0.101203
C7    C     C_R   0.497793 0.504227 0.232161 -0.117100
C8    C     C_R   0.502217 0.500429 0.769099 -0.136878
C9    C     C_R   0.495915 0.619267 0.187832 0.030677
C10   C     C_R   0.523415 0.391559 0.814883 0.030695
C11   C     C_R   0.487667 0.618307 0.095120 0.078308
C12   C     C_R   0.442294 0.265908 0.502398 0.906792
C13   C     C_R   0.497291 0.389797 0.909336 0.076615
C14   C     C_R   0.479338 0.503104 0.049739 0.004422
C15   C     C_R   0.486627 0.503778 0.955524 0.000834
C16   C     C_R   0.470438 0.387299 0.097529 0.036457
C17   C     C_R   0.490762 0.618354 0.907093 0.046295
C18   C     C_R   0.497465 0.730888 0.045812 -0.264959
C19   C     C_R   0.476054 0.276147 0.958336 -0.251926
C20   C     C_1   0.535143 0.282709 0.229456 0.156652
C21   C     C_1   0.428748 0.711049 0.769248 0.176721
C22   C     C_3   0.525206 0.742455 0.235568 -0.411212
C23   C     C_R   0.507006 0.733592 0.952633 0.104924
C24   C     C_3   0.673759 0.793255 0.208722 -0.356037
C25   C     C_3   0.695940 0.934787 0.217657 -0.862960
C26   C     C_3   0.567114 0.276808 0.763927 -0.426432
C27   C     C_3   0.446578 0.196074 0.737843 -0.365876
C28   C     C_3   0.489630 0.078182 0.691565 -0.866339
C29   C     C_3   0.562866 0.858540 0.905907 -0.427527
C30   C     C_3   0.706032 0.851071 0.856144 -0.306791
C31   C     C_3   0.781908 0.980275 0.832909 -0.911220
C32   C     C_3   0.388636 0.149194 0.098962 -0.413266
C33   C     C_3   0.269703 0.084819 0.058164 -0.356173
C34   C     C_R   0.447693 0.273324 0.051746 0.101398
C35   C     C_3   0.201866 0.971075 0.115068 -0.878296
C36   C     C_3   0.267174 0.061735 0.521091 -0.421413
C37   C     C_3   0.165911 0.134311 0.581155 -0.313087
C38   C     C_3   0.045233 0.047252 0.625771 -0.930850
C39   C     C_3   0.724489 0.926753 0.504508 -0.393031
C40   C     C_3   0.844338 0.910692 0.430263 -0.310497
C41   C     C_3   0.909227 0.035914 0.387293 -0.891204
C42   C     C_1   0.121563 0.403356 0.424902 0.245942
C43   C     C_1   0.879806 0.601994 0.571176 0.258344
C44   C     C_2   0.592535 0.868045 0.479457 -0.038781
C45   C     C_2   0.407445 0.130763 0.491222 -0.053645
C46   C     C_2   0.499654 0.932954 0.451751 -0.222780
C47   C     C_2   0.509186 0.068168 0.452547 -0.194666
C48   C     C_2   0.927466 0.511264 0.506477 -0.046313
H1    H     H_    0.508048 0.819846 0.078357 0.159668
H2    H     H_    0.734422 0.747478 0.252028 0.218012
H3    H     H_    0.712165 0.770717 0.137937 0.233487
H4    H     H_    0.456099 0.810715 0.221168 0.199114
H5    H     H_    0.504018 0.732232 0.309789 0.183384
H6    H     H_    0.565032 0.103161 0.631107 0.263476
H7    H     H_    0.533422 0.020303 0.737654 0.264707
H8    H     H_    0.401332 0.022604 0.671810 0.273773
H9    H     H_    0.370585 0.169166 0.798038 0.221175
H10   H     H_    0.399290 0.250556 0.691427 0.214099
H11   H     H_    0.641479 0.303964 0.703253 0.227087
H12   H     H_    0.473179 0.187682 0.924579 0.155296
H13   H     H_    0.623109 0.221085 0.804464 0.198413
H14   H     H_    0.738732 0.028215 0.780792 0.259386
H15   H     H_    0.779620 0.039013 0.893747 0.263065
H16   H     H_    0.888024 0.969465 0.806121 0.259026
H17   H     H_    0.763241 0.800991 0.899638 0.227148
H18   H     H_    0.703079 0.797628 0.793193 0.232767
H19   H     H_    0.496386 0.890571 0.861440 0.201590
H20   H     H_    0.567060 0.934314 0.956067 0.195939
H21   H     H_    0.274557 0.901989 0.119894 0.260531
H22   H     H_    0.160933 0.000014 0.183849 0.257668
H23   H     H_    0.607412 0.116455 0.428058 0.194974
H24   H     H_    0.117988 0.925578 0.083342 0.253850
H25   H     H_    0.194845 0.152220 0.054175 0.234638
H26   H     H_    0.303842 0.051991 0.989286 0.216108
H27   H     H_    0.468305 0.085204 0.095682 0.191551
H28   H     H_    0.348280 0.164519 0.170412 0.226350
H29   H     H_    0.998045 0.992595 0.574554 0.277856
H30   H     H_    0.076625 0.981477 0.673558 0.268930
H31   H     H_    0.970097 0.103565 0.663379 0.256473
H32   H     H_    0.212742 0.182161 0.635308 0.227827
H33   H     H_    0.129300 0.204979 0.539980 0.241467
H34   H     H_    0.407815 0.884752 0.434373 0.168968
H35   H     H_    0.224232 0.031939 0.459900 0.208072
H36   H     H_    0.277458 0.975149 0.558840 0.225591
H37   H     H_    0.835886 0.083459 0.355769 0.268376
H38   H     H_    0.947225 0.098133 0.438660 0.264525
H39   H     H_    0.994739 0.019676 0.334555 0.248881
H40   H     H_    0.921271 0.865019 0.459628 0.207552
H41   H     H_    0.814017 0.848257 0.376644 0.234112
H42   H     H_    0.721384 0.026525 0.522478 0.209272
H43   H     H_    0.739993 0.880316 0.567579 0.187906
H44   H     H_    0.122899 0.613640 0.584696 0.166566
H45   H     H_    0.876286 0.383481 0.417332 0.163764
H46   H     H_    0.643526 0.981471 0.169583 0.259466
H47   H     H_    0.657873 0.962027 0.287035 0.291338
H48   H     H_    0.804671 0.966712 0.202124 0.254623
N1    N     N_2   0.842700 0.448880 0.462930 -0.221471
N2    N     N_2   0.157300 0.551120 0.537070 -0.219756
N3    N     N_1   0.569667 0.197477 0.262977 -0.240037
N4    N     N_1   0.386693 0.788101 0.731490 -0.232956
N5    N     N_1   0.158990 0.332552 0.371268 -0.232642
N6    N     N_1   0.842978 0.674683 0.623467 -0.254994
O1    O     O_R   0.431060 0.692470 0.507460 -0.617305
O2    O     O_R   0.568940 0.307530 0.492540 -0.625112
O3    O     O_R   0.651120 0.659650 0.483670 -0.606811
O4    O     O_R   0.348880 0.340350 0.516330 -0.618968
O5    O     O_R   0.389960 0.516440 0.644050 -0.606622
O6    O     O_R   0.610040 0.483560 0.355950 -0.611371
O7    O     O_R   0.610030 0.483620 0.620260 -0.613562
O8    O     O_R   0.389970 0.516380 0.379740 -0.610998
Zn1   Zn    Zn3+2 0.353060 0.521920 0.515880 0.944910
Zn2   Zn    Zn3+2 0.646940 0.478080 0.484120 0.940659

loop_
_geom_bond_atom_site_label_1
_geom_bond_atom_site_label_2
_ccdc_geom_bond_type
C11   C18   A    
C32   H27   S    
C28   H8    S    
H44   N2    S    
C5    C20   S    
C48   N1    D    
C4    O6    A    
C26   C27   S    
C29   C30   S    
C23   C29   S    
C22   H4    S    
C36   C37   S    
C26   H13   S    
C3    O7    A    
C12   O2    A    
C30   C31   S    
C11   C14   A    
C9    C22   S    
C38   H31   S    
C36   H35   S    
O1    Zn1   S    
O8    Zn1   S    
C5    C16   A    
C16   C34   A    
C46   H34   S    
C35   H22   S    
C40   H41   S    
C26   H11   S    
C1    O1    A    
C39   H42   S    
C10   C26   S    
C24   H3    S    
C25   H46   S    
C29   H19   S    
C31   H14   S    
C37   H33   S    
C4    C7    S    
C35   H21   S    
C39   H43   S    
C28   H7    S    
C44   C46   D    
C22   H5    S    
O4    Zn1   S    
C45   C47   D    
C24   H2    S    
C41   H39   S    
C37   H32   S    
C13   C19   A    
C18   C23   A    
C31   H15   S    
C24   C25   S    
C3    C8    S    
C27   H9    S    
O7    Zn2   S    
C39   C40   S    
C5    C7    A    
N1    Zn2   S    
C28   H6    S    
C6    C8    A    
C38   H30   S    
C3    O5    A    
C27   H10   S    
C6    C21   S    
C19   C34   A    
O6    Zn2   S    
C32   C34   S    
C37   C38   S    
C41   H38   S    
C29   H20   S    
C1    C44   S    
C2    C42   S    
C36   C45   S    
C17   C23   A    
C9    C11   A    
C47   H23   S    
C30   H18   S    
C33   H25   S    
C40   C41   S    
O3    Zn2   S    
C35   H24   S    
C25   H47   S    
C13   C15   A    
C14   C16   A    
C42   N5    T    
H45   N1    S    
O2    Zn2   S    
C43   C48   S    
C15   C17   A    
C6    C17   A    
C4    O8    A    
C46   C47   S    
N2    Zn1   S    
C21   N4    T    
O5    Zn1   S    
C31   H16   S    
C12   C45   S    
C10   C13   A    
C32   H28   S    
C39   C44   S    
C38   H29   S    
C19   H12   S    
C41   H37   S    
C2    C48   S    
C32   C33   S    
C40   H40   S    
C43   N6    T    
C12   O4    A    
C20   N3    T    
C36   H36   S    
C33   C35   S    
C22   C24   S    
C30   H17   S    
C7    C9    A    
C33   H26   S    
C2    N2    D    
C25   H48   S    
C8    C10   A    
C27   C28   S    
C14   C15   A    
C18   H1    S    
C1    O3    A    
