data_mof_unit_66321.cif
_audit_creation_date              2013-03-05T16:28:45-0500
_audit_creation_method            fapswitch 2.2
_symmetry_space_group_name_H-M    P1
_symmetry_Int_Tables_number       1
_space_group_crystal_system       triclinic
_cell_length_a                    19.421628
_cell_length_b                    18.124866
_cell_length_c                    23.613675
_cell_angle_alpha                 90.328378
_cell_angle_beta                  90.960649
_cell_angle_gamma                 90.31542
_cell_volume                      8310.91850357

loop_
_atom_site_label
_atom_site_type_symbol
_atom_site_description
_atom_site_fract_x
_atom_site_fract_y
_atom_site_fract_z
_atom_type_partial_charge
O1    O     O_R   0.400190 0.561980 0.499990 -0.571889
O2    O     O_R   0.599810 0.438020 0.500010 -0.575133
O3    O     O_R   0.599810 0.561980 0.500010 -0.560585
O4    O     O_R   0.400190 0.438020 0.499990 -0.575247
C1    C     C_R   0.367769 0.499837 0.500025 0.877312
C2    C     C_R   0.632231 0.500170 0.499981 0.892109
O5    O     O_R   0.499980 0.561970 0.417880 -0.552228
O6    O     O_R   0.500020 0.438030 0.582120 -0.600759
O7    O     O_R   0.500020 0.561970 0.582120 -0.523378
O8    O     O_R   0.499980 0.438030 0.417880 -0.573074
C3    C     C_R   0.501638 0.499853 0.390668 0.880640
C4    C     C_R   0.499083 0.500243 0.609445 0.876449
Cu1   Cu    Cu3+1 0.500000 0.573360 0.500000 1.047208
Cu2   Cu    Cu3+1 0.500000 0.426640 0.500000 1.008186
C5    C     C_R   0.554717 0.478719 0.880679 0.617759
C6    C     C_R   0.450055 0.532106 0.119891 0.617712
N1    N     N_R   0.496342 0.500670 0.852792 -0.457211
N2    N     N_R   0.507626 0.507937 0.147797 -0.459170
C7    C     C_R   0.440011 0.525467 0.881007 0.625251
C8    C     C_R   0.564526 0.484704 0.119572 0.623699
C9    C     C_R   0.440552 0.528690 0.940884 -0.094293
C10   C     C_R   0.564723 0.483532 0.059670 -0.092397
C11   C     C_R   0.500995 0.505509 0.970306 -0.045031
C12   C     C_R   0.504401 0.507045 0.030241 -0.043898
C13   C     C_R   0.558192 0.480565 0.939898 -0.061704
C14   C     C_R   0.447171 0.531895 0.060650 -0.059623
C15   C     C_R   0.383753 0.553965 0.972620 0.299802
C16   C     C_R   0.621889 0.459277 0.027917 0.299593
C17   C     C_R   0.387862 0.555247 0.031585 -0.157078
C18   C     C_R   0.617819 0.458095 0.968950 -0.157714
O9    O     O_2   0.609263 0.455215 0.850959 -0.491889
O10   O     O_2   0.395487 0.555535 0.149616 -0.493178
O11   O     O_2   0.384267 0.546626 0.850691 -0.436033
O12   O     O_2   0.619810 0.462274 0.149901 -0.436884
H1    H     H_    0.343720 0.574512 0.054788 0.219212
H2    H     H_    0.662079 0.439159 0.945742 0.219260
C19   C     C_R   0.533602 0.563178 0.240203 -0.153959
C20   C     C_R   0.514799 0.562956 0.763375 -0.158854
H3    H     H_    0.554889 0.610504 0.218667 0.188067
H4    H     H_    0.530188 0.611560 0.787438 0.188192
C21   C     C_R   0.533409 0.561560 0.299168 0.258124
C22   C     C_R   0.515518 0.564383 0.704499 0.294256
C23   C     C_R   0.505147 0.499883 0.327723 -0.180518
C24   C     C_R   0.496327 0.500478 0.672582 -0.185029
C25   C     C_R   0.480659 0.438736 0.294793 -0.165671
C26   C     C_R   0.474138 0.436556 0.702449 -0.176188
C27   C     C_R   0.481544 0.441590 0.235343 0.278004
C28   C     C_R   0.474093 0.436560 0.762033 0.284625
C29   C     C_R   0.507304 0.504270 0.208394 0.226178
C30   C     C_R   0.494993 0.499783 0.792103 0.223138
C31   C     C_R   0.742483 0.464453 0.455712 0.230130
C32   C     C_R   0.257576 0.535471 0.544433 0.220113
C33   C     C_R   0.254872 0.463669 0.456869 0.215030
C34   C     C_R   0.745072 0.536589 0.543118 0.215315
C35   C     C_R   0.814301 0.464730 0.455736 -0.160154
C36   C     C_R   0.185757 0.535214 0.544463 -0.161087
C37   C     C_R   0.183175 0.463791 0.457422 -0.152709
C38   C     C_R   0.816772 0.536460 0.542629 -0.156622
H5    H     H_    0.840768 0.437816 0.421364 0.179579
H6    H     H_    0.159328 0.562034 0.578898 0.179769
H7    H     H_    0.154763 0.437222 0.423032 0.180793
H8    H     H_    0.845135 0.563173 0.576979 0.179400
C39   C     C_R   0.851870 0.500643 0.499103 -0.010186
C40   C     C_R   0.148137 0.499439 0.501059 -0.011004
C41   C     C_R   0.707418 0.500507 0.499565 -0.158758
C42   C     C_R   0.292582 0.499537 0.500488 -0.156306
C43   C     C_R   0.964870 0.565050 0.512654 -0.144799
C44   C     C_R   0.035149 0.435022 0.487575 -0.145724
C45   C     C_R   0.036591 0.564666 0.513480 -0.145747
C46   C     C_R   0.963429 0.435402 0.486760 -0.146017
H9    H     H_    0.938401 0.616102 0.521728 0.152253
H10   H     H_    0.061624 0.383978 0.478486 0.151741
H11   H     H_    0.064168 0.615443 0.523044 0.151497
H12   H     H_    0.935860 0.384620 0.477198 0.150999
C47   C     C_R   0.072286 0.499658 0.500919 0.120488
C48   C     C_R   0.927728 0.500415 0.499304 0.121209
C49   C     C_R   0.450324 0.720372 0.470356 0.102287
C50   C     C_R   0.550776 0.279642 0.528360 0.081525
C51   C     C_R   0.550139 0.721408 0.529051 0.122484
C52   C     C_R   0.448512 0.278541 0.472685 0.081438
H13   H     H_    0.411639 0.689124 0.446809 0.139218
H14   H     H_    0.590366 0.310880 0.550851 0.139140
H15   H     H_    0.589319 0.690993 0.551958 0.182608
H16   H     H_    0.408181 0.308916 0.451190 0.172854
C53   C     C_R   0.449046 0.797922 0.469679 -0.111631
C54   C     C_R   0.551955 0.202095 0.529244 -0.110472
C55   C     C_R   0.551383 0.798948 0.529842 -0.123378
C56   C     C_R   0.447235 0.200997 0.471971 -0.119026
C57   C     C_R   0.500129 0.838693 0.499882 -0.005010
C58   C     C_R   0.499689 0.161238 0.500502 -0.001873
N3    N     N_R   0.500000 0.683620 0.500000 -0.187834
N4    N     N_R   0.500000 0.316380 0.500000 -0.191735
C59   C     C_R   0.555219 0.961502 0.477311 -0.133554
C60   C     C_R   0.444648 0.038328 0.523200 -0.133147
C61   C     C_R   0.444720 0.960843 0.522974 -0.126261
C62   C     C_R   0.555087 0.038984 0.477436 -0.127981
H17   H     H_    0.598281 0.932601 0.459111 0.155277
H18   H     H_    0.401624 0.067187 0.541495 0.153809
H19   H     H_    0.401738 0.931430 0.541045 0.156175
H20   H     H_    0.598035 0.068354 0.459272 0.155000
C63   C     C_R   0.499808 0.078343 0.500393 0.097248
C64   C     C_R   0.500020 0.921531 0.500050 0.097111
Br1   Br    Br    0.297764 0.587985 0.940738 -0.309249
Br2   Br    Br    0.708290 0.426428 0.059787 -0.309847
C65   C     C_1   0.396085 0.834136 0.436642 0.261447
N5    N     N_1   0.353640 0.863196 0.410162 -0.214274
C66   C     C_1   0.606016 0.166025 0.561145 0.255381
N6    N     N_1   0.649341 0.137091 0.586721 -0.214921
C67   C     C_1   0.604521 0.836167 0.562760 0.295741
N7    N     N_1   0.647112 0.866003 0.589160 -0.199871
C68   C     C_1   0.392770 0.163838 0.440526 0.280530
N8    N     N_1   0.349116 0.134062 0.415301 -0.203118
Br3   Br    Br    0.577399 0.644205 0.336805 -0.429539
Br4   Br    Br    0.544508 0.656748 0.672842 -0.405863
C69   C     C_1   0.454570 0.372201 0.320415 0.455721
N9    N     N_1   0.433864 0.318331 0.340108 -0.225362
C70   C     C_1   0.449120 0.371073 0.673128 0.405022
N10   N     N_1   0.429077 0.318664 0.649778 -0.233378
Br5   Br    Br    0.447790 0.359867 0.189788 -0.370362
Br6   Br    Br    0.445215 0.350616 0.803405 -0.377834
Br7   Br    Br    0.694573 0.416984 0.393534 -0.437466
Br8   Br    Br    0.305572 0.582799 0.606631 -0.438714
Br9   Br    Br    0.298573 0.417382 0.393817 -0.497819
Br10  Br    Br    0.701288 0.583274 0.605970 -0.455864

loop_
_geom_bond_atom_site_label_1
_geom_bond_atom_site_label_2
_geom_bond_distance
_ccdc_geom_bond_type
C38   H8    1.083219 S    
C51   H15   1.081549 S    
C35   H5    1.083132 S    
C57   C64   1.501431 S    
C15   C17   1.393368 A    
C66   N6    1.157253 T    
C54   C66   1.443592 S    
C52   H16   1.081144 S    
O3    C2    1.288155 A    
C51   C55   1.405492 A    
C27   C29   1.399503 A    
C34   C41   1.407840 A    
C44   C47   1.403850 A    
O5    C3    1.293958 A    
O1    C1    1.287364 A    
C7    C9    1.414637 A    
C12   C14   1.408019 A    
C20   C22   1.390970 A    
C61   H19   1.082976 S    
C5    C13   1.399089 A    
C39   C48   1.473239 S    
C60   H18   1.082954 S    
C69   N9    1.156904 T    
C38   C39   1.401135 A    
C31   C41   1.408504 A    
C15   Br1   1.926272 S    
O7    Cu1   1.951281 S    
C56   C68   1.443601 S    
C32   Br8   1.921670 S    
C22   Br4   1.922634 S    
C2    C41   1.460433 S    
C68   N8    1.157242 T    
C60   C63   1.406778 A    
C35   C39   1.402454 A    
C46   H12   1.083050 S    
C11   C12   1.415820 A    
C36   C40   1.402418 A    
C45   H11   1.083056 S    
Cu1   Cu2   2.659279 S    
C43   H9    1.083054 S    
O3    Cu1   1.950540 S    
C61   C64   1.406307 A    
C44   H10   1.083066 S    
C8    O12   1.346618 S    
C50   C54   1.406116 A    
C28   C30   1.399268 A    
C9    C15   1.420467 A    
C49   C53   1.406115 A    
C10   C16   1.420435 A    
C62   C63   1.406751 A    
Cu1   N3    1.998448 S    
C19   C21   1.392934 A    
C21   C23   1.421247 A    
O2    C2    1.287478 A    
C22   C24   1.422789 A    
C53   C65   1.443541 S    
C24   C26   1.428107 A    
C25   C27   1.405450 A    
C6    C14   1.399049 A    
C26   C28   1.407019 A    
C25   C69   1.445343 S    
C28   Br6   1.929178 S    
C33   Br9   1.917511 S    
C53   C57   1.414624 A    
O4    C1    1.288263 A    
C31   C35   1.394802 A    
C50   N4    1.361815 A    
C7    O11   1.346625 S    
C5    O9    1.350071 S    
C36   H6    1.083139 S    
C26   C70   1.448119 S    
C43   C45   1.392808 A    
C52   N4    1.360923 A    
C58   C63   1.502461 S    
C19   C29   1.391745 A    
C16   Br2   1.926261 S    
C49   H13   1.082657 S    
O6    C4    1.296319 A    
C3    C23   1.489055 S    
C33   C42   1.407756 A    
C23   C25   1.425153 A    
Cu2   N4    1.998448 S    
C55   C67   1.443540 S    
C6    N2    1.363947 A    
C56   C58   1.414813 A    
C59   C62   1.404350 A    
C9    C11   1.420808 A    
C54   C58   1.415013 A    
C31   Br7   1.921638 S    
C10   C12   1.420809 A    
O1    Cu1   1.948282 S    
C8    C10   1.414619 A    
C46   C48   1.403180 A    
C59   H17   1.082977 S    
C32   C42   1.408548 A    
C37   C40   1.401096 A    
C34   C38   1.392793 A    
C13   C18   1.399754 A    
C5    N1    1.363903 A    
C34   Br10  1.917741 S    
C49   N3    1.361735 A    
O6    Cu2   1.948927 S    
C59   C64   1.406297 A    
C51   N3    1.361188 A    
C21   Br3   1.925797 S    
C1    C42   1.460457 S    
C50   H14   1.082547 S    
C33   C37   1.392770 A    
N1    C30   1.432896 S    
C37   H7    1.083232 S    
C52   C56   1.405556 A    
C20   C30   1.389964 A    
C6    O10   1.350067 S    
C65   N5    1.157246 T    
C17   H1    1.083491 S    
C18   H2    1.083491 S    
C16   C18   1.393374 A    
C19   H3    1.083263 S    
C70   N10   1.157841 T    
C20   H4    1.083471 S    
C62   H20   1.082958 S    
C27   Br5   1.930904 S    
N1    C7    1.367209 A    
C40   C47   1.473123 S    
C45   C47   1.403134 A    
N2    C8    1.367251 A    
C11   C13   1.408026 A    
O4    Cu2   1.950540 S    
C60   C61   1.404381 A    
O2    Cu2   1.948282 S    
O7    C4    1.294926 A    
O8    C3    1.295407 A    
O5    Cu1   1.948932 S    
C14   C17   1.399724 A    
C44   C46   1.392779 A    
C55   C57   1.414377 A    
C4    C24   1.492736 S    
C43   C48   1.403914 A    
C67   N7    1.157231 T    
C32   C36   1.394838 A    
N2    C29   1.432955 S    
O8    Cu2   1.951285 S    
