data_mof_unit_13243.cif
_audit_creation_date              2012-12-10T20:36:34-0500
_audit_creation_method            fapswitch 2.2
_symmetry_space_group_name_H-M    P1
_symmetry_Int_Tables_number       1
_space_group_crystal_system       triclinic
_cell_length_a                    10.505114
_cell_length_b                    10.652712
_cell_length_c                    9.877348
_cell_angle_alpha                 90.013898
_cell_angle_beta                  89.278749
_cell_angle_gamma                 90.599612
_cell_volume                      1105.20569681

loop_
_atom_site_label
_atom_site_type_symbol
_atom_type_description
_atom_site_fract_x
_atom_site_fract_y
_atom_site_fract_z
_atom_type_partial_charge
C1    C     C_R   0.508971 0.260620 0.499961 0.911412
C2    C     C_3   0.961766 0.512293 0.370343 -0.166266
C3    C     C_3   0.041812 0.402014 0.423519 -0.206205
C4    C     C_3   0.122329 0.497673 0.501773 -0.060219
C5    C     C_R   0.487789 0.064020 0.616903 0.050824
C6    C     C_R   0.530860 0.129260 0.502746 -0.154600
C7    C     C_R   0.593039 0.064089 0.395966 -0.029718
C8    C     C_R   0.583807 0.933341 0.395432 -0.227354
C9    C     C_R   0.521092 0.871445 0.502575 -0.077476
C10   C     C_R   0.486468 0.936514 0.618527 0.121968
C11   C     C_3   0.366443 0.928714 0.701328 -0.500345
C12   C     C_R   0.257346 0.498200 0.500748 0.931180
C13   C     C_3   0.366092 0.071541 0.697934 -0.229938
C14   C     C_R   0.414799 0.427143 0.072465 0.233825
C15   C     C_R   0.591166 0.562976 0.070725 -0.101681
C16   C     C_R   0.591146 0.563025 0.926829 -0.090863
C17   C     C_R   0.414727 0.427216 0.929947 0.221523
C18   C     C_3   0.273394 0.437613 0.927155 -0.509720
C19   C     C_3   0.273536 0.436771 0.080610 -0.500108
C20   C     C_R   0.503092 0.739890 0.500110 0.891859
C21   C     C_R   0.742482 0.501179 0.499103 0.908382
C22   C     C_3   0.037638 0.485488 0.628757 -0.183087
C23   C     C_3   0.955047 0.391463 0.549813 0.035043
C24   C     C_3   0.877215 0.500332 0.497328 -0.088561
C25   C     C_3   0.957869 0.595730 0.575112 -0.222629
C26   C     C_3   0.044721 0.607051 0.448652 0.172261
H1    H     H_    0.383771 0.890284 0.804015 0.207127
H2    H     H_    0.380264 0.115062 0.799164 0.160716
H3    H     H_    0.663087 0.616205 0.124004 0.149041
H4    H     H_    0.663055 0.616308 0.871714 0.152693
H5    H     H_    0.242044 0.528505 0.884227 0.216875
H6    H     H_    0.227421 0.352778 0.883471 0.244877
H7    H     H_    0.241297 0.526790 0.125868 0.237812
H8    H     H_    0.228497 0.351127 0.125150 0.211779
H9    H     H_    0.070161 0.473240 0.734118 0.174430
H10   H     H_    0.919464 0.674871 0.635741 0.167760
H11   H     H_    0.927157 0.523925 0.265377 0.174398
H12   H     H_    0.080257 0.323725 0.361783 0.164679
H13   H     H_    0.623803 0.880131 0.311824 0.192064
H14   H     H_    0.287123 0.881844 0.646549 0.232368
N1    N     N_R   0.499140 0.499140 0.142800 -0.109041
N2    N     N_R   0.499140 0.499180 0.857150 -0.110853
O1    O     O_R   0.500020 0.316790 0.614690 -0.613402
O2    O     O_R   0.500000 0.316760 0.385350 -0.600102
O3    O     O_R   0.313960 0.499990 0.614650 -0.618589
O4    O     O_R   0.313940 0.499950 0.385310 -0.621275
O5    O     O_R   0.500000 0.683240 0.614650 -0.628004
O6    O     O_R   0.499980 0.683210 0.385310 -0.612474
O7    O     O_R   0.686060 0.500050 0.614690 -0.605746
O8    O     O_R   0.686040 0.500010 0.385350 -0.607731
Zn1   Zn    Zn3+2 0.500010 0.500020 0.653130 0.977007
Zn2   Zn    Zn3+2 0.499990 0.499980 0.346870 0.989218
C27   C     C_2   0.898486 0.272497 0.606580 0.967994
O9    O     O_2   0.917145 0.172587 0.549273 -0.609303
O10   O     O_R   0.823689 0.276950 0.724388 -0.794908
H15   H     H_    0.789199 0.191297 0.751848 0.340802
C28   C     C_2   0.256303 0.124349 0.620105 0.970517
O11   O     O_2   0.190031 0.205236 0.671762 -0.663453
O12   O     O_R   0.231125 0.081389 0.489220 -0.773659
H16   H     H_    0.155227 0.123844 0.447651 0.362722
I1    I     I_    0.119990 0.779016 0.368288 -0.335967
C29   C     C_2   0.665973 0.127031 0.284984 0.960488
O13   O     O_2   0.725785 0.223894 0.306780 -0.617009
O14   O     O_R   0.670477 0.072465 0.156247 -0.812003
H17   H     H_    0.724060 0.123280 0.089558 0.348647

loop_
_geom_bond_atom_site_label_1
_geom_bond_atom_site_label_2
_ccdc_geom_bond_type
C4    C26   S    
C23   C24   S    
C19   H8    S    
C7    C29   S    
C15   H3    S    
C6    C7    A    
C8    H13   S    
C16   N2    A    
C4    C12   S    
C4    C22   S    
C9    C10   A    
N1    Zn2   S    
O8    Zn2   S    
C14   C17   A    
C11   H1    S    
N2    Zn1   S    
O10   H15   S    
C5    C13   S    
O14   H17   S    
O2    Zn2   S    
C11   H14   S    
C21   O7    A    
C17   C18   S    
O12   H16   S    
C13   H2    S    
C20   O6    A    
C27   O9    D    
C22   H9    S    
C11   C13   S    
C2    H11   S    
O1    Zn1   S    
C28   O11   D    
C29   O13   D    
C14   N1    A    
C5    C10   A    
C21   O8    A    
C26   I1    S    
C23   C27   S    
O6    Zn2   S    
C2    C3    S    
C27   O10   S    
C2    C24   S    
C5    C6    A    
C9    C20   S    
C28   O12   S    
C20   O5    A    
C13   C28   S    
C10   C11   S    
O3    Zn1   S    
C25   H10   S    
C16   H4    S    
C1    C6    S    
O4    Zn2   S    
C7    C8    A    
C18   H6    S    
C24   C25   S    
C15   N1    A    
C2    C26   S    
C18   C19   S    
C19   H7    S    
C21   C24   S    
C17   N2    A    
C12   O3    A    
C29   O14   S    
C18   H5    S    
C1    O2    A    
C25   C26   S    
C22   C23   S    
C22   C25   S    
C3    C23   S    
C14   C19   S    
C1    O1    A    
O5    Zn1   S    
C3    C4    S    
C15   C16   A    
C3    H12   S    
C8    C9    A    
O7    Zn1   S    
C12   O4    A    
