data_mof_unit_47788.cif
_audit_creation_date              2012-12-10T17:09:51-0500
_audit_creation_method            fapswitch 2.2
_symmetry_space_group_name_H-M    P1
_symmetry_Int_Tables_number       1
_space_group_crystal_system       triclinic
_cell_length_a                    10.821729
_cell_length_b                    13.026393
_cell_length_c                    11.759925
_cell_angle_alpha                 98.948601
_cell_angle_beta                  94.835606
_cell_angle_gamma                 92.378447
_cell_volume                      1629.25402842

loop_
_atom_site_label
_atom_site_type_symbol
_atom_type_description
_atom_site_fract_x
_atom_site_fract_y
_atom_site_fract_z
_atom_type_partial_charge
C1    C     C_R   0.506294 0.300284 0.479419 0.901447
C2    C     C_R   0.079068 0.586199 0.595898 0.093754
C3    C     C_R   0.130702 0.534230 0.496897 -0.128380
C4    C     C_R   0.051115 0.502395 0.394081 -0.030953
C5    C     C_R   0.925198 0.488799 0.401494 -0.230281
C6    C     C_R   0.872638 0.525180 0.503159 -0.113467
C7    C     C_R   0.507335 0.813840 0.529942 -0.108465
C8    C     C_R   0.524814 0.189040 0.468776 -0.065826
C9    C     C_R   0.600868 0.029009 0.372997 -0.230652
C10   C     C_R   0.591826 0.136224 0.381255 -0.021655
C11   C     C_R   0.475922 0.134792 0.549783 -0.254933
C12   C     C_R   0.263570 0.512140 0.499738 0.836155
C13   C     C_R   0.488021 0.028354 0.543133 0.145090
C14   C     C_R   0.548154 0.973402 0.452116 0.138619
C15   C     C_R   0.557266 0.864951 0.444840 -0.059128
C16   C     C_R   0.451699 0.870497 0.621268 -0.189098
C17   C     C_R   0.441113 0.976778 0.627290 -0.178765
C18   C     C_R   0.382710 0.402258 0.022692 -0.274693
C19   C     C_R   0.394440 0.408902 0.142219 0.377991
C20   C     C_R   0.553634 0.542189 0.157788 0.085141
C21   C     C_R   0.546613 0.535653 0.034844 -0.011107
C22   C     C_R   0.457321 0.465530 0.966629 -0.037075
C23   C     C_R   0.504563 0.700568 0.520452 0.743984
C24   C     C_R   0.446310 0.458184 0.844005 0.313563
C25   C     C_R   0.610283 0.587025 0.855880 0.014125
C26   C     C_R   0.625590 0.595546 0.977416 0.071477
C27   C     C_R   0.737895 0.508521 0.501585 0.821250
C28   C     C_R   0.153597 0.647542 0.688848 -0.149200
C29   C     C_R   0.100030 0.704415 0.780530 -0.113454
C30   C     C_R   0.971741 0.705907 0.779097 -0.105320
C31   C     C_R   0.896389 0.648775 0.687168 -0.174260
C32   C     C_R   0.947903 0.584831 0.596939 0.097256
Cu1   Cu    Cu3+1 0.509250 0.507730 0.615930 0.972056
Cu2   Cu    Cu3+1 0.490750 0.492270 0.384070 1.033485
H1    H     H_    0.395600 0.018671 0.697635 0.156846
H2    H     H_    0.427355 0.175421 0.618299 0.181278
H3    H     H_    0.669438 0.634873 0.813987 0.141554
H4    H     H_    0.315354 0.344590 0.975823 0.190407
H5    H     H_    0.620824 0.595536 0.212310 0.158477
H6    H     H_    0.252988 0.658344 0.689296 0.157901
H7    H     H_    0.158389 0.751437 0.850345 0.154373
H8    H     H_    0.930458 0.754496 0.847405 0.167549
H9    H     H_    0.798576 0.660890 0.684066 0.137486
H10   H     H_    0.866720 0.454440 0.324342 0.192149
H11   H     H_    0.412434 0.831803 0.686205 0.159828
H12   H     H_    0.654405 0.990740 0.306815 0.179850
N1    N     N_R   0.523180 0.519350 0.790130 -0.215256
N2    N     N_R   0.476820 0.480650 0.209890 -0.198659
O1    O     O_R   0.506570 0.354460 0.582000 -0.567893
O2    O     O_R   0.490940 0.341410 0.386200 -0.539968
O3    O     O_R   0.327470 0.506530 0.597920 -0.571812
O4    O     O_R   0.311840 0.493480 0.402120 -0.529157
O5    O     O_R   0.509060 0.658590 0.613800 -0.608914
O6    O     O_R   0.493430 0.645540 0.418000 -0.572169
O7    O     O_R   0.688160 0.506520 0.597880 -0.591084
O8    O     O_R   0.672530 0.493470 0.402080 -0.571206
C33   C     C_2   0.090038 0.492312 0.275358 0.449954
H13   H     H_    0.046347 0.431667 0.208513 0.080107
O9    O     O_2   0.162103 0.557145 0.248465 -0.498129
C34   C     C_2   0.660405 0.188755 0.300476 0.390764
H14   H     H_    0.672174 0.147464 0.214836 0.081644
O10   O     O_2   0.711156 0.275220 0.330579 -0.546281
I1    I     I_    0.305707 0.349488 0.747326 -0.359459
I2    I     I_    0.775413 0.695268 0.064917 -0.367843
I3    I     I_    0.281457 0.295508 0.203645 -0.340367
C35   C     C_2   0.619262 0.804864 0.350118 0.387098
H15   H     H_    0.690565 0.752479 0.369986 0.058531
O11   O     O_2   0.585780 0.809273 0.249331 -0.516277

loop_
_geom_bond_atom_site_label_1
_geom_bond_atom_site_label_2
_ccdc_geom_bond_type
C16   H11   S    
Cu1   O7    S    
C10   C34   S    
C9    C14   A    
C19   I3    S    
C29   C30   A    
Cu1   O3    S    
C1    C8    S    
C9    C10   A    
C25   N1    A    
C6    C32   A    
C31   C32   A    
C14   C15   A    
C13   C17   A    
C30   C31   A    
C21   C26   A    
C25   H3    S    
C24   N1    A    
C7    C15   A    
C2    C3    A    
C18   H4    S    
C9    H12   S    
C18   C22   A    
C21   C22   A    
Cu2   O8    S    
C11   C13   A    
Cu2   O6    S    
C33   H13   S    
C20   N2    A    
C31   H9    S    
C8    C11   A    
C7    C23   S    
C2    C32   A    
C8    C10   A    
C28   C29   A    
C12   O4    A    
C5    H10   S    
Cu1   Cu2   S    
C23   O5    A    
C24   I1    S    
C27   O7    A    
Cu1   O5    S    
C5    C6    A    
Cu1   N1    S    
C16   C17   A    
C22   C24   A    
Cu2   O2    S    
C33   O9    D    
C35   O11   D    
C28   H6    S    
Cu1   O1    S    
C3    C4    A    
Cu2   O4    S    
C12   O3    A    
Cu2   N2    S    
C20   C21   A    
C7    C16   A    
C23   O6    A    
C34   O10   D    
C18   C19   A    
C1    O2    A    
C35   H15   S    
C20   H5    S    
C26   I2    S    
C27   O8    A    
C4    C5    A    
C2    C28   A    
C3    C12   S    
C17   H1    S    
C29   H7    S    
C25   C26   A    
C13   C14   A    
C15   C35   S    
C1    O1    A    
C30   H8    S    
C6    C27   S    
C4    C33   S    
C19   N2    A    
C34   H14   S    
C11   H2    S    
