data_mof_unit_67672.cif
_audit_creation_date              2013-03-05T16:48:40-0500
_audit_creation_method            fapswitch 2.2
_symmetry_space_group_name_H-M    P1
_symmetry_Int_Tables_number       1
_space_group_crystal_system       triclinic
_cell_length_a                    11.036354
_cell_length_b                    10.924716
_cell_length_c                    10.558549
_cell_angle_alpha                 90.687882
_cell_angle_beta                  90.575267
_cell_angle_gamma                 87.743216
_cell_volume                      1271.89666533

loop_
_atom_site_label
_atom_site_type_symbol
_atom_site_description
_atom_site_fract_x
_atom_site_fract_y
_atom_site_fract_z
_atom_type_partial_charge
O1    O     O_R   0.499990 0.319650 0.605810 -0.570598
O2    O     O_R   0.500010 0.680350 0.394190 -0.595421
O3    O     O_R   0.499990 0.319640 0.394190 -0.586433
O4    O     O_R   0.500010 0.680360 0.605810 -0.586793
C1    C     C_R   0.509470 0.261930 0.498936 0.878276
C2    C     C_R   0.495383 0.738750 0.501016 0.834322
O5    O     O_R   0.319640 0.500010 0.605810 -0.516553
O6    O     O_R   0.680360 0.499990 0.394190 -0.509808
O7    O     O_R   0.319650 0.500010 0.394190 -0.596098
O8    O     O_R   0.680350 0.499990 0.605810 -0.601814
C3    C     C_R   0.261719 0.512410 0.499681 0.899273
C4    C     C_R   0.737813 0.512243 0.500218 0.917733
Cu1   Cu    Cu3+1 0.500000 0.500000 0.625300 1.052167
Cu2   Cu    Cu3+1 0.500000 0.500000 0.374700 1.039219
H1    H     H_    0.253339 0.448146 0.926932 0.203708
H2    H     H_    0.693163 0.668185 0.033135 0.178648
C5    C     C_R   0.230539 0.578606 0.078149 -0.105716
C6    C     C_R   0.774295 0.523153 0.919681 -0.093397
H3    H     H_    0.279203 0.646903 0.029171 0.179054
H4    H     H_    0.744068 0.450545 0.978342 0.184207
C7    C     C_R   0.182889 0.604762 0.197539 0.523591
C8    C     C_R   0.842524 0.491882 0.813726 0.474862
C9    C     C_R   0.118483 0.512929 0.259429 0.018634
C10   C     C_R   0.869919 0.585591 0.728889 0.043251
C11   C     C_R   0.104070 0.398947 0.200050 -0.187781
C12   C     C_R   0.831719 0.707491 0.754500 -0.221047
H5    H     H_    0.054385 0.329280 0.246817 0.221094
H6    H     H_    0.847987 0.778437 0.686790 0.210907
C13   C     C_R   0.152753 0.374900 0.080717 0.419548
C14   C     C_R   0.779795 0.738967 0.870439 0.387282
C15   C     C_R   0.215989 0.464855 0.020065 -0.235823
C16   C     C_R   0.744184 0.645831 0.949199 -0.196039
C17   C     C_R   0.933523 0.551270 0.384990 0.451545
C18   C     C_R   0.063861 0.571464 0.610134 0.408744
C19   C     C_R   0.871165 0.536430 0.499248 -0.223306
C20   C     C_R   0.127700 0.536774 0.498512 -0.260100
C21   C     C_R   0.936635 0.558522 0.611850 -0.162853
C22   C     C_R   0.060256 0.534276 0.383371 -0.158264
H7    H     H_    0.655695 0.248387 0.939577 0.184090
H8    H     H_    0.262948 0.877735 0.056846 0.223171
C23   C     C_R   0.516797 0.171270 0.051417 -0.079475
C24   C     C_R   0.415643 0.831041 0.938655 -0.131835
H9    H     H_    0.448773 0.178661 0.977118 0.191179
H10   H     H_    0.464952 0.781591 0.012308 0.154650
C25   C     C_R   0.487974 0.122133 0.168221 -0.135199
C26   C     C_R   0.466517 0.841996 0.819189 -0.023848
H11   H     H_    0.397199 0.091781 0.183575 0.196632
H12   H     H_    0.555599 0.802258 0.801930 0.170001
C27   C     C_R   0.575894 0.111289 0.264921 -0.036940
C28   C     C_R   0.404608 0.907039 0.723247 -0.025157
C29   C     C_R   0.695169 0.148362 0.242711 0.428292
C30   C     C_R   0.287329 0.960015 0.747925 0.477896
C31   C     C_R   0.721879 0.200194 0.125707 -0.068078
C32   C     C_R   0.237535 0.947486 0.868672 -0.028034
H13   H     H_    0.811648 0.231393 0.107590 0.222041
H14   H     H_    0.148272 0.986134 0.889618 0.241518
C33   C     C_R   0.633490 0.210619 0.030354 -0.113174
C34   C     C_R   0.301967 0.885186 0.963809 -0.154083
C35   C     C_R   0.531900 0.930703 0.390787 -0.109970
C36   C     C_R   0.496164 0.069325 0.610395 -0.076426
H15   H     H_    0.550637 0.877531 0.305474 0.165639
H16   H     H_    0.480376 0.122598 0.696549 0.170855
C37   C     C_R   0.498084 0.872954 0.502421 -0.049277
C38   C     C_R   0.519529 0.127946 0.497510 -0.043300
C39   C     C_R   0.472633 0.945724 0.611630 0.035486
C40   C     C_R   0.541289 0.057391 0.386464 0.057049
N1    N     N_1   0.500010 0.499990 0.186410 -0.142724
N2    N     N_1   0.499990 0.500010 0.813590 -0.135402
C41   C     C_1   0.500292 0.499544 0.072352 0.049457
C42   C     C_1   0.499467 0.499581 0.927643 0.029372
S1    S     S_3+6 0.813002 0.126573 0.356397 0.028774
O9    O     O_2   0.934424 0.132950 0.294184 -0.254625
O10   O     O_2   0.801126 0.225191 0.456394 -0.323862
O11   O     O_3   0.803673 0.988956 0.424654 -0.495819
H17   H     H_    0.867978 0.986714 0.490815 0.412606
S2    S     S_3+6 0.200386 0.039602 0.629168 0.037959
O12   O     O_2   0.071015 0.060199 0.670111 -0.220008
O13   O     O_2   0.251997 0.162113 0.604401 -0.342183
O14   O     O_3   0.203976 0.955850 0.494451 -0.505084
H18   H     H_    0.161830 0.008228 0.430456 0.404264
O15   O     O_3   0.199719 0.720078 0.248385 -0.712959
H19   H     H_    0.157609 0.729047 0.330358 0.360421
O16   O     O_3   0.873209 0.369419 0.793333 -0.667486
H20   H     H_    0.924398 0.359346 0.717311 0.355361
S3    S     S_3+6 0.135427 0.231985 0.007789 0.004790
O17   O     O_2   0.175203 0.132997 0.098335 -0.295194
O18   O     O_2   0.004639 0.216212 0.973229 -0.209659
O19   O     O_3   0.220084 0.222066 0.876565 -0.562831
H21   H     H_    0.174968 0.273353 0.813783 0.389111
S4    S     S_3+6 0.767450 0.893657 0.919855 0.019369
O20   O     O_2   0.890076 0.933769 0.962912 -0.210265
O21   O     O_2   0.724955 0.972822 0.811478 -0.276743
O22   O     O_3   0.669644 0.910695 0.040341 -0.576478
H22   H     H_    0.719071 0.896291 0.117894 0.387220
S5    S     S_3+6 0.855711 0.608381 0.249354 0.002721
O23   O     O_2   0.936258 0.669091 0.157322 -0.238628
O24   O     O_2   0.800003 0.500289 0.186517 -0.357911
O25   O     O_3   0.748340 0.712448 0.295889 -0.531149
H23   H     H_    0.677201 0.698069 0.240951 0.354870
S6    S     S_3+6 0.126014 0.669811 0.728636 -0.017063
O26   O     O_2   0.085009 0.633197 0.857292 -0.324019
O27   O     O_2   0.260909 0.678401 0.731309 -0.286877
O28   O     O_3   0.066677 0.809603 0.696997 -0.500548
H24   H     H_    0.033978 0.841449 0.778318 0.389294

loop_
_geom_bond_atom_site_label_1
_geom_bond_atom_site_label_2
_geom_bond_distance
_ccdc_geom_bond_type
C37   C39   1.416836 A    
O22   H22   0.990046 S    
C18   C21   1.417055 A    
S5    O23   1.501202 D    
S2    O14   1.681976 S    
C14   S4    1.763188 S    
C24   C34   1.392432 A    
O15   H19   0.988519 S    
S5    O25   1.682358 S    
S3    O17   1.501732 D    
O5    C3    1.290384 A    
C29   S1    1.771951 S    
O1    C1    1.289197 A    
C3    C20   1.492444 S    
C19   C21   1.408345 A    
C10   C12   1.404915 A    
C35   C40   1.393302 A    
H7    C33   1.082194 S    
C36   H16   1.085835 S    
C24   C26   1.394203 A    
O4    Cu1   1.983558 S    
C17   C19   1.409069 A    
C27   C29   1.415032 A    
C28   C30   1.422078 A    
Cu2   N1    1.988069 S    
C13   S3    1.748956 S    
C25   H11   1.081940 S    
Cu1   Cu2   2.645972 S    
C23   H9    1.081888 S    
O2    C2    1.289643 A    
C24   H10   1.082213 S    
C17   S5    1.769828 S    
C30   C32   1.403678 A    
C26   H12   1.075330 S    
C31   H13   1.079938 S    
C11   C13   1.392760 A    
C32   H14   1.080303 S    
C35   H15   1.083195 S    
H8    C34   1.081772 S    
C27   C40   1.478223 S    
S3    O18   1.501273 D    
S2    O12   1.503603 D    
O4    C2    1.283372 A    
O11   H17   0.990621 S    
S1    O10   1.502340 D    
C31   C33   1.397305 A    
O3    C1    1.280943 A    
S6    O28   1.673866 S    
C5    C7    1.392880 A    
C1    C38   1.463484 S    
N1    C41   1.204268 T    
C38   C40   1.412763 A    
C2    C37   1.467519 S    
O7    Cu2   2.003066 S    
S4    O21   1.502799 D    
O16   H20   0.988762 S    
C25   C27   1.404266 A    
O6    C4    1.289215 A    
S6    O27   1.495352 D    
C10   C21   1.465965 S    
C4    C19   1.505615 S    
O7    C3    1.292902 A    
O3    Cu2   1.983559 S    
O8    C4    1.299065 A    
C7    O15   1.382018 S    
C36   C39   1.385296 A    
C12   C14   1.390549 A    
C7    C9    1.421272 A    
C11   H5    1.082174 S    
C5    C15   1.393426 A    
C8    C10   1.411972 A    
O1    Cu1   1.978536 S    
S4    O22   1.680548 S    
C32   C34   1.393507 A    
S3    O19   1.678933 S    
O6    Cu2   1.999066 S    
C6    C8    1.386637 A    
C12   H6    1.082080 S    
S2    O13   1.501857 D    
C30   S2    1.784729 S    
O8    Cu1   2.003065 S    
S1    O11   1.682260 S    
S5    O24   1.497601 D    
H1    C15   1.080796 S    
H2    C16   1.075226 S    
C9    C22   1.475689 S    
C26   C28   1.401096 A    
C35   C37   1.404226 A    
C17   C22   1.403915 A    
C36   C38   1.390959 A    
C8    O16   1.381955 S    
C20   C22   1.419650 A    
C23   C33   1.394450 A    
S1    O9    1.502742 D    
C13   C15   1.393212 A    
C14   C16   1.392715 A    
S4    O20   1.503272 D    
S6    O26   1.499912 D    
C5    H3    1.076557 S    
C18   C20   1.419136 A    
C6    H4    1.077449 S    
C9    C11   1.401355 A    
C41   C42   1.527864 S    
O2    Cu2   1.978536 S    
C28   C39   1.478456 S    
O14   H18   0.991139 S    
O5    Cu1   1.999067 S    
C6    C16   1.400269 A    
O19   H21   0.990747 S    
N2    C42   1.204370 T    
O25   H23   0.987901 S    
O28   H24   0.988775 S    
C23   C25   1.395548 A    
C29   C31   1.403914 A    
C18   S6    1.788562 S    
Cu1   N2    1.988070 S    
