data_mof_unit_17346.cif
_audit_creation_date              2012-12-10T17:57:23-0500
_audit_creation_method            fapswitch 2.2
_symmetry_space_group_name_H-M    P1
_symmetry_Int_Tables_number       1
_space_group_crystal_system       triclinic
_cell_length_a                    9.542976
_cell_length_b                    10.832058
_cell_length_c                    13.469203
_cell_angle_alpha                 90.530749
_cell_angle_beta                  73.330267
_cell_angle_gamma                 90.207424
_cell_volume                      1333.74145333

loop_
_atom_site_label
_atom_site_type_symbol
_atom_type_description
_atom_site_fract_x
_atom_site_fract_y
_atom_site_fract_z
_atom_type_partial_charge
C1    C     C_R   0.500108 0.737855 0.500181 0.793538
C2    C     C_R   0.446912 0.439752 0.974311 0.078298
C3    C     C_R   0.492498 0.439901 0.864436 0.091338
C4    C     C_R   0.553196 0.459749 0.028353 0.067642
C5    C     C_R   0.703113 0.469139 0.972076 0.176165
C6    C     C_R   0.747270 0.445698 0.866237 -0.257489
C7    C     C_R   0.643801 0.425854 0.813999 -0.198710
C8    C     C_R   0.514972 0.475567 0.136136 -0.215853
C9    C     C_R   0.768462 0.509738 0.129837 -0.195475
C10   C     C_R   0.384835 0.451968 0.809943 -0.104491
C11   C     C_R   0.628114 0.936590 0.498293 -0.176444
C12   C     C_R   0.423950 0.485123 0.698714 0.785613
C13   C     C_R   0.627978 0.064317 0.498160 -0.181191
C14   C     C_R   0.499774 0.128265 0.500108 -0.024537
C15   C     C_R   0.371685 0.063432 0.502308 -0.144142
C16   C     C_R   0.371847 0.935716 0.502363 -0.183771
C17   C     C_R   0.500089 0.871757 0.500295 -0.025072
C18   C     C_R   0.899975 0.576912 0.564649 -0.052484
C19   C     C_R   0.048652 0.576864 0.564656 -0.107240
C20   C     C_R   0.098417 0.422338 0.435539 0.464196
C21   C     C_R   0.950198 0.423044 0.435770 -0.069968
C22   C     C_R   0.499848 0.262143 0.499947 0.805844
C23   C     C_R   0.577635 0.500753 0.300345 0.829600
C24   C     C_R   0.808120 0.498602 0.022561 -0.201130
C25   C     C_R   0.621803 0.496012 0.187135 -0.053998
C26   C     C_R   0.237194 0.432877 0.863804 -0.197359
C27   C     C_R   0.196065 0.409024 0.969514 -0.152471
C28   C     C_R   0.297674 0.417620 0.025226 -0.167710
Cu1   Cu    Cu3+1 0.359340 0.499980 0.500000 0.988226
Cu2   Cu    Cu3+1 0.640660 0.500020 0.500000 0.941943
H1    H     H_    0.852150 0.529225 0.167719 0.160332
H2    H     H_    0.728193 0.112683 0.496447 0.157933
H3    H     H_    0.271386 0.111069 0.504098 0.182878
H4    H     H_    0.271618 0.887364 0.504103 0.154261
H5    H     H_    0.083856 0.638477 0.616494 0.140784
H6    H     H_    0.913614 0.361452 0.384534 0.156536
H7    H     H_    0.920573 0.513632 0.978427 0.133209
H8    H     H_    0.402370 0.473478 0.182020 0.186058
H9    H     H_    0.153550 0.433988 0.823873 0.148361
H10   H     H_    0.256823 0.402021 0.107421 0.163443
H11   H     H_    0.728334 0.888915 0.496707 0.154028
N1    N     N_R   0.147940 0.499970 0.499970 -0.183701
N2    N     N_R   0.852060 0.500060 0.499990 -0.186603
O1    O     O_R   0.381250 0.680340 0.500010 -0.588332
O2    O     O_R   0.618820 0.680370 0.500010 -0.584389
O3    O     O_R   0.323240 0.499950 0.650980 -0.586142
O4    O     O_R   0.560810 0.499980 0.650980 -0.594982
O5    O     O_R   0.381180 0.319630 0.499990 -0.538983
O6    O     O_R   0.618750 0.319660 0.499990 -0.602811
O7    O     O_R   0.439190 0.500020 0.349020 -0.538163
O8    O     O_R   0.676760 0.500050 0.349020 -0.590441
H12   H     H_    0.823434 0.638548 0.616570 0.142491
Cl1   Cl    Cl    0.214480 0.317490 0.350723 -0.677584
H13   H     H_    0.862402 0.441544 0.823661 0.141850
H14   H     H_    0.084159 0.385925 0.009732 0.147651
H15   H     H_    0.686409 0.394579 0.734994 0.189448

loop_
_geom_bond_atom_site_label_1
_geom_bond_atom_site_label_2
_ccdc_geom_bond_type
C20   N1    A    
Cu2   O8    S    
C9    C24   A    
C11   H11   S    
Cu1   Cu2   S    
C21   N2    A    
Cu1   N1    S    
C1    O1    A    
C22   O5    A    
C19   N1    A    
Cu1   O3    S    
C4    C8    A    
C1    O2    A    
C14   C22   S    
C12   O4    A    
C2    C3    A    
Cu2   O2    S    
C9    C25   A    
C3    C10   A    
C19   H5    S    
C13   C14   A    
C8    C25   A    
C11   C13   A    
C10   C26   A    
C26   C27   A    
C6    C7    A    
C5    C24   A    
C8    H8    S    
C7    H15   S    
C6    H13   S    
C22   O6    A    
C2    C4    A    
C10   C12   S    
Cu2   O6    S    
C24   H7    S    
C3    C7    A    
Cu1   O7    S    
C23   C25   S    
Cu1   O1    S    
C5    C6    A    
Cu2   N2    S    
C27   H14   S    
C26   H9    S    
C28   H10   S    
Cu1   O5    S    
C18   H12   S    
C15   C16   A    
Cu2   O4    S    
C4    C5    A    
C20   C21   A    
C12   O3    A    
C18   C19   A    
C27   C28   A    
C21   H6    S    
C9    H1    S    
C14   C15   A    
C20   Cl1   S    
C23   O7    A    
C2    C28   A    
C13   H2    S    
C16   H4    S    
C18   N2    A    
C23   O8    A    
C15   H3    S    
C1    C17   S    
C11   C17   A    
C16   C17   A    
