data_mof_unit_51668.cif
_audit_creation_date              2012-12-10T18:48:22-0500
_audit_creation_method            fapswitch 2.2
_symmetry_space_group_name_H-M    P1
_symmetry_Int_Tables_number       1
_space_group_crystal_system       triclinic
_cell_length_a                    10.711518
_cell_length_b                    9.969447
_cell_length_c                    11.518713
_cell_angle_alpha                 89.951672
_cell_angle_beta                  92.791355
_cell_angle_gamma                 92.660639
_cell_volume                      1227.27416095

loop_
_atom_site_label
_atom_site_type_symbol
_atom_type_description
_atom_site_fract_x
_atom_site_fract_y
_atom_site_fract_z
_atom_type_partial_charge
C1    C     C_R   0.260223 0.496651 0.510320 0.874575
C2    C     C_R   0.944889 0.625366 0.500282 -0.127317
C3    C     C_R   0.929234 0.385898 0.450584 -0.114386
C4    C     C_R   0.067992 0.612312 0.541143 -0.110004
C5    C     C_R   0.872714 0.507972 0.470067 -0.156712
C6    C     C_R   0.125356 0.490244 0.522700 -0.176664
C7    C     C_R   0.565751 0.074429 0.585990 0.226242
C8    C     C_R   0.445350 0.925044 0.408506 0.201434
C9    C     C_R   0.448269 0.069623 0.407013 0.182939
C10   C     C_R   0.556533 0.930725 0.590105 0.198439
C11   C     C_2   0.101871 0.235824 0.506608 0.945579
C12   C     C_R   0.739005 0.502944 0.487474 0.874423
C13   C     C_2   0.898494 0.760720 0.473264 0.965255
C14   C     C_2   0.858433 0.277467 0.383209 1.036856
C15   C     C_2   0.135727 0.722317 0.608859 1.041277
C16   C     C_3   0.770522 0.102263 0.700386 -0.671278
C17   C     C_3   0.423636 0.849282 0.204902 -0.725843
C18   C     C_3   0.298424 0.165176 0.264902 -0.666875
C19   C     C_3   0.553128 0.883667 0.800014 -0.681380
C20   C     C_R   0.499950 0.499902 0.282225 0.921284
C21   C     C_R   0.500603 0.499916 0.717803 0.897781
C22   C     C_1   0.501075 0.499378 0.161733 -0.167235
C23   C     C_1   0.501179 0.499468 0.838385 -0.159224
C24   C     C_1   0.501590 0.499086 0.059460 0.009099
C25   C     C_1   0.501564 0.499167 0.940704 0.015765
C26   C     C_R   0.053359 0.372499 0.489345 -0.126066
H1    H     H_    0.118238 0.049338 0.443366 0.372857
H2    H     H_    0.381323 0.928692 0.150532 0.219571
H3    H     H_    0.395701 0.752440 0.161828 0.248406
H4    H     H_    0.527445 0.862041 0.208251 0.252733
H5    H     H_    0.480941 0.111086 0.234079 0.220855
H6    H     H_    0.296190 0.211180 0.177030 0.221346
H7    H     H_    0.262478 0.238861 0.324784 0.274950
H8    H     H_    0.238036 0.071904 0.261283 0.239056
H9    H     H_    0.661979 0.782548 0.677676 0.262748
H10   H     H_    0.628473 0.910484 0.866553 0.231893
H11   H     H_    0.503196 0.790118 0.827602 0.250142
H12   H     H_    0.906616 0.956761 0.510825 0.387423
H13   H     H_    0.485512 0.965047 0.795945 0.241185
H14   H     H_    0.761652 0.225018 0.234362 0.340541
H15   H     H_    0.226749 0.903931 0.607906 0.348562
H16   H     H_    0.651006 0.248159 0.661586 0.289587
H17   H     H_    0.842732 0.179515 0.675666 0.241794
H18   H     H_    0.790311 0.008756 0.656053 0.275748
H19   H     H_    0.780589 0.086797 0.795687 0.242357
H20   H     H_    0.280399 0.856539 0.321879 0.241703
N1    N     N_R   0.500000 0.857200 0.500000 -0.135061
N2    N     N_R   0.500000 0.142800 0.500000 -0.142787
N3    N     N_2   0.646006 0.146998 0.670194 -0.296451
N4    N     N_2   0.375961 0.849320 0.320493 -0.247267
N5    N     N_2   0.425693 0.137674 0.300245 -0.270114
N6    N     N_2   0.607729 0.863633 0.688933 -0.286958
O1    O     O_R   0.316770 0.614620 0.499990 -0.593389
O2    O     O_R   0.079404 0.136962 0.421344 -0.814632
O3    O     O_2   0.837626 0.778726 0.382360 -0.587818
O4    O     O_R   0.928809 0.868544 0.547704 -0.813331
O5    O     O_2   0.833498 0.169290 0.428360 -0.633789
O6    O     O_R   0.812314 0.304163 0.270387 -0.795233
O7    O     O_2   0.158646 0.707548 0.712952 -0.622434
O8    O     O_R   0.178828 0.838603 0.552824 -0.803199
O9    O     O_R   0.683230 0.385380 0.500010 -0.636247
O10   O     O_R   0.683230 0.614620 0.500010 -0.613548
O11   O     O_R   0.316770 0.385380 0.499990 -0.601650
O12   O     O_R   0.500020 0.614670 0.334450 -0.577712
O13   O     O_R   0.499980 0.385330 0.665550 -0.628865
O14   O     O_R   0.499980 0.614670 0.665550 -0.618440
O15   O     O_R   0.500020 0.385330 0.334450 -0.587794
O16   O     O_2   0.159093 0.209034 0.597548 -0.596715
Zn1   Zn    Zn3+2 0.500000 0.653120 0.500000 1.002447
Zn2   Zn    Zn3+2 0.500000 0.346880 0.500000 0.989564

loop_
_geom_bond_atom_site_label_1
_geom_bond_atom_site_label_2
_ccdc_geom_bond_type
C16   H19   S    
C17   N4    S    
C7    C10   A    
C2    C4    A    
C20   O12   A    
C17   H4    S    
C3    C14   S    
C21   O14   A    
H12   O4    S    
C17   H3    S    
C15   O8    S    
C16   H18   S    
C20   O15   A    
C9    N5    S    
O11   Zn2   S    
C3    C5    A    
O15   Zn2   S    
C10   N6    S    
C7    N2    A    
C13   O4    S    
C4    C15   S    
C21   C23   S    
C8    N1    A    
O1    Zn1   S    
O9    Zn2   S    
O12   Zn1   S    
C24   C25   S    
C12   O9    A    
C18   H8    S    
C16   H17   S    
C6    C26   A    
C11   O2    S    
C19   H13   S    
C5    C12   S    
C1    O11   A    
C20   C22   S    
C18   N5    S    
O10   Zn1   S    
C19   H10   S    
C23   C25   T    
C14   O6    S    
C18   H7    S    
C22   C24   T    
H1    O2    S    
O14   Zn1   S    
H14   O6    S    
C12   O10   A    
H16   N3    S    
C1    C6    S    
C2    C5    A    
C8    N4    S    
H9    N6    S    
C18   H6    S    
C16   N3    S    
C7    N3    S    
C9    N2    A    
C4    C6    A    
H5    N5    S    
C10   N1    A    
C2    C13   S    
C14   O5    D    
H20   N4    S    
C11   O16   D    
N1    Zn1   S    
C1    O1    A    
C19   H11   S    
C11   C26   S    
C21   O13   A    
C17   H2    S    
C15   O7    D    
C19   N6    S    
C3    C26   A    
O13   Zn2   S    
H15   O8    S    
N2    Zn2   S    
C8    C9    A    
C13   O3    D    
