data_mof_unit_42723.cif
_audit_creation_date              2013-03-05T15:43:01-0500
_audit_creation_method            fapswitch 2.2
_symmetry_space_group_name_H-M    P1
_symmetry_Int_Tables_number       1
_space_group_crystal_system       triclinic
_cell_length_a                    10.722324
_cell_length_b                    10.63988
_cell_length_c                    10.138846
_cell_angle_alpha                 88.083897
_cell_angle_beta                  104.887168
_cell_angle_gamma                 91.412287
_cell_volume                      1117.07751267

loop_
_atom_site_label
_atom_site_type_symbol
_atom_site_description
_atom_site_fract_x
_atom_site_fract_y
_atom_site_fract_z
_atom_type_partial_charge
O1    O     O_R   0.499980 0.319060 0.613030 -0.660281
O2    O     O_R   0.500020 0.319100 0.386910 -0.615627
C1    C     C_R   0.492324 0.262724 0.499965 0.963477
O3    O     O_R   0.317800 0.500000 0.570840 -0.617038
O4    O     O_R   0.317840 0.500040 0.344720 -0.650320
C2    C     C_R   0.259709 0.489218 0.441993 0.853240
Zn1   Zn    Zn3+2 0.499970 0.499970 0.650990 1.022575
Zn2   Zn    Zn3+2 0.500030 0.500030 0.349010 1.008218
O5    O     O_R   0.499980 0.680900 0.613090 -0.567936
O6    O     O_R   0.500020 0.680940 0.386970 -0.536242
O7    O     O_R   0.682160 0.499960 0.655280 -0.624640
O8    O     O_R   0.682200 0.500000 0.429160 -0.582980
C3    C     C_R   0.495144 0.737051 0.496422 0.980074
C4    C     C_R   0.741520 0.494207 0.558381 0.860706
H1    H     H_    0.078483 0.584950 0.517651 0.171996
C5    C     C_2   0.128782 0.438530 0.410655 0.256442
C6    C     C_2   0.050699 0.493069 0.473795 -0.252475
C7    C     C_2   0.881309 0.480471 0.591944 -0.231897
C8    C     C_2   0.932791 0.432886 0.495737 0.047126
C9    C     C_2   0.413201 0.934942 0.383948 0.009259
C10   C     C_2   0.490567 0.870086 0.488675 -0.287558
H2    H     H_    0.561455 0.916206 0.569226 0.134251
C11   C     C_2   0.429997 0.070546 0.381360 -0.225611
C12   C     C_2   0.463460 0.131461 0.498597 -0.295491
H3    H     H_    0.416234 0.119769 0.283110 0.161844
H4    H     H_    0.464057 0.085067 0.595899 0.143396
C13   C     C_2   0.563415 0.584238 0.937550 0.621176
N1    N     N_2   0.501330 0.501330 0.852460 0.042577
C14   C     C_2   0.583702 0.563705 0.093217 -0.037180
N2    N     N_2   0.501370 0.501360 0.148130 -0.189477
C15   C     C_2   0.860129 0.339677 0.395983 0.560199
H5    H     H_    0.867061 0.343527 0.291056 0.061884
O9    O     O_2   0.792995 0.257511 0.431363 -0.573601
O10   O     O_3   0.498338 0.386470 0.915060 -0.633017
C16   C     C_3   0.399097 0.308724 0.838261 0.275048
H6    H     H_    0.444956 0.230314 0.800237 0.167957
H7    H     H_    0.330773 0.358229 0.753397 0.203244
C17   C     C_3   0.320909 0.245493 0.928994 -0.963625
H8    H     H_    0.239368 0.305454 0.934306 0.259182
H9    H     H_    0.278410 0.155319 0.884343 0.238885
H10   H     H_    0.382900 0.225297 0.033149 0.260642
C18   C     C_2   0.704816 0.610460 0.183399 0.408859
H11   H     H_    0.796173 0.572859 0.177077 -0.013811
O11   O     O_2   0.703990 0.696197 0.260103 -0.533047
C19   C     C_2   0.367596 0.508794 0.077776 0.705393
H12   H     H_    0.300649 0.441346 0.104150 -0.003040
O12   O     O_2   0.324825 0.595669 0.998174 -0.565209
C20   C     C_2   0.961174 0.536385 0.719371 0.389180
H13   H     H_    0.917731 0.598292 0.776717 0.070250
O13   O     O_2   0.074870 0.510351 0.763832 -0.535018
O14   O     O_3   0.104490 0.314988 0.368719 -0.625642
C21   C     C_3   0.136274 0.297774 0.243951 0.068603
H14   H     H_    0.242102 0.287464 0.262028 0.161053
H15   H     H_    0.101615 0.376745 0.169356 0.148453
C22   C     C_3   0.072646 0.176732 0.181571 -0.803874
H16   H     H_    0.966023 0.183196 0.159648 0.261455
H17   H     H_    0.099438 0.160722 0.084762 0.210643
H18   H     H_    0.105391 0.095787 0.253196 0.265669
C23   C     C_2   0.312924 0.879037 0.270352 0.462594
H19   H     H_    0.278203 0.933235 0.175895 0.057262
O15   O     O_2   0.263273 0.776346 0.282767 -0.570969
O16   O     O_3   0.593892 0.699601 0.884157 -0.597746
C24   C     C_3   0.728802 0.721415 0.917188 0.066433
H20   H     H_    0.784506 0.633069 0.925465 0.098947
H21   H     H_    0.759228 0.772308 0.014284 0.179020
C25   C     C_3   0.763400 0.807120 0.808287 -0.767899
H22   H     H_    0.709082 0.895999 0.797529 0.254561
H23   H     H_    0.868324 0.830070 0.838138 0.211987
H24   H     H_    0.740654 0.759871 0.708898 0.237489

loop_
_geom_bond_atom_site_label_1
_geom_bond_atom_site_label_2
_geom_bond_distance
_ccdc_geom_bond_type
O4    Zn2   1.942783 S    
C25   H23   1.110565 S    
C22   H16   1.110604 S    
C24   H21   1.109360 S    
H1    C6    1.090325 S    
O16   C24   1.413600 S    
C13   O16   1.390385 S    
C14   C18   1.469144 S    
C13   C14   1.545607 S    
C4    C7    1.459159 S    
N2    C19   1.431288 S    
C15   H5    1.084674 S    
C5    O14   1.392865 S    
Zn2   O8    1.913140 S    
C8    C15   1.495845 S    
Zn2   N2    2.040005 S    
C16   C17   1.526054 S    
C15   O9    1.221385 D    
C25   H22   1.110394 S    
C24   C25   1.521428 S    
C3    C10   1.416395 S    
C23   H19   1.085700 S    
C22   H17   1.110594 S    
O1    Zn1   1.975548 S    
C10   H2    1.083963 S    
C21   H14   1.109570 S    
C9    C23   1.488066 S    
C17   H9    1.111134 S    
C12   H4    1.086871 S    
C1    C12   1.422781 S    
C14   N2    1.314646 D    
C18   O11   1.220011 D    
O3    Zn1   1.913139 S    
C20   O13   1.221484 D    
C20   H13   1.081103 S    
C16   H7    1.104211 S    
C21   C22   1.521025 S    
O8    C4    1.301230 A    
Zn1   O7    1.942783 S    
O2    C1    1.296406 A    
C19   O12   1.223479 D    
O4    C2    1.295817 A    
O7    C4    1.304334 A    
C23   O15   1.220516 D    
C25   H24   1.108702 S    
C18   H11   1.084893 S    
C11   C12   1.335146 D    
N1    O10   1.361630 S    
O14   C21   1.410678 S    
C11   H3    1.087076 S    
C17   H8    1.108293 S    
C9    C10   1.348473 D    
C17   H10   1.111014 S    
O3    C2    1.302345 A    
O10   C16   1.413083 S    
C22   H18   1.111055 S    
C13   N1    1.300932 D    
Zn1   O5    1.950412 S    
O5    C3    1.296752 A    
C7    C8    1.354985 D    
C16   H6    1.107046 S    
C6    C8    1.467285 S    
C19   H12   1.078043 S    
C9    C11   1.449796 S    
C2    C5    1.451735 S    
Zn2   O6    1.975548 S    
O2    Zn2   1.950411 S    
Zn1   N1    2.039510 S    
C24   H20   1.115350 S    
C21   H15   1.115612 S    
C5    C6    1.331057 D    
O1    C1    1.294343 A    
O6    C3    1.290849 A    
C7    C20   1.488026 S    
