data_mof_unit_40926.cif
_audit_creation_date              2012-12-10T17:01:29-0500
_audit_creation_method            fapswitch 2.2
_symmetry_space_group_name_H-M    P1
_symmetry_Int_Tables_number       1
_space_group_crystal_system       triclinic
_cell_length_a                    12.900051
_cell_length_b                    10.730436
_cell_length_c                    10.024099
_cell_angle_alpha                 90.198805
_cell_angle_beta                  96.794136
_cell_angle_gamma                 90.347499
_cell_volume                      1377.78595951

loop_
_atom_site_label
_atom_site_type_symbol
_atom_type_description
_atom_site_fract_x
_atom_site_fract_y
_atom_site_fract_z
_atom_type_partial_charge
C1    C     C_R   0.500279 0.262547 0.499386 0.959004
C2    C     C_2   0.496451 0.130390 0.496457 -0.468106
C3    C     C_2   0.568574 0.559196 0.937035 -0.134442
C4    C     C_R   0.298261 0.498686 0.473970 0.892321
C5    C     C_2   0.556158 0.578977 0.085996 0.550848
C6    C     C_R   0.504212 0.737264 0.500957 0.978226
C7    C     C_R   0.701706 0.500792 0.526008 0.916971
C8    C     C_R   0.813693 0.500947 0.541176 -0.142880
C9    C     C_R   0.186220 0.494571 0.458532 -0.155346
C10   C     C_R   0.021471 0.481163 0.318003 0.506353
C11   C     C_R   0.129539 0.486070 0.330842 -0.257323
C12   C     C_R   0.028782 0.497645 0.563703 -0.010201
C13   C     C_R   0.135986 0.498565 0.574115 -0.224667
C14   C     C_3   0.378771 0.356763 0.866805 0.179299
C15   C     C_3   0.286211 0.322255 0.941867 -0.400982
C16   C     C_3   0.255271 0.185724 0.918728 -0.942230
C17   C     C_3   0.668417 0.756159 0.096909 0.015082
C18   C     C_3   0.779609 0.704813 0.101249 -0.346063
C19   C     C_3   0.845161 0.782294 0.014876 -0.871673
C20   C     C_3   0.927489 0.355921 0.160566 0.063526
C21   C     C_3   0.000299 0.284326 0.078246 -0.329256
C22   C     C_3   0.954123 0.157105 0.034908 -0.950431
C23   C     C_R   0.970796 0.490807 0.434804 -0.028820
C24   C     C_R   0.863484 0.494886 0.425274 -0.263723
C25   C     C_R   0.870853 0.506315 0.668655 -0.282973
C26   C     C_R   0.978645 0.505493 0.680105 0.627630
C27   C     C_2   0.521961 0.932424 0.391663 -0.230323
C28   C     C_2   0.520297 0.868282 0.505006 -0.435789
C29   C     C_2   0.530300 0.066355 0.395182 0.654216
F1    F     F_    0.033597 0.513415 0.804123 -0.700848
F2    F     F_    0.569702 0.123639 0.290897 -0.669406
H1    H     H_    0.818383 0.492573 0.327086 0.200596
H2    H     H_    0.445135 0.293734 0.900701 0.119603
H3    H     H_    0.355290 0.341073 0.758422 0.187819
H4    H     H_    0.306883 0.338596 0.051342 0.229794
H5    H     H_    0.218445 0.382013 0.906629 0.268642
H6    H     H_    0.228811 0.168534 0.810673 0.265611
H7    H     H_    0.190626 0.162120 0.977976 0.274370
H8    H     H_    0.322366 0.124225 0.951611 0.275332
H9    H     H_    0.673799 0.846214 0.152392 0.190978
H10   H     H_    0.632709 0.780456 0.993917 0.135852
H11   H     H_    0.817404 0.706116 0.206818 0.243598
H12   H     H_    0.461595 0.086498 0.577787 0.113324
H13   H     H_    0.777858 0.606676 0.065610 0.223322
H14   H     H_    0.810584 0.778752 0.908020 0.255483
H15   H     H_    0.925490 0.744222 0.022307 0.300152
H16   H     H_    0.849530 0.880696 0.049928 0.256448
H17   H     H_    0.850344 0.365527 0.099314 0.165245
H18   H     H_    0.913491 0.300683 0.251065 0.134119
H19   H     H_    0.012919 0.338750 0.987455 0.283646
H20   H     H_    0.077005 0.270996 0.139426 0.209936
H21   H     H_    0.943691 0.099718 0.124424 0.267499
H22   H     H_    0.007337 0.107454 0.973866 0.270228
H23   H     H_    0.637603 0.594329 0.897655 0.104083
H24   H     H_    0.877443 0.168244 0.973048 0.269152
H25   H     H_    0.483250 0.417069 0.102233 0.161653
H26   H     H_    0.832448 0.511955 0.758945 0.183068
H27   H     H_    0.168699 0.482714 0.241042 0.187709
H28   H     H_    0.180379 0.504395 0.672789 0.229028
H29   H     H_    0.516252 0.886923 0.294061 0.213805
H30   H     H_    0.534198 0.911065 0.603782 0.157982
N1    N     N_2   0.501130 0.501330 0.852280 0.052904
N2    N     N_2   0.501160 0.501360 0.147950 -0.195184
O1    O     O_R   0.499980 0.319060 0.613040 -0.661875
O2    O     O_3   0.605434 0.675282 0.164436 -0.617691
O3    O     O_3   0.966873 0.477677 0.190411 -0.646844
O4    O     O_R   0.500020 0.319100 0.386900 -0.556809
O5    O     O_R   0.346340 0.499960 0.594380 -0.614686
O6    O     O_R   0.346380 0.500000 0.368250 -0.628211
O7    O     O_R   0.499980 0.680900 0.613100 -0.615020
O8    O     O_R   0.500020 0.680940 0.386960 -0.564801
O9    O     O_R   0.653620 0.500000 0.631750 -0.644948
O10   O     O_R   0.653660 0.500040 0.405620 -0.597951
O11   O     O_3   0.406353 0.482722 0.893342 -0.568849
Zn1   Zn    Zn3+2 0.499980 0.499970 0.650990 0.970699
Zn2   Zn    Zn3+2 0.500020 0.500030 0.349010 1.013200

loop_
_geom_bond_atom_site_label_1
_geom_bond_atom_site_label_2
_ccdc_geom_bond_type
C14   H3    S    
C23   C24   A    
C24   H1    S    
O10   Zn2   S    
C6    O7    A    
C20   H18   S    
C13   H28   S    
C18   H13   S    
C10   C23   A    
C27   C29   S    
C11   H27   S    
C16   H6    S    
C17   O2    S    
C2    H12   S    
C28   H30   S    
C7    O10   A    
C14   H2    S    
C10   O3    S    
C17   C18   S    
C4    C9    S    
C19   H15   S    
C7    C8    S    
C29   F2    S    
C20   H17   S    
C21   C22   S    
C12   C13   A    
O5    Zn1   S    
C8    C25   A    
C9    C11   A    
C12   C23   A    
C22   H24   S    
C25   H26   S    
O9    Zn1   S    
C14   O11   S    
C5    O2    S    
C21   H19   S    
C8    C24   A    
O1    Zn1   S    
C26   F1    S    
C22   H22   S    
C19   H16   S    
C27   H29   S    
C18   H11   S    
C12   C26   A    
O8    Zn2   S    
C3    H23   S    
C17   H10   S    
N1    Zn1   S    
H25   N2    S    
C4    O6    A    
C10   C11   A    
C16   H8    S    
C15   C16   S    
C1    O1    A    
C3    C5    S    
C15   H5    S    
C21   H20   S    
C2    C29   D    
C20   C21   S    
C5    N2    D    
O6    Zn2   S    
C22   H21   S    
C1    C2    S    
N2    Zn2   S    
C3    N1    D    
C20   O3    S    
C7    O9    A    
C15   H4    S    
C18   C19   S    
C9    C13   A    
C14   C15   S    
N1    O11   S    
O7    Zn1   S    
O4    Zn2   S    
C1    O4    A    
C25   C26   A    
C4    O5    A    
C6    C28   S    
C19   H14   S    
C16   H7    S    
C6    O8    A    
C27   C28   D    
C17   H9    S    
