data_mof_unit_49227.cif
_audit_creation_date              2013-03-05T16:07:29-0500
_audit_creation_method            fapswitch 2.2
_symmetry_space_group_name_H-M    P1
_symmetry_Int_Tables_number       1
_space_group_crystal_system       triclinic
_cell_length_a                    8.366267
_cell_length_b                    15.246864
_cell_length_c                    18.854166
_cell_angle_alpha                 103.321451
_cell_angle_beta                  91.144493
_cell_angle_gamma                 99.537062
_cell_volume                      2303.72466739

loop_
_atom_site_label
_atom_site_type_symbol
_atom_site_description
_atom_site_fract_x
_atom_site_fract_y
_atom_site_fract_z
_atom_type_partial_charge
P1    P     P_3+3 0.039440 0.410950 0.333260 0.541187
O1    O     O_2   0.871970 0.437290 0.322980 -0.317660
O2    O     O_3   0.121420 0.444460 0.412460 -0.366748
O3    O     O_3   0.661430 0.607560 0.372520 -0.321411
O4    O     O_2   0.747446 0.526560 0.244591 -0.344486
O5    O     O_3   0.999887 0.291767 0.308771 -0.516198
O6    O     O_3   0.736678 0.696277 0.257403 -0.512252
C1    C     C_3   0.669500 0.797257 0.186155 -0.987368
H1    H     H_    0.794646 0.837051 0.195512 0.269962
H2    H     H_    0.662639 0.743225 0.134969 0.237319
P2    P     P_3+3 0.676740 0.714970 0.563520 0.514598
P3    P     P_3+3 0.134029 0.773446 0.415481 0.564526
O7    O     O_2   0.852280 0.726960 0.542370 -0.275660
O8    O     O_3   0.083990 0.657360 0.410240 -0.359482
O9    O     O_2   0.003901 0.818494 0.460556 -0.287761
O10   O     O_3   0.694428 0.748895 0.659128 -0.569958
O11   O     O_3   0.103243 0.790987 0.327965 -0.527918
C2    C     C_3   0.157353 0.720355 0.277509 0.449325
H3    H     H_    0.067516 0.655852 0.269503 0.114579
H4    H     H_    0.276066 0.708335 0.296976 -0.110100
C3    C     C_3   0.179067 0.746030 0.204262 0.137731
H5    H     H_    0.249035 0.816975 0.213893 0.114818
C4    C     C_3   0.305900 0.751900 0.658222 0.774726
H6    H     H_    0.389777 0.706035 0.633983 0.024109
C5    C     C_3   0.406496 0.836673 0.709806 -0.710608
H7    H     H_    0.481270 0.816261 0.750300 0.283969
H8    H     H_    0.489437 0.875854 0.678289 0.186093
H9    H     H_    0.326771 0.882121 0.739699 0.284077
Ba1   Ba    Ba6+2 0.853510 0.540900 0.466480 1.719635
C6    C     C_3   0.934100 0.258730 0.367022 0.357155
H10   H     H_    0.815653 0.280003 0.377217 0.081155
H11   H     H_    0.016123 0.284303 0.417327 0.019133
C7    C     C_3   0.913146 0.154890 0.346995 0.158195
H12   H     H_    0.841766 0.125590 0.387403 0.021017
H13   H     H_    0.036132 0.138468 0.348870 0.082764
C8    C     C_3   0.783841 0.693696 0.687756 0.272748
H14   H     H_    0.891132 0.681705 0.656240 0.130954
H15   H     H_    0.705165 0.627035 0.686386 0.049493
C9    C     C_3   0.843729 0.741204 0.766993 -0.099067
H16   H     H_    0.947718 0.712381 0.783523 0.098573
H17   H     H_    0.747406 0.727949 0.804313 0.156997
P4    P     P_3+3 0.150270 0.589130 0.666750 0.509140
O12   O     O_2   0.317740 0.562750 0.677070 -0.345040
O13   O     O_3   0.068290 0.555610 0.587550 -0.374838
O14   O     O_3   0.528280 0.392520 0.627490 -0.387161
O15   O     O_3   0.188139 0.709422 0.696624 -0.568506
P5    P     P_3+3 0.061872 0.225172 0.583911 0.489342
O16   O     O_3   0.609300 0.386850 0.459730 -0.325557
O17   O     O_3   0.105720 0.342720 0.589770 -0.393344
O18   O     O_2   0.202877 0.180703 0.548114 -0.420275
O19   O     O_3   0.061004 0.206811 0.672567 -0.543130
Ba2   Ba    Ba6+2 0.336320 0.459170 0.533530 1.664486
P6    P     P_3+3 0.637693 0.595252 0.278290 0.535979
C10   C     C_3   0.625928 0.754504 0.250358 0.932697
H18   H     H_    0.499780 0.718207 0.238172 -0.173892
H19   H     H_    0.583176 0.843097 0.179113 0.238883
O20   O     O_3   0.580410 0.613230 0.540280 -0.396207
C11   C     C_3   0.407337 0.248979 0.294925 0.447074
H20   H     H_    0.284668 0.231178 0.314409 0.039961
C12   C     C_3   0.410023 0.196049 0.210686 0.703234
P7    P     P_3+3 0.517766 0.269052 0.434820 0.566730
O21   O     O_2   0.337420 0.273080 0.457680 -0.321525
O22   O     O_3   0.520831 0.222951 0.339009 -0.565718
H21   H     H_    0.250020 0.697985 0.170590 0.046195
C13   C     C_3   0.114434 0.289586 0.724731 0.392114
H22   H     H_    0.229300 0.324215 0.709648 0.150685
H23   H     H_    0.029400 0.338276 0.727801 0.097980
C14   C     C_3   0.132303 0.269469 0.800105 0.135420
H24   H     H_    0.010665 0.261161 0.822974 0.141537
H25   H     H_    0.178649 0.203910 0.793627 0.131664
P8    P     P_3+3 0.551898 0.407312 0.722162 0.476358
C15   C     C_3   0.514375 0.227560 0.690372 0.798777
O23   O     O_2   0.431995 0.469621 0.756646 -0.377844
O24   O     O_3   0.481969 0.301772 0.744977 -0.586986
H26   H     H_    0.474621 0.232632 0.635091 0.051153
H27   H     H_    0.465219 0.078462 0.665715 0.237896
C16   C     C_3   0.420583 0.137049 0.701534 -0.934155
H28   H     H_    0.290073 0.129774 0.686483 0.264618
H29   H     H_    0.435926 0.133052 0.759305 0.274637
C17   C     C_R   0.989951 0.452005 0.045605 0.009566
C18   C     C_R   0.895326 0.405431 0.091594 -0.169441
C19   C     C_R   0.767802 0.422535 0.948827 -0.207773
C20   C     C_R   0.930831 0.455896 0.974571 0.057710
C21   C     C_R   0.712410 0.425946 0.879662 -0.125661
C22   C     C_R   0.816330 0.461956 0.831869 -0.015053
C23   C     C_R   0.978686 0.501388 0.856936 -0.006434
C24   C     C_R   0.035662 0.498274 0.928759 0.079494
C25   C     C_R   0.761589 0.460069 0.759996 0.270803
C26   C     C_R   0.869687 0.493992 0.712949 -0.456248
C27   C     C_R   0.027874 0.539075 0.736554 0.173660
C28   C     C_R   0.081637 0.546983 0.811672 -0.201920
C29   C     C_R   0.151615 0.493273 0.070965 0.045205
C30   C     C_R   0.208667 0.495912 0.143725 0.000672
C31   C     C_R   0.104737 0.456699 0.191464 -0.134975
C32   C     C_R   0.952677 0.406405 0.162024 0.013431
H30   H     H_    0.827475 0.487873 0.657104 0.168689
H31   H     H_    0.585396 0.400536 0.864816 0.205796
H32   H     H_    0.874266 0.367988 0.193171 0.209401
C33   C     C_R   0.230813 0.599618 0.845279 0.459819
C34   C     C_R   0.288833 0.591239 0.912923 -0.257231
C35   C     C_R   0.196779 0.538472 0.954614 0.008472
C36   C     C_R   0.257477 0.531907 0.024052 0.053240
C37   C     C_R   0.423499 0.559575 0.047052 -0.225986
C38   C     C_R   0.372207 0.534744 0.167725 -0.036216
C39   C     C_R   0.479443 0.560146 0.117006 -0.191974
C40   C     C_R   0.423377 0.547751 0.241785 0.136868
C41   C     C_R   0.310107 0.522979 0.290677 -0.356366
C42   C     C_R   0.158607 0.467765 0.266168 0.203904
H33   H     H_    0.607921 0.582287 0.130969 0.177377
H34   H     H_    0.345476 0.541657 0.348337 0.187602
H35   H     H_    0.677814 0.394975 0.981674 0.129033
H36   H     H_    0.776117 0.365952 0.074325 0.154478
H37   H     H_    0.402255 0.634882 0.935181 0.154391
H38   H     H_    0.514357 0.579285 0.011150 0.145322
C43   C     C_R   0.342201 0.820121 0.459158 0.277131
H39   H     H_    0.386320 0.687197 0.466396 0.162875
H40   H     H_    0.188513 0.952273 0.439089 0.185887
C44   C     C_R   0.582545 0.792763 0.519070 0.253944
C45   C     C_R   0.767645 0.227187 0.512419 -0.488809
C46   C     C_R   0.862505 0.171887 0.536927 0.359267
C47   C     C_R   0.797675 0.080892 0.535302 -0.222741
C48   C     C_R   0.637042 0.042200 0.507027 -0.020341
C49   C     C_R   0.544487 0.097994 0.476364 -0.148972
C50   C     C_R   0.568231 0.948170 0.504354 0.104471
C51   C     C_R   0.407178 0.914223 0.474191 0.012110
C52   C     C_R   0.315715 0.973600 0.454705 -0.325916
C53   C     C_R   0.388714 0.056989 0.442870 0.689639
C54   C     C_R   0.650717 0.886397 0.530960 -0.196682
C55   C     C_R   0.435296 0.759633 0.478062 -0.423587
C56   C     C_R   0.611618 0.192079 0.480616 0.207708
H41   H     H_    0.766498 0.908798 0.561352 0.166119
H42   H     H_    0.818097 0.298428 0.516526 0.156611
H43   H     H_    0.874909 0.042479 0.557387 0.163533
N1    N     N_R   0.633752 0.826509 0.317033 0.194612
O25   O     O_R   0.533994 0.884312 0.323252 -0.513061
O26   O     O_R   0.746125 0.837269 0.368453 -0.368570
O27   O     O_3   0.834687 0.120005 0.277000 -0.487579
C57   C     C_3   0.844934 0.026651 0.252566 0.160396
H44   H     H_    0.968922 0.018169 0.236316 0.091334
H45   H     H_    0.763341 0.997200 0.202836 0.183917
H46   H     H_    0.806983 0.987375 0.294092 0.114008
N2    N     N_R   0.892532 0.839853 0.776270 0.306558
O28   O     O_R   0.009747 0.872045 0.740104 -0.311714
O29   O     O_R   0.818613 0.896259 0.820840 -0.329023
N3    N     N_R   0.445166 0.347603 0.304625 0.190148
O30   O     O_R   0.394060 0.398010 0.361634 -0.394548
O31   O     O_R   0.573237 0.382533 0.276506 -0.342399
N4    N     N_R   0.249611 0.139883 0.182634 0.156862
O32   O     O_R   0.116236 0.170529 0.200293 -0.425961
O33   O     O_R   0.241100 0.067599 0.129134 -0.360886
O34   O     O_3   0.463727 0.257687 0.165518 -0.610747
C58   C     C_3   0.338911 0.292404 0.135655 -0.087035
H47   H     H_    0.395319 0.349888 0.112576 0.141894
H48   H     H_    0.257773 0.318364 0.178019 0.125930
H49   H     H_    0.269260 0.239689 0.089923 0.177980
N5    N     N_R   0.527946 0.133438 0.204208 0.277080
O35   O     O_R   0.648700 0.141479 0.162244 -0.274547
O36   O     O_R   0.499252 0.061248 0.230701 -0.420419
O37   O     O_3   0.238560 0.342145 0.847060 -0.587952
C59   C     C_3   0.273150 0.316413 0.912206 -0.166382
H50   H     H_    0.358580 0.373121 0.948272 0.151756
H51   H     H_    0.334321 0.255573 0.901470 0.154098
H52   H     H_    0.161238 0.303526 0.941847 0.136551
N6    N     N_R   0.686921 0.225687 0.693389 0.206150
O38   O     O_R   0.779979 0.283664 0.665356 -0.502313
O39   O     O_R   0.750062 0.187035 0.739252 -0.402331
N7    N     N_R   0.312844 0.674803 0.819961 0.237575
O40   O     O_R   0.263968 0.752942 0.840759 -0.390566
O41   O     O_R   0.462825 0.674994 0.803618 -0.438867
O42   O     O_3   0.307798 0.096708 0.397200 -0.618753
C60   C     C_3   0.243583 0.031132 0.332407 -0.166992
H53   H     H_    0.120876 0.995243 0.340175 0.122486
H54   H     H_    0.323115 0.980246 0.312465 0.216827
H55   H     H_    0.230238 0.066759 0.288880 0.169902
O43   O     O_3   0.025851 0.739255 0.168892 -0.569165
C61   C     C_3   0.047470 0.756088 0.098913 -0.133207
H56   H     H_    0.926461 0.750574 0.071535 0.161849
H57   H     H_    0.110083 0.704320 0.064244 0.129490
H58   H     H_    0.115093 0.826433 0.102571 0.166615
N8    N     N_R   0.221775 0.777180 0.600517 0.174730
O44   O     O_R   0.144500 0.710689 0.549953 -0.369053
O45   O     O_R   0.190301 0.859472 0.607272 -0.399119

loop_
_geom_bond_atom_site_label_1
_geom_bond_atom_site_label_2
_geom_bond_distance
_ccdc_geom_bond_type
C20   C24   1.425633 A    
C60   H53   1.109766 S    
C1    H2    1.108632 S    
C35   C36   1.425685 A    
O3    P6    1.746699 S    
O14   P8    1.749750 S    
C2    C3    1.526116 S    
C1    H19   1.110806 S    
C38   C40   1.411648 A    
N3    O30   1.294371 A    
O16   P7    1.781566 S    
C32   H32   1.079282 S    
P5    O17   1.745905 S    
C58   H48   1.104744 S    
C16   H28   1.103641 S    
N8    O44   1.291279 A    
C53   O42   1.385399 S    
C60   H54   1.110263 S    
C31   C42   1.433657 A    
C30   C31   1.425001 A    
C44   C54   1.411120 A    
O1    Ba1   2.822667 S    
C21   H31   1.076731 S    
O7    Ba1   2.869628 S    
N6    O38   1.292516 A    
N4    O33   1.302310 A    
P1    O1    1.540588 D    
C23   C28   1.434490 A    
C17   C20   1.435866 A    
O19   C13   1.408324 S    
C6    H10   1.099793 S    
C18   C32   1.398880 A    
O2    Ba2   2.821330 S    
O12   Ba2   2.823301 S    
O42   C60   1.419000 S    
C11   C12   1.609699 S    
C10   N1    1.458347 S    
C45   C56   1.392602 A    
O2    Ba1   2.952376 S    
C2    H3    1.112212 S    
P4    O15   1.762304 S    
P7    O22   1.783431 S    
C34   C35   1.403048 A    
C3    H21   1.112137 S    
C24   C35   1.411578 A    
P6    C40   1.871861 S    
C61   H58   1.112861 S    
H39   C55   1.081908 S    
O43   C61   1.410524 S    
C7    O27   1.407698 S    
C1    H1    1.108274 S    
C3    O43   1.410233 S    
P3    O11   1.752056 S    
P4    C27   1.902859 S    
O34   C58   1.408782 S    
C58   H49   1.111018 S    
C14   O37   1.411366 S    
H40   C52   1.074077 S    
O3    Ba1   2.830366 S    
C29   C36   1.418540 A    
C50   C54   1.426261 A    
P3    C43   1.865409 S    
O17   Ba2   2.795181 S    
C61   H57   1.112469 S    
C4    O15   1.395530 S    
C3    H5    1.114054 S    
C31   C32   1.402465 A    
P4    O13   1.566096 S    
C15   H26   1.111198 S    
C30   C38   1.417993 A    
C38   C39   1.399690 A    
N3    O31   1.294778 A    
N8    O45   1.302687 A    
C45   H42   1.082582 S    
P5    O18   1.546878 D    
C33   N7    1.420398 S    
C16   H29   1.110946 S    
C60   H55   1.096756 S    
C11   N3    1.451896 S    
C47   C48   1.414929 A    
Ba1   O16   2.822939 S    
P1    O5    1.741480 S    
C59   H52   1.112703 S    
C37   H38   1.079321 S    
C21   C22   1.403714 A    
N7    O41   1.297721 A    
Ba2   O20   2.822459 S    
C1    C10   1.524987 S    
N7    O40   1.301116 A    
P8    O23   1.545554 D    
C23   C24   1.440342 A    
C14   H24   1.112457 S    
P5    O19   1.757253 S    
P1    C42   1.900960 S    
O14   Ba2   2.829658 S    
C13   H23   1.103375 S    
C11   H20   1.109310 S    
C22   C23   1.415153 A    
P1    O2    1.566087 S    
C12   O34   1.433341 S    
C59   H51   1.112774 S    
C17   C29   1.416813 A    
C12   N5    1.470618 S    
C15   C16   1.531691 S    
P2    O10   1.753034 S    
C49   C53   1.415375 A    
O37   C59   1.411316 S    
C9    N2    1.460131 S    
C41   C42   1.404464 A    
C13   C14   1.530868 S    
P1    Ba1   3.396806 S    
O11   C2    1.405817 S    
C15   N6    1.448817 S    
C37   C39   1.388300 A    
H27   C16   1.111792 S    
P2    Ba1   3.427754 S    
C4    N8    1.442284 S    
C18   H36   1.077403 S    
C57   H45   1.107064 S    
P7    C56   1.866723 S    
C15   O24   1.410576 S    
C61   H56   1.108768 S    
O5    C6    1.396454 S    
Ba1   O20   2.937269 S    
C13   H22   1.093224 S    
P3    O9    1.547580 D    
C19   C21   1.390363 A    
C49   C56   1.434523 A    
C51   C52   1.382646 A    
C41   H34   1.080312 S    
N2    O29   1.300835 A    
P4    O12   1.540982 D    
O6    P6    1.755947 S    
O8    Ba1   2.794676 S    
C48   C50   1.442716 A    
C8    H15   1.110166 S    
C26   C27   1.398596 A    
C54   H41   1.077638 S    
C9    H16   1.107311 S    
C46   C47   1.396548 A    
C43   C55   1.400943 A    
C22   C25   1.414124 A    
O4    P6    1.542416 D    
C11   O22   1.412531 S    
C39   H33   1.079875 S    
C10   H18   1.100487 S    
C8    H14   1.103561 S    
C6    C7    1.519813 S    
C8    C9    1.535821 S    
C34   H37   1.079590 S    
P3    O8    1.729153 S    
C17   C18   1.416935 A    
C57   H46   1.111489 S    
P7    O21   1.584478 D    
P8    O24   1.770237 S    
N1    O26   1.299952 A    
C45   C46   1.393158 A    
N1    O25   1.298865 A    
C5    H8    1.110948 S    
O27   C57   1.409019 S    
C43   C51   1.407961 A    
C33   C34   1.396218 A    
C47   H43   1.077479 S    
C19   H35   1.077330 S    
C26   H30   1.082128 S    
N5    O36   1.299686 A    
C5    H7    1.107254 S    
Ba1   O13   2.820716 S    
C44   C55   1.395118 A    
Ba2   O21   2.869632 S    
O10   C8    1.400377 S    
C6    H11   1.112391 S    
P2    O7    1.522262 D    
O13   Ba2   2.953228 S    
C27   C28   1.449354 A    
C52   C53   1.384975 A    
N6    O39   1.301453 A    
C29   C30   1.432962 A    
C7    H13   1.100287 S    
C7    H12   1.106008 S    
C2    H4    1.109710 S    
N4    O32   1.300082 A    
C4    C5    1.533737 S    
C36   C37   1.411651 A    
C59   H50   1.107112 S    
C57   H44   1.107025 S    
C4    H6    1.103831 S    
C5    H9    1.109467 S    
P8    C25   1.857832 S    
O16   Ba2   2.936355 S    
N5    O35   1.302789 A    
C25   C26   1.400253 A    
C9    H17   1.104354 S    
C14   H25   1.112867 S    
C19   C20   1.408744 A    
C40   C41   1.402558 A    
P5    C46   1.840412 S    
N2    O28   1.299622 A    
C58   H47   1.107746 S    
C12   N4    1.481979 S    
O6    C10   1.409365 S    
C28   C33   1.416089 A    
C48   C49   1.443789 A    
P2    O20   1.583091 S    
P2    C44   1.863239 S    
P4    Ba2   3.397452 S    
C50   C51   1.417562 A    
Ba1   Ba2   4.653704 S    
