data_mof_unit_28480.cif
_audit_creation_date              2012-12-11T14:50:42-0500
_audit_creation_method            fapswitch 2.2
_symmetry_space_group_name_H-M    P1
_symmetry_Int_Tables_number       1
_space_group_crystal_system       triclinic
_cell_length_a                    10.982543
_cell_length_b                    10.925
_cell_length_c                    18.763094
_cell_angle_alpha                 90.149932
_cell_angle_beta                  89.962514
_cell_angle_gamma                 59.908733
_cell_volume                      1947.85531295

loop_
_atom_site_label
_atom_site_type_symbol
_atom_type_description
_atom_site_fract_x
_atom_site_fract_y
_atom_site_fract_z
_atom_type_partial_charge
C1    C     C_R   0.233597 0.647818 0.608825 0.556730
C2    C     C_3   0.684988 0.582385 0.800672 -0.177758
C3    C     C_3   0.723553 0.700541 0.807012 -0.015069
C4    C     C_3   0.686634 0.655393 0.673471 0.044487
C5    C     C_3   0.823275 0.663239 0.679406 -0.247192
C6    C     C_3   0.704946 0.530314 0.724012 0.160392
C7    C     C_R   0.786186 0.087675 0.702663 -0.097868
C8    C     C_R   0.803706 0.066573 0.776033 -0.127704
C9    C     C_R   0.690744 0.145231 0.822771 0.063505
C10   C     C_R   0.556509 0.237390 0.795426 0.254017
C11   C     C_R   0.542035 0.263991 0.723232 -0.122518
C12   C     C_R   0.656719 0.623693 0.600148 0.539165
C13   C     C_R   0.654993 0.188684 0.676667 0.004649
C14   C     C_R   0.186459 0.556594 0.720416 -0.152574
C15   C     C_R   0.175922 0.564366 0.794441 -0.105064
C16   C     C_R   0.166039 0.680372 0.831050 0.027822
C17   C     C_R   0.165701 0.789960 0.792358 -0.132316
C18   C     C_R   0.163525 0.787823 0.718826 -0.109324
C19   C     C_R   0.183704 0.667526 0.682292 0.009198
C20   C     C_R   0.718827 0.525000 0.271139 -0.124306
C21   C     C_R   0.718616 0.539036 0.198189 -0.132483
C22   C     C_R   0.650815 0.673578 0.167882 0.028473
C23   C     C_R   0.628167 0.227516 0.602447 0.541297
C24   C     C_R   0.572085 0.793651 0.211174 -0.138968
C25   C     C_R   0.570288 0.779073 0.284888 -0.153437
C26   C     C_R   0.647424 0.644636 0.315204 0.033183
C27   C     C_R   0.532963 0.178298 0.284935 -0.135733
C28   C     C_R   0.534989 0.173439 0.211999 -0.138259
C29   C     C_R   0.650848 0.161892 0.175267 0.036044
C30   C     C_R   0.761038 0.164040 0.212155 -0.136291
C31   C     C_R   0.757708 0.171570 0.285603 -0.141223
C32   C     C_R   0.642554 0.180917 0.322155 0.038613
C33   C     C_R   0.283327 0.713176 0.274265 -0.134488
C34   C     C_R   0.291029 0.618433 0.393107 0.564672
C35   C     C_R   0.244146 0.728249 0.203601 -0.124000
C36   C     C_R   0.179649 0.654920 0.176203 0.030147
C37   C     C_R   0.173609 0.551299 0.217022 -0.139889
C38   C     C_R   0.216824 0.533332 0.287561 -0.126225
C39   C     C_R   0.263419 0.621070 0.317394 0.030469
C40   C     C_R   0.702730 0.099320 0.895771 0.568937
C41   C     C_R   0.754486 0.712392 0.883012 0.538765
C42   C     C_R   0.115450 0.708260 0.904548 0.539637
C43   C     C_R   0.674417 0.108400 0.103492 0.555047
C44   C     C_R   0.694309 0.689917 0.097053 0.557337
C45   C     C_R   0.640376 0.620794 0.390928 0.531299
C46   C     C_R   0.098450 0.706335 0.111146 0.555843
C47   C     C_R   0.616710 0.229404 0.394894 0.535405
C48   C     C_3   0.597306 0.836224 0.776539 -0.214046
C49   C     C_3   0.567625 0.807132 0.699254 0.135617
C50   C     C_3   0.851628 0.673099 0.760175 -0.237551
Cr1   Cr    Cr6+3 0.392930 0.397900 0.502230 1.008076
Cr2   Cr    Cr6+3 0.398240 0.708600 0.501260 1.027821
Cr3   Cr    Cr6+3 0.708800 0.393470 0.496460 1.061741
Cr4   Cr    Cr6+3 0.937620 0.938540 0.007640 1.022981
Cr5   Cr    Cr6+3 0.625150 0.937450 0.994520 1.012207
Cr6   Cr    Cr6+3 0.937990 0.625080 0.001190 1.024704
H1    H     H_    0.621369 0.923690 0.776322 0.081221
H2    H     H_    0.941779 0.575298 0.779352 0.215849
H3    H     H_    0.913571 0.573610 0.652374 0.213165
H4    H     H_    0.873664 0.027223 0.666810 0.131452
H5    H     H_    0.903530 0.986560 0.796566 0.128843
H6    H     H_    0.440681 0.341991 0.703164 0.145029
H7    H     H_    0.196581 0.464629 0.693084 0.151317
H8    H     H_    0.163805 0.485920 0.822928 0.161108
H9    H     H_    0.153522 0.884074 0.818395 0.147356
H10   H     H_    0.502152 0.870222 0.810211 0.162028
H11   H     H_    0.149124 0.879365 0.690158 0.152722
H12   H     H_    0.775540 0.419530 0.293057 0.134713
H13   H     H_    0.779505 0.445183 0.165869 0.125688
H14   H     H_    0.519747 0.899010 0.188714 0.133054
H15   H     H_    0.511199 0.871953 0.318036 0.117697
H16   H     H_    0.441729 0.186443 0.311707 0.130510
H17   H     H_    0.449240 0.170827 0.184872 0.128058
H18   H     H_    0.852533 0.153640 0.184633 0.129957
H19   H     H_    0.842696 0.174175 0.313509 0.125058
H20   H     H_    0.322586 0.778450 0.296114 0.132074
H21   H     H_    0.254066 0.805801 0.172094 0.134502
H22   H     H_    0.126392 0.492088 0.196320 0.129160
H23   H     H_    0.205367 0.457306 0.319515 0.135917
H24   H     H_    0.575379 0.883713 0.662646 0.109496
H25   H     H_    0.876766 0.758989 0.768127 0.091359
H26   H     H_    0.811394 0.758338 0.651428 0.074048
H27   H     H_    0.744301 0.493692 0.837954 0.207264
H28   H     H_    0.573064 0.624754 0.816578 0.113723
H29   H     H_    0.619740 0.506185 0.712246 0.123661
O1    O     O_R   0.507430 0.255570 0.581420 -0.541371
O2    O     O_R   0.524460 0.695920 0.424060 -0.531328
O3    O     O_R   0.736530 0.504260 0.414810 -0.525383
O4    O     O_R   0.691460 0.277160 0.422180 -0.515078
O5    O     O_3   0.499990 0.499990 0.499980 -0.283911
O6    O     O_R   0.089490 0.825610 0.930610 -0.525885
O7    O     O_R   0.818370 0.054540 0.929880 -0.504108
O8    O     O_R   0.605870 0.077310 0.915530 -0.505483
O9    O     O_R   0.646440 0.806700 0.917570 -0.514200
O10   O     O_R   0.837200 0.593290 0.915250 -0.509877
O11   O     O_R   0.065330 0.635370 0.931590 -0.518561
O12   O     O_R   0.280190 0.527390 0.578910 -0.506530
O13   O     O_R   0.068300 0.828790 0.091860 -0.522853
O14   O     O_R   0.798730 0.057480 0.079370 -0.503276
O15   O     O_R   0.584680 0.080480 0.076790 -0.524056
O16   O     O_R   0.626790 0.809640 0.067050 -0.502268
O17   O     O_R   0.816010 0.596460 0.076500 -0.514859
O18   O     O_R   0.045680 0.638310 0.081070 -0.500680
O19   O     O_3   0.833590 0.833690 0.001120 -0.272791
O20   O     O_R   0.260310 0.739740 0.584580 -0.495922
O21   O     O_R   0.532250 0.695150 0.573830 -0.463987
O22   O     O_R   0.744930 0.503430 0.576380 -0.462864
O23   O     O_R   0.699250 0.276390 0.571950 -0.439331
O24   O     O_R   0.499020 0.256400 0.419850 -0.537722
O25   O     O_R   0.272400 0.528160 0.429140 -0.506338
O26   O     O_R   0.251910 0.740570 0.423020 -0.516762
S1    S     S_3+6 0.873544 0.359301 0.718673 -0.046860
O27   O     O_2   0.881615 0.271355 0.781670 -0.325572
O28   O     O_2   0.881605 0.278807 0.652647 -0.263277
O29   O     O_3   0.021991 0.367557 0.720303 -0.600636
H30   H     H_    0.099171 0.268569 0.714470 0.347390
O30   O     O_3   0.438971 0.296924 0.839176 -0.554172
C51   C     C_3   0.360784 0.227990 0.826301 -0.104715
H31   H     H_    0.308413 0.257218 0.773541 0.091469
H32   H     H_    0.278716 0.260283 0.868083 0.149793
H33   H     H_    0.425891 0.111481 0.829328 0.125057
O31   O     O_3   0.431011 0.824721 0.695407 -0.548060
C52   C     C_3   0.327611 0.970930 0.692687 -0.120149
H34   H     H_    0.266340 0.992138 0.642725 0.161614
H35   H     H_    0.368099 0.046224 0.694821 0.070216
H36   H     H_    0.255480 0.997458 0.738838 0.123297

loop_
_geom_bond_atom_site_label_1
_geom_bond_atom_site_label_2
_ccdc_geom_bond_type
Cr1   O12   S    
Cr6   O10   S    
Cr2   O5    S    
C35   C36   A    
C40   O8    A    
Cr5   O8    S    
C11   H6    S    
S1    O28   D    
C24   H14   S    
C52   H34   S    
C41   O10   A    
C29   C30   A    
C6    H29   S    
C42   O11   A    
Cr4   O19   S    
C28   C29   A    
C45   O2    A    
C43   O14   A    
C42   O6    A    
Cr1   O5    S    
C38   C39   A    
C30   H18   S    
C52   H35   S    
C38   H23   S    
C49   O31   S    
O29   H30   S    
C3    C48   S    
C13   C23   S    
C18   C19   A    
C51   H31   S    
C26   C45   S    
C2    H28   S    
C22   C44   S    
C31   C32   A    
C8    C9    A    
C23   O1    A    
Cr5   O15   S    
C15   H8    S    
C36   C46   S    
C25   H15   S    
C4    C12   S    
C9    C10   A    
C8    H5    S    
C46   O13   A    
Cr2   O21   S    
Cr1   O24   S    
C21   C22   A    
C29   C43   S    
C34   O26   A    
C47   O4    A    
C2    H27   S    
C2    C6    S    
Cr5   O9    S    
C28   H17   S    
Cr1   O1    S    
S1    O27   D    
C3    C50   S    
C1    C19   S    
C5    H3    S    
C34   C39   S    
C50   H2    S    
C48   H1    S    
C45   O3    A    
C43   O15   A    
Cr6   O19   S    
C4    C6    S    
C1    O12   A    
C44   O17   A    
C16   C17   A    
C52   H36   S    
Cr2   O26   S    
C18   H11   S    
C47   O24   A    
Cr5   O19   S    
C35   H21   S    
C9    C40   S    
C40   O7    A    
C21   H13   S    
C51   H33   S    
Cr4   O7    S    
C37   C38   A    
Cr3   O22   S    
C33   H20   S    
C31   H19   S    
C41   O9    A    
C17   C18   A    
C33   C39   A    
C24   C25   A    
C48   C49   S    
Cr2   O20   S    
Cr1   O25   S    
C23   O23   A    
Cr3   O4    S    
C34   O25   A    
C32   C47   S    
C22   C24   A    
Cr4   O14   S    
C16   C42   S    
C7    H4    S    
Cr3   O5    S    
C46   O18   A    
Cr6   O11   S    
C3    C41   S    
C27   C32   A    
C6    S1    S    
C14   C19   A    
C20   H12   S    
Cr2   O2    S    
Cr6   O18   S    
C4    C5    S    
C12   O22   A    
C44   O16   A    
C37   H22   S    
Cr5   O16   S    
C17   H9    S    
C49   H24   S    
C4    C49   S    
C2    C3    S    
C25   C26   A    
Cr6   O17   S    
Cr4   O6    S    
C10   O30   S    
O30   C51   S    
C12   O21   A    
C5    H26   S    
C11   C13   A    
Cr3   O23   S    
C30   C31   A    
C20   C26   A    
C14   H7    S    
C33   C35   A    
Cr3   O3    S    
C5    C50   S    
C51   H32   S    
C7    C8    A    
C10   C11   A    
C7    C13   A    
C20   C21   A    
C36   C37   A    
C27   C28   A    
C14   C15   A    
Cr4   O13   S    
C48   H10   S    
O31   C52   S    
S1    O29   S    
C27   H16   S    
C15   C16   A    
C50   H25   S    
C1    O20   A    
