data_mof_unit_50066.cif
_audit_creation_date              2012-12-10T17:03:28-0500
_audit_creation_method            fapswitch 2.2
_symmetry_space_group_name_H-M    P1
_symmetry_Int_Tables_number       1
_space_group_crystal_system       triclinic
_cell_length_a                    14.976594
_cell_length_b                    11.037799
_cell_length_c                    9.90516
_cell_angle_alpha                 111.970191
_cell_angle_beta                  97.2865
_cell_angle_gamma                 92.043655
_cell_volume                      1500.07446247

loop_
_atom_site_label
_atom_site_type_symbol
_atom_type_description
_atom_site_fract_x
_atom_site_fract_y
_atom_site_fract_z
_atom_type_partial_charge
C1    C     C_R   0.493951 0.253621 0.439289 0.804067
C2    C     C_R   0.509103 0.746420 0.560419 0.802700
C3    C     C_R   0.049258 0.324475 0.595340 0.250786
C4    C     C_R   0.951264 0.675836 0.402836 0.245906
C5    C     C_2   0.489268 0.112399 0.402512 -0.005438
C6    C     C_2   0.521457 0.887401 0.595833 -0.007973
C7    C     C_2   0.518863 0.068593 0.508067 -0.198737
C8    C     C_2   0.508294 0.930274 0.485281 -0.182077
C9    C     C_2   0.514310 0.496170 0.073370 0.296257
C10   C     C_2   0.488790 0.491016 0.917739 0.301437
C11   C     C_R   0.329343 0.501350 0.502330 0.810659
C12   C     C_R   0.670740 0.499306 0.498008 0.792811
C13   C     C_R   0.810728 0.583773 0.446042 -0.267438
C14   C     C_R   0.189773 0.420880 0.559296 -0.233658
C15   C     C_R   0.766829 0.497493 0.494356 -0.050408
C16   C     C_R   0.233449 0.504279 0.506953 -0.066951
C17   C     C_R   0.814764 0.412907 0.544912 -0.207363
C18   C     C_R   0.185398 0.587211 0.453760 -0.209307
C19   C     C_R   0.907748 0.412482 0.545688 0.092798
C20   C     C_R   0.092458 0.588133 0.453410 0.066052
C21   C     C_R   0.953027 0.499717 0.497463 0.019277
C22   C     C_R   0.047002 0.500717 0.501063 0.004775
C23   C     C_R   0.904399 0.586720 0.447219 0.061843
C24   C     C_R   0.095706 0.414525 0.552338 0.094770
C25   C     C_R   0.955724 0.325840 0.593671 -0.282020
C26   C     C_R   0.044664 0.675006 0.405823 -0.225031
Cu1   Cu    Cu3+1 0.515770 0.521810 0.644910 0.988638
Cu2   Cu    Cu3+1 0.484230 0.478190 0.355090 0.971750
H1    H     H_    0.771068 0.649878 0.411333 0.146988
H2    H     H_    0.229468 0.358928 0.601352 0.177360
H3    H     H_    0.779261 0.346953 0.582586 0.136192
H4    H     H_    0.220842 0.652051 0.414560 0.140443
H5    H     H_    0.920242 0.257489 0.627992 0.146960
H6    H     H_    0.079992 0.742975 0.370767 0.162285
H7    H     H_    0.487276 0.860187 0.373748 0.199592
H8    H     H_    0.550165 0.137902 0.615328 0.189869
H9    H     H_    0.596818 0.610709 0.927425 0.212722
H10   H     H_    0.396720 0.407953 0.081744 0.189840
N1    N     N_2   0.460520 0.445420 0.137370 -0.289371
N2    N     N_2   0.539480 0.554580 0.862630 -0.282589
O1    O     O_R   0.508410 0.332340 0.577400 -0.576983
O2    O     O_R   0.491590 0.667660 0.422600 -0.614927
O3    O     O_R   0.481780 0.295500 0.332650 -0.527776
O4    O     O_R   0.518220 0.704500 0.667350 -0.529592
O5    O     O_R   0.383570 0.518390 0.622380 -0.544783
O6    O     O_R   0.616430 0.481610 0.377620 -0.571638
O7    O     O_R   0.356940 0.481550 0.377630 -0.578813
O8    O     O_R   0.643060 0.518450 0.622370 -0.576941
N3    N     N_2   0.095687 0.231644 0.639312 -0.439686
H11   H     H_    0.066437 0.206274 0.715044 0.255798
C27   C     C_3   0.114682 0.117305 0.517867 -0.698506
H12   H     H_    0.151591 0.050879 0.561340 0.231854
H13   H     H_    0.157414 0.145780 0.448919 0.240770
H14   H     H_    0.050738 0.063515 0.447843 0.238732
N4    N     N_2   0.906657 0.767779 0.355280 -0.430717
H15   H     H_    0.848662 0.729536 0.280137 0.249853
C28   C     C_3   0.896449 0.890246 0.473117 -0.689816
H16   H     H_    0.870540 0.961144 0.425786 0.232933
H17   H     H_    0.962567 0.932924 0.543455 0.238379
H18   H     H_    0.847887 0.874530 0.542240 0.229327
I1    I     I_    0.564331 0.012549 0.820995 -0.370699
I2    I     I_    0.430769 0.987302 0.183407 -0.344966
N5    N     N_2   0.406262 0.420469 0.831631 -0.391487
H19   H     H_    0.349253 0.463696 0.867748 0.233343
C29   C     C_3   0.398952 0.279378 0.788505 -0.627453
H20   H     H_    0.373405 0.231959 0.668911 0.237837
H21   H     H_    0.350087 0.249242 0.848054 0.209198
H22   H     H_    0.465258 0.243857 0.811397 0.243978
N6    N     N_2   0.601307 0.557289 0.148455 -0.431457
H23   H     H_    0.608448 0.626980 0.253779 0.283077
C30   C     C_3   0.679023 0.490101 0.095524 -0.674578
H24   H     H_    0.707100 0.441183 0.168703 0.260651
H25   H     H_    0.731789 0.562317 0.093664 0.207118
H26   H     H_    0.661157 0.414038 0.982364 0.229559

loop_
_geom_bond_atom_site_label_1
_geom_bond_atom_site_label_2
_ccdc_geom_bond_type
Cu1   O8    S    
C30   H26   S    
C4    C26   A    
N4    H15   S    
N5    C29   S    
Cu2   O7    S    
C15   C17   A    
C7    C8    S    
C27   H12   S    
C1    O3    A    
C11   C16   S    
Cu1   O1    S    
Cu2   O3    S    
C11   O7    A    
C10   N5    S    
C29   H21   S    
C12   C15   S    
C9    N1    D    
Cu1   N2    S    
C12   O8    A    
C27   H14   S    
Cu2   O6    S    
C29   H22   S    
C22   C24   A    
C13   C15   A    
C3    N3    S    
N6    C30   S    
C30   H24   S    
C16   C18   A    
C21   C22   A    
C9    N6    S    
Cu1   O5    S    
C3    C24   A    
C2    C6    S    
C18   H4    S    
C20   C26   A    
C2    O2    A    
C1    C5    S    
Cu1   O4    S    
C6    I1    S    
C1    O1    A    
C19   C21   A    
C14   H2    S    
C5    I2    S    
N3    H11   S    
H9    N2    S    
C18   C20   A    
N4    C28   S    
C4    N4    S    
N6    H23   S    
C17   H3    S    
C14   C16   A    
C11   O5    A    
C28   H17   S    
C20   C22   A    
C19   C25   A    
N5    H19   S    
C9    C10   S    
C30   H25   S    
C3    C25   A    
H10   N1    S    
C13   C23   A    
C12   O6    A    
C29   H20   S    
C7    H8    S    
C28   H18   S    
C14   C24   A    
Cu1   Cu2   S    
C5    C7    D    
C4    C23   A    
C10   N2    D    
C6    C8    D    
C25   H5    S    
Cu2   O2    S    
Cu2   N1    S    
C17   C19   A    
C28   H16   S    
C21   C23   A    
C26   H6    S    
C27   H13   S    
C13   H1    S    
C2    O4    A    
N3    C27   S    
C8    H7    S    
