data_mof_unit_49884.cif
_audit_creation_date              2012-12-10T18:40:39-0500
_audit_creation_method            fapswitch 2.2
_symmetry_space_group_name_H-M    P1
_symmetry_Int_Tables_number       1
_space_group_crystal_system       triclinic
_cell_length_a                    21.365429
_cell_length_b                    21.438328
_cell_length_c                    13.806152
_cell_angle_alpha                 90.003964
_cell_angle_beta                  89.93209
_cell_angle_gamma                 90.013095
_cell_volume                      6323.75246605

loop_
_atom_site_label
_atom_site_type_symbol
_atom_type_description
_atom_site_fract_x
_atom_site_fract_y
_atom_site_fract_z
_atom_type_partial_charge
C1    C     C_R   0.085035 0.414843 0.499938 0.791999
C2    C     C_R   0.188621 0.716465 0.419340 -0.167688
C3    C     C_3   0.583431 0.240904 0.791995 -0.923911
C4    C     C_R   0.218994 0.685248 0.581594 -0.170310
C5    C     C_R   0.812487 0.282755 0.419418 -0.168418
C6    C     C_R   0.187014 0.282527 0.417773 -0.165408
C7    C     C_R   0.809814 0.714741 0.583769 -0.168464
C8    C     C_R   0.787803 0.692777 0.414790 -0.172994
C9    C     C_R   0.216684 0.311751 0.581236 -0.167423
C10   C     C_R   0.288017 0.806825 0.585273 -0.170969
C11   C     C_R   0.690086 0.214790 0.415950 -0.168803
C12   C     C_R   0.712122 0.192968 0.584964 -0.170587
C13   C     C_R   0.915023 0.585275 0.499978 0.790433
C14   C     C_R   0.310898 0.784409 0.416625 -0.168707
C15   C     C_R   0.718795 0.814314 0.418615 -0.168902
C16   C     C_R   0.284745 0.189804 0.583256 -0.169795
C17   C     C_R   0.309096 0.213824 0.415648 -0.166167
C18   C     C_R   0.687591 0.782799 0.580457 -0.168286
C19   C     C_R   0.827499 0.359810 0.581163 -0.187993
C20   C     C_R   0.142486 0.670771 0.418850 -0.184992
C21   C     C_R   0.172154 0.640270 0.581715 -0.188225
C22   C     C_R   0.858496 0.328579 0.419096 -0.187387
C23   C     C_R   0.141582 0.328922 0.417677 -0.178655
C24   C     C_R   0.914853 0.414975 0.500039 0.790822
C25   C     C_R   0.855080 0.668208 0.584175 -0.185602
C26   C     C_R   0.833632 0.646799 0.414871 -0.181976
C27   C     C_R   0.170635 0.357505 0.581638 -0.182774
C28   C     C_R   0.333649 0.853016 0.585164 -0.182586
C29   C     C_R   0.644822 0.168237 0.415660 -0.185340
C30   C     C_R   0.666351 0.146919 0.584962 -0.181165
C31   C     C_R   0.355975 0.831131 0.416199 -0.183369
C32   C     C_R   0.672130 0.859453 0.418437 -0.186971
C33   C     C_R   0.331179 0.144433 0.583669 -0.189069
C34   C     C_R   0.354896 0.167806 0.415617 -0.191328
C35   C     C_R   0.085212 0.584968 0.500010 0.789884
C36   C     C_R   0.641635 0.828660 0.580889 -0.185660
C37   C     C_R   0.866379 0.367113 0.500142 -0.024649
C38   C     C_R   0.133870 0.632659 0.500189 -0.026215
C39   C     C_R   0.133037 0.366472 0.499743 -0.030491
C40   C     C_R   0.867257 0.633992 0.499730 -0.035267
C41   C     C_R   0.367571 0.865714 0.500437 -0.034838
C42   C     C_R   0.632694 0.134054 0.500166 -0.035095
C43   C     C_R   0.633547 0.867029 0.499734 -0.027747
C44   C     C_R   0.366393 0.133083 0.499800 -0.032152
C45   C     C_R   0.991938 0.556829 0.106490 0.335756
C46   C     C_R   0.585130 0.914954 0.499940 0.791002
C47   C     C_R   0.945128 0.484763 0.893333 0.320694
C48   C     C_R   0.005988 0.443946 0.106634 0.322663
C49   C     C_R   0.054042 0.515845 0.893483 0.329177
C50   C     C_R   0.448555 0.023597 0.106663 0.324454
C51   C     C_R   0.487098 0.944396 0.893485 0.332718
C52   C     C_R   0.551222 0.976100 0.106215 0.326659
C53   C     C_R   0.512801 0.055454 0.893639 0.329266
C54   C     C_R   0.773109 0.275617 0.500166 0.106714
C55   C     C_R   0.227403 0.723910 0.500575 0.106027
C56   C     C_R   0.225080 0.273722 0.499460 0.102692
C57   C     C_R   0.414827 0.085062 0.499988 0.791603
C58   C     C_R   0.775519 0.727119 0.499267 0.106063
C59   C     C_R   0.276224 0.772202 0.500937 0.105193
C60   C     C_R   0.724364 0.227258 0.500426 0.105469
C61   C     C_R   0.726724 0.775434 0.499473 0.105368
C62   C     C_R   0.273545 0.225081 0.499394 0.105997
C63   C     C_R   0.992227 0.554690 0.210005 -0.099177
C64   C     C_R   0.946266 0.486804 0.790722 -0.061255
C65   C     C_R   0.007332 0.445566 0.209346 -0.063426
C66   C     C_R   0.053466 0.513478 0.790970 -0.066665
C67   C     C_R   0.449011 0.021145 0.209111 -0.068629
C68   C     C_R   0.415096 0.914659 0.500086 0.791995
C69   C     C_R   0.487050 0.946414 0.790242 -0.093396
C70   C     C_R   0.550973 0.978877 0.208787 -0.071361
C71   C     C_R   0.512942 0.053542 0.790365 -0.091531
C72   C     C_R   0.999426 0.500338 0.054973 0.068558
C73   C     C_R   0.999570 0.500143 0.945738 0.064683
C74   C     C_R   0.499833 0.999836 0.054122 0.068297
C75   C     C_R   0.499819 0.999917 0.944894 0.074120
C76   C     C_3   0.981829 0.667472 0.103053 0.049394
C77   C     C_3   0.915892 0.681530 0.141903 -0.342487
C78   C     C_3   0.916114 0.737903 0.209309 -0.925636
C79   C     C_R   0.584964 0.085291 0.500008 0.792292
C80   C     C_3   0.867285 0.412452 0.923348 0.058984
C81   C     C_3   0.802032 0.416476 0.878269 -0.332132
C82   C     C_3   0.774771 0.351704 0.860099 -0.952468
C83   C     C_3   0.980838 0.338486 0.089381 0.046460
C84   C     C_3   0.024029 0.289250 0.133907 -0.329383
C85   C     C_3   0.986618 0.235604 0.177841 -0.933520
C86   C     C_3   0.126883 0.592294 0.925962 0.077835
C87   C     C_3   0.193232 0.593435 0.884247 -0.344559
C88   C     C_3   0.215444 0.660069 0.865813 -0.949523
C89   C     C_3   0.388697 0.110179 0.072735 0.074641
C90   C     C_R   0.780769 0.314718 0.580829 -0.170692
C91   C     C_3   0.325012 0.122413 0.119826 -0.347553
C92   C     C_3   0.313337 0.192115 0.133122 -0.941989
C93   C     C_3   0.477158 0.834198 0.899213 0.046617
C94   C     C_3   0.413754 0.814434 0.856873 -0.338676
C95   C     C_3   0.420428 0.758183 0.790009 -0.925786
C96   C     C_3   0.615867 0.891727 0.077438 0.074515
C97   C     C_3   0.683036 0.885422 0.114344 -0.340470
C98   C     C_3   0.698929 0.817788 0.138533 -0.950400
C99   C     C_3   0.524356 0.165571 0.899547 0.041971
C100  C     C_3   0.588400 0.184012 0.857871 -0.336409
Cu1   Cu    Cu3+1 0.000000 0.500000 0.596430 0.941377
Cu2   Cu    Cu3+1 0.000000 0.500000 0.403570 0.940666
Cu3   Cu    Cu3+1 0.500000 0.000000 0.596430 0.937569
Cu4   Cu    Cu3+1 0.500000 0.000000 0.403570 0.940195
H1    H     H_    0.750172 0.310915 0.643114 0.129876
H2    H     H_    0.697837 0.241402 0.350361 0.127052
H3    H     H_    0.738550 0.201048 0.650664 0.127955
H4    H     H_    0.303554 0.757516 0.351225 0.127819
H5    H     H_    0.749136 0.810360 0.356053 0.130814
H6    H     H_    0.257192 0.196808 0.648228 0.128060
H7    H     H_    0.302112 0.241177 0.350648 0.131461
H8    H     H_    0.691968 0.752638 0.642989 0.125189
H9    H     H_    0.832569 0.389609 0.644017 0.143469
H10   H     H_    0.112946 0.665909 0.355555 0.139330
H11   H     H_    0.166512 0.610835 0.644880 0.142136
H12   H     H_    0.193376 0.746473 0.356677 0.125465
H13   H     H_    0.888495 0.333240 0.356168 0.137515
H14   H     H_    0.112572 0.334818 0.354040 0.138352
H15   H     H_    0.880973 0.659504 0.650214 0.154714
H16   H     H_    0.842090 0.620711 0.348961 0.150547
H17   H     H_    0.165081 0.386459 0.645390 0.149706
H18   H     H_    0.341670 0.879409 0.650880 0.147312
H19   H     H_    0.618905 0.159477 0.349654 0.153370
H20   H     H_    0.657980 0.120800 0.650855 0.148385
H21   H     H_    0.382158 0.839720 0.350297 0.154411
H22   H     H_    0.666899 0.889095 0.355480 0.140451
H23   H     H_    0.249051 0.689299 0.644365 0.130000
H24   H     H_    0.338945 0.117726 0.649167 0.150596
H25   H     H_    0.381872 0.160026 0.350229 0.146333
H26   H     H_    0.611839 0.833479 0.644011 0.140408
H27   H     H_    0.985861 0.595999 0.253376 0.150033
H28   H     H_    0.903869 0.477823 0.750529 0.144094
H29   H     H_    0.014306 0.403286 0.250358 0.140535
H30   H     H_    0.095997 0.522975 0.751164 0.142328
H31   H     H_    0.408269 0.036557 0.248720 0.151855
H32   H     H_    0.476387 0.905672 0.747644 0.150863
H33   H     H_    0.591878 0.963722 0.248168 0.147206
H34   H     H_    0.808265 0.252439 0.357027 0.125960
H35   H     H_    0.523722 0.094290 0.747828 0.152357
H36   H     H_    0.994241 0.705159 0.051255 0.159378
H37   H     H_    0.018857 0.669768 0.159516 0.115748
H38   H     H_    0.884100 0.690940 0.079930 0.224490
H39   H     H_    0.896804 0.640804 0.181806 0.213291
H40   H     H_    0.945756 0.728407 0.273708 0.258589
H41   H     H_    0.867653 0.747664 0.234251 0.255832
H42   H     H_    0.934245 0.779660 0.170784 0.255920
H43   H     H_    0.863391 0.387419 0.993532 0.153132
H44   H     H_    0.898475 0.383601 0.876169 0.125826
H45   H     H_    0.191839 0.253116 0.354425 0.126043
H46   H     H_    0.770383 0.442554 0.927759 0.231692
H47   H     H_    0.804520 0.442135 0.808519 0.203191
H48   H     H_    0.805635 0.324753 0.810652 0.254749
H49   H     H_    0.727901 0.356144 0.826115 0.257696
H50   H     H_    0.769697 0.325960 0.929488 0.258854
H51   H     H_    0.956875 0.317066 0.026232 0.150329
H52   H     H_    0.942867 0.351796 0.141019 0.115137
H53   H     H_    0.055656 0.270595 0.076862 0.227462
H54   H     H_    0.053562 0.310501 0.191161 0.205465
H55   H     H_    0.956015 0.253025 0.237073 0.251365
H56   H     H_    0.802079 0.741402 0.649314 0.127953
H57   H     H_    0.019220 0.200386 0.208291 0.259854
H58   H     H_    0.957331 0.212880 0.121543 0.256924
H59   H     H_    0.126904 0.617070 0.996678 0.167439
H60   H     H_    0.094924 0.619100 0.877209 0.130153
H61   H     H_    0.225792 0.570432 0.935826 0.233225
H62   H     H_    0.194356 0.567101 0.814976 0.204941
H63   H     H_    0.184137 0.683633 0.813075 0.256079
H64   H     H_    0.263610 0.659232 0.835522 0.256968
H65   H     H_    0.215963 0.687000 0.934545 0.259323
H66   H     H_    0.389785 0.133369 0.000762 0.164447
H67   H     H_    0.761383 0.700771 0.349061 0.128309
H68   H     H_    0.426300 0.132553 0.117076 0.129262
H69   H     H_    0.287426 0.102496 0.073594 0.233171
H70   H     H_    0.322959 0.099261 0.191718 0.210925
H71   H     H_    0.350233 0.212990 0.179562 0.250314
H72   H     H_    0.267212 0.199362 0.168534 0.257291
H73   H     H_    0.313103 0.216068 0.061783 0.258725
H74   H     H_    0.491010 0.798573 0.953537 0.154566
H75   H     H_    0.515644 0.833792 0.844744 0.116358
H76   H     H_    0.381324 0.802477 0.917097 0.222398
H77   H     H_    0.392343 0.853402 0.815666 0.212832
H78   H     H_    0.246206 0.306675 0.644441 0.127482
H79   H     H_    0.450823 0.770021 0.727293 0.257530
H80   H     H_    0.373627 0.744398 0.762341 0.257044
H81   H     H_    0.440967 0.718150 0.829932 0.255260
H82   H     H_    0.611241 0.864731 0.009093 0.161907
H83   H     H_    0.582990 0.869932 0.130624 0.127807
H84   H     H_    0.716003 0.902632 0.058015 0.231390
H85   H     H_    0.689150 0.914458 0.180290 0.207305
H86   H     H_    0.667650 0.800174 0.196766 0.258820
H87   H     H_    0.748104 0.814815 0.164075 0.255402
H88   H     H_    0.693746 0.787929 0.073277 0.258435
H89   H     H_    0.261305 0.798947 0.650851 0.128162
H90   H     H_    0.510954 0.201481 0.953749 0.154744
H91   H     H_    0.486177 0.166769 0.844759 0.119778
H92   H     H_    0.620889 0.194710 0.918470 0.222331
H93   H     H_    0.608946 0.144802 0.816091 0.212536
H94   H     H_    0.553028 0.230290 0.728875 0.259680
H95   H     H_    0.630681 0.253731 0.764889 0.256500
H96   H     H_    0.563730 0.281143 0.832510 0.255355
N1    N     N_R   0.000000 0.500000 0.258690 -0.202069
N2    N     N_R   0.000000 0.500000 0.741310 -0.207955
N3    N     N_R   0.500000 0.000000 0.258690 -0.208177
N4    N     N_R   0.500000 0.000000 0.741310 -0.200574
O1    O     O_R   0.064280 0.435730 0.581430 -0.576136
O2    O     O_R   0.435720 0.064270 0.418570 -0.592944
O3    O     O_R   0.435720 0.064270 0.581430 -0.578868
O4    O     O_R   0.564280 0.935730 0.418570 -0.591415
O5    O     O_R   0.435720 0.935730 0.418570 -0.573042
O6    O     O_R   0.564280 0.064270 0.581430 -0.588514
O7    O     O_R   0.564280 0.064270 0.418570 -0.575977
O8    O     O_R   0.435720 0.935730 0.581430 -0.591235
O9    O     O_3   0.982474 0.610690 0.050929 -0.616750
O10   O     O_3   0.889914 0.473296 0.943019 -0.606927
O11   O     O_3   0.016786 0.389379 0.054648 -0.605135
O12   O     O_R   0.935720 0.564270 0.418570 -0.588488
O13   O     O_3   0.108593 0.529673 0.943090 -0.604159
O14   O     O_3   0.396469 0.045237 0.057498 -0.606680
O15   O     O_3   0.471389 0.891803 0.948431 -0.613975
O16   O     O_3   0.603399 0.955207 0.056130 -0.606289
O17   O     O_3   0.528623 0.107889 0.948852 -0.616669
O18   O     O_R   0.935720 0.564270 0.581430 -0.577733
O19   O     O_R   0.064280 0.435730 0.418570 -0.583756
O20   O     O_R   0.935720 0.435730 0.418570 -0.581332
O21   O     O_R   0.064280 0.564270 0.581430 -0.590292
O22   O     O_R   0.064280 0.564270 0.418570 -0.577151
O23   O     O_R   0.935720 0.435730 0.581430 -0.587474
O24   O     O_R   0.564280 0.935730 0.581430 -0.576690

loop_
_geom_bond_atom_site_label_1
_geom_bond_atom_site_label_2
_ccdc_geom_bond_type
Cu1   O18   S    
C97   H84   S    
C87   C88   S    
C99   O17   S    
C93   C94   S    
C55   C59   S    
C29   C42   A    
C79   O6    A    
C35   O22   A    
C8    C26   A    
C15   H5    S    
C51   C75   A    
C13   O18   A    
C21   H11   S    
C95   H79   S    
C23   H14   S    
C97   C98   S    
C27   H17   S    
C16   H6    S    
C15   C32   A    
C31   C41   A    
C54   C60   S    
C77   C78   S    
C92   H72   S    
C46   O4    A    
C14   C59   A    
C99   H90   S    
C9    C27   A    
Cu1   Cu2   S    
C13   O12   A    
Cu2   N1    S    
C18   H8    S    
C89   H66   S    
C54   C90   A    
C52   C74   A    
C2    C55   A    
C50   C74   A    
C25   C40   A    
C17   C62   A    
C28   H18   S    
C95   H80   S    
C87   H62   S    
C83   H51   S    
C19   H9    S    
C53   O17   S    
C81   H46   S    
C47   O10   S    
C99   H91   S    
C28   C41   A    
Cu2   O22   S    
C3    H94   S    
C85   H57   S    
C91   H69   S    
Cu1   O21   S    
C32   H22   S    
C77   H38   S    
C13   C40   S    
C9    H78   S    
C19   C37   A    
C78   H41   S    
C8    C58   A    
C89   O14   S    
C66   H30   S    
C82   H49   S    
C2    H12   S    
C76   O9    S    
C80   H43   S    
C21   C38   A    
C64   H28   S    
C34   H25   S    
C27   C39   A    
C97   H85   S    
C88   H64   S    
C3    H95   S    
C94   H77   S    
C63   H27   S    
C48   C65   A    
C89   C91   S    
C24   O23   A    
C1    O1    A    
C50   C67   A    
C14   C31   A    
C7    C58   A    
C8    H67   S    
C98   H86   S    
C72   C73   S    
C100  H93   S    
C58   C61   S    
C100  H92   S    
C48   O11   S    
C42   C79   S    
C45   C72   A    
C85   H58   S    
C6    H45   S    
C96   H83   S    
C53   C75   A    
C16   C62   A    
Cu4   O5    S    
C48   C72   A    
C68   O5    A    
C25   H15   S    
Cu3   O6    S    
C26   H16   S    
Cu2   O19   S    
C81   C82   S    
C41   C68   S    
C76   H36   S    
C92   H71   S    
C93   H75   S    
C71   N4    A    
C17   H7    S    
C52   O16   S    
C49   C66   A    
C5    C22   A    
C2    C20   A    
Cu4   N3    S    
C96   H82   S    
C5    C54   A    
C5    H34   S    
C35   C38   S    
C34   C44   A    
C76   C77   S    
C47   C73   A    
C98   H88   S    
C3    C100  S    
C10   H89   S    
C47   C64   A    
C84   H54   S    
C86   C87   S    
C98   H87   S    
C80   O10   S    
C7    H56   S    
Cu3   O3    S    
C51   O15   S    
Cu3   O24   S    
C96   O16   S    
C22   C37   A    
C57   O2    A    
C50   O14   S    
C33   H24   S    
C67   N3    A    
C91   H70   S    
C49   O13   S    
C86   O13   S    
C66   N2    A    
C67   H31   S    
C77   H39   S    
C78   H40   S    
C16   C33   A    
C20   C38   A    
C1    C39   S    
C45   O9    S    
C83   C84   S    
C44   C57   S    
C93   H74   S    
C88   H63   S    
C96   C97   S    
C11   H2    S    
C24   C37   S    
Cu2   O20   S    
C9    C56   A    
C94   H76   S    
C84   C85   S    
Cu1   O1    S    
C70   H33   S    
C12   C60   A    
Cu2   O12   S    
C30   H20   S    
C3    H96   S    
Cu4   O2    S    
C4    C55   A    
C56   C62   S    
C86   H60   S    
C17   C34   A    
C31   H21   S    
C11   C60   A    
C68   O8    A    
C91   C92   S    
C95   H81   S    
C10   C28   A    
C70   N3    A    
C64   N2    A    
C88   H65   S    
C63   N1    A    
C4    H23   S    
C12   C30   A    
Cu1   N2    S    
C35   O21   A    
C33   C44   A    
C89   H68   S    
C6    C56   A    
C80   C81   S    
Cu3   O8    S    
C36   H26   S    
C12   H3    S    
C83   O11   S    
C84   H53   S    
C18   C61   A    
C71   H35   S    
C83   H52   S    
C69   H32   S    
C85   H55   S    
C57   O3    A    
C7    C25   A    
C99   C100  S    
C1    O19   A    
Cu1   O23   S    
C93   O15   S    
C10   C59   A    
Cu3   N4    S    
C19   C90   A    
C81   H47   S    
C76   H37   S    
C20   H10   S    
C4    C21   A    
C26   C40   A    
C87   H61   S    
C23   C39   A    
C6    C23   A    
C29   H19   S    
C14   H4    S    
C32   C43   A    
C45   C63   A    
C49   C73   A    
Cu4   O4    S    
C24   O20   A    
C94   C95   S    
C43   C46   S    
C65   H29   S    
C52   C70   A    
C92   H73   S    
C78   H42   S    
C90   H1    S    
C82   H50   S    
C80   H44   S    
C65   N1    A    
C74   C75   S    
C11   C29   A    
C69   N4    A    
Cu3   Cu4   S    
C15   C61   A    
C46   O24   A    
C30   C42   A    
C36   C43   A    
C86   H59   S    
C51   C69   A    
Cu4   O7    S    
C79   O7    A    
C22   H13   S    
C18   C36   A    
C82   H48   S    
C53   C71   A    
