data_mof_unit_59368.cif
_audit_creation_date              2012-12-11T17:43:34-0500
_audit_creation_method            fapswitch 2.2
_symmetry_space_group_name_H-M    P1
_symmetry_Int_Tables_number       1
_space_group_crystal_system       triclinic
_cell_length_a                    15.090677
_cell_length_b                    15.023943
_cell_length_c                    17.172381
_cell_angle_alpha                 108.996066
_cell_angle_beta                  106.369465
_cell_angle_gamma                 109.010057
_cell_volume                      3135.90516199

loop_
_atom_site_label
_atom_site_type_symbol
_atom_type_description
_atom_site_fract_x
_atom_site_fract_y
_atom_site_fract_z
_atom_type_partial_charge
C1    C     C_R   0.090244 0.276118 0.025961 -0.112703
C2    C     C_R   0.098798 0.070149 0.953599 -0.232260
C3    C     C_R   0.008892 0.886952 0.919501 0.041861
C4    C     C_R   0.003469 0.073145 0.928420 0.056194
C5    C     C_R   0.102770 0.976737 0.947440 0.049862
C6    C     C_R   0.910951 0.975449 0.874583 0.101321
C7    C     C_R   0.788511 0.952133 0.726793 0.147220
C8    C     C_R   0.295689 0.043840 0.043378 0.131716
C9    C     C_R   0.603360 0.881533 0.687914 0.509124
C10   C     C_R   0.387606 0.957693 0.978279 0.538324
C11   C     C_R   0.506397 0.732271 0.338762 -0.198727
C12   C     C_R   0.916052 0.711028 0.919949 -0.131107
C13   C     C_R   0.523261 0.328849 0.733993 -0.186066
C14   C     C_R   0.513881 0.707347 0.255616 0.494769
C15   C     C_R   0.522548 0.367380 0.819706 0.503135
C16   C     C_R   0.936260 0.512282 0.744925 -0.070537
C17   C     C_R   0.064042 0.486815 0.254694 -0.085768
C18   C     C_R   0.525668 0.616406 0.214574 -0.022107
C19   C     C_R   0.534573 0.471100 0.861869 -0.025758
C20   C     C_R   0.531521 0.553254 0.258953 -0.201191
C21   C     C_R   0.543342 0.532959 0.815532 -0.209024
C22   C     C_R   0.524092 0.579014 0.341920 -0.091654
C23   C     C_R   0.028249 0.565934 0.743040 0.085193
C24   C     C_R   0.544188 0.493772 0.730100 -0.080824
C25   C     C_R   0.511295 0.668263 0.381657 -0.151491
C26   C     C_R   0.534759 0.392053 0.689621 -0.164256
C27   C     C_R   0.619877 0.581214 0.120522 -0.196569
C28   C     C_R   0.452374 0.523247 0.959845 -0.194903
C29   C     C_R   0.623760 0.548195 0.036162 0.068262
C30   C     C_R   0.447448 0.554518 0.043450 0.085988
C31   C     C_R   0.538818 0.516788 0.954464 0.090987
C32   C     C_R   0.530852 0.584763 0.125246 0.091612
C33   C     C_R   0.685248 0.912106 0.663683 -0.310654
C34   C     C_R   0.972458 0.432900 0.256760 0.103446
C35   C     C_R   0.387121 0.034361 0.050768 -0.216292
C36   C     C_R   0.966457 0.428634 0.336484 -0.023495
C37   C     C_R   0.034747 0.570914 0.663693 -0.024300
C38   C     C_R   0.966450 0.609381 0.542074 -0.064530
C39   C     C_R   0.035454 0.390857 0.458362 -0.068443
C40   C     C_R   0.748286 0.201340 0.809174 -0.124359
C41   C     C_R   0.225160 0.798078 0.187469 -0.092304
C42   C     C_R   0.993571 0.629362 0.631817 -0.279559
C43   C     C_R   0.007795 0.370395 0.368503 -0.248104
C44   C     C_R   0.054574 0.495240 0.608900 0.450836
C45   C     C_R   0.723468 0.197536 0.723385 0.116027
C46   C     C_R   0.947169 0.504813 0.391408 0.439895
C47   C     C_R   0.023813 0.471654 0.517226 -0.025815
C48   C     C_R   0.978189 0.528661 0.483181 -0.021627
C49   C     C_R   0.647614 0.110577 0.635756 -0.060210
C50   C     C_R   0.307636 0.896141 0.359102 -0.054974
C51   C     C_R   0.360953 0.972161 0.522026 -0.212705
C52   C     C_R   0.592031 0.040576 0.472963 -0.279857
C53   C     C_R   0.281930 0.910384 0.433353 0.477136
C54   C     C_R   0.671720 0.094732 0.560478 0.463094
C55   C     C_R   0.409814 0.948438 0.372989 -0.288396
C56   C     C_R   0.241010 0.802943 0.272560 0.138895
C57   C     C_R   0.544798 0.067700 0.623347 -0.233850
C58   C     C_R   0.488982 0.002802 0.460464 0.093982
C59   C     C_R   0.464738 0.014414 0.535784 0.140838
C60   C     C_R   0.623880 0.891919 0.775732 -0.159454
C61   C     C_R   0.296616 0.888912 0.897572 -0.218749
C62   C     C_R   0.725673 0.929445 0.838472 -0.300916
C63   C     C_R   0.204964 0.896330 0.889100 -0.215746
C64   C     C_R   0.294961 0.583544 0.992769 -0.040692
C65   C     C_R   0.741030 0.466248 0.049507 0.005847
C66   C     C_R   0.808946 0.960113 0.815109 0.034612
C67   C     C_R   0.349424 0.544929 0.038584 0.080372
C68   C     C_R   0.202813 0.972788 0.961347 0.019511
C69   C     C_R   0.763158 0.299250 0.734772 -0.053883
C70   C     C_R   0.217785 0.702467 0.264056 -0.060878
C71   C     C_R   0.291105 0.490057 0.071471 -0.151773
C72   C     C_R   0.754478 0.566655 0.976695 -0.124289
C73   C     C_R   0.109924 0.595372 0.822198 -0.036205
C74   C     C_R   0.890695 0.403273 0.177657 -0.042142
C75   C     C_R   0.916614 0.192458 0.955268 -0.139986
C76   C     C_R   0.087641 0.796428 0.000283 -0.139013
C77   C     C_R   0.003614 0.176606 0.965910 0.055309
C78   C     C_R   0.713582 0.539603 0.032443 0.054807
C79   C     C_R   0.004808 0.802451 0.946341 0.070385
C80   C     C_3   0.941739 0.083444 0.734193 -0.724153
C81   C     C_3   0.365388 0.228982 0.152317 -0.900177
C82   C     C_R   0.914802 0.884267 0.873869 -0.236704
Cl1   Cl    Cl    0.511796 0.793524 0.206758 -0.669530
Cl2   Cl    Cl    0.504162 0.283214 0.871259 -0.679120
Cl3   Cl    Cl    0.893461 0.576406 0.346391 -0.645226
Cl4   Cl    Cl    0.108023 0.423390 0.653758 -0.631702
Cl5   Cl    Cl    0.800748 0.149351 0.573796 -0.637348
Cl6   Cl    Cl    0.152893 0.844914 0.416970 -0.571704
Cl7   Cl    Cl    0.474218 0.823874 0.606569 -0.697874
Cl8   Cl    Cl    0.502312 0.946876 0.989080 -0.637046
H1    H     H_    0.171010 0.293744 0.053185 0.098247
H2    H     H_    0.552529 0.542463 0.695416 0.131097
H3    H     H_    0.685641 0.603118 0.181969 0.175304
H4    H     H_    0.385748 0.497428 0.897299 0.156934
H5    H     H_    0.024249 0.313471 0.325131 0.157621
H6    H     H_    0.976681 0.685911 0.675099 0.147233
H7    H     H_    0.932853 0.654895 0.519088 0.196781
H8    H     H_    0.069099 0.345389 0.481364 0.199857
H9    H     H_    0.858449 0.486410 0.696041 0.093593
H10   H     H_    0.141960 0.512369 0.303234 0.106277
H11   H     H_    0.668345 0.902243 0.594909 0.170373
H12   H     H_    0.838839 0.681705 0.868419 0.088371
H13   H     H_    0.457776 0.085268 0.113739 0.172609
H14   H     H_    0.527359 0.082029 0.682081 0.177030
H15   H     H_    0.428847 0.934968 0.315103 0.194496
H16   H     H_    0.341802 0.981669 0.579536 0.189073
H17   H     H_    0.610601 0.029782 0.415035 0.205840
H18   H     H_    0.560592 0.867334 0.794443 0.197854
H19   H     H_    0.296646 0.829279 0.841345 0.172082
H20   H     H_    0.739647 0.931746 0.904706 0.185154
H21   H     H_    0.135113 0.842036 0.825884 0.154050
H22   H     H_    0.715926 0.136116 0.823097 0.125622
H23   H     H_    0.505629 0.688121 0.445957 0.180700
H24   H     H_    0.242124 0.863828 0.171580 0.108922
H25   H     H_    0.322658 0.637988 0.966510 0.126292
H26   H     H_    0.716132 0.424538 0.086165 0.121833
H27   H     H_    0.748967 0.325156 0.682764 0.109825
H28   H     H_    0.228803 0.680168 0.318475 0.131857
H29   H     H_    0.315311 0.458235 0.116970 0.107091
H30   H     H_    0.744430 0.619023 0.948264 0.117934
H31   H     H_    0.191635 0.644704 0.844619 0.105547
H32   H     H_    0.809408 0.352177 0.155058 0.113004
H33   H     H_    0.837080 0.134637 0.923654 0.125350
H34   H     H_    0.535612 0.361833 0.623511 0.135118
H35   H     H_    0.169259 0.846910 0.026115 0.108317
H36   H     H_    0.842381 0.812061 0.839834 0.128684
H37   H     H_    0.170500 0.140632 0.979515 0.143946
H38   H     H_    0.845469 0.929273 0.628727 0.192356
H39   H     H_    0.946555 0.102059 0.677602 0.291652
H40   H     H_    0.020407 0.098779 0.777640 0.237936
H41   H     H_    0.918241 0.137601 0.775053 0.243208
H42   H     H_    0.225166 0.105523 0.120840 0.177973
H43   H     H_    0.359255 0.279667 0.212120 0.242419
H44   H     H_    0.343830 0.252311 0.097433 0.246293
H45   H     H_    0.497305 0.801647 0.370576 0.168381
H46   H     H_    0.447507 0.243657 0.174124 0.261857
H47   H     H_    0.514464 0.249647 0.701453 0.147462
H48   H     H_    0.540425 0.483141 0.228551 0.152970
H49   H     H_    0.551806 0.612414 0.846613 0.155293
H50   H     H_    0.527990 0.529539 0.375305 0.130317
N1    N     N_R   0.055660 0.348550 0.045620 -0.047246
N2    N     N_R   0.185200 0.638170 0.176300 -0.056585
N3    N     N_R   0.201680 0.494570 0.045620 -0.042624
N4    N     N_R   0.798320 0.505430 0.954380 -0.050558
N5    N     N_R   0.068420 0.560530 0.871650 -0.049412
N6    N     N_R   0.931580 0.439470 0.128350 -0.052040
N7    N     N_R   0.948070 0.295860 0.997670 -0.046872
N8    N     N_R   0.051930 0.704140 0.002330 -0.044048
N9    N     N_2   0.869387 0.972834 0.697804 -0.117213
N10   N     N_2   0.296561 0.118601 0.120837 -0.108303
N11   N     N_R   0.944340 0.651450 0.954380 -0.041705
N12   N     N_R   0.960830 0.507850 0.823700 -0.046109
N13   N     N_R   0.039170 0.492150 0.176300 -0.047747
N14   N     N_R   0.811290 0.303410 0.871650 -0.044161
N15   N     N_R   0.188710 0.696590 0.128350 -0.045399
N16   N     N_R   0.205200 0.552990 0.997670 -0.048067
N17   N     N_R   0.794800 0.447010 0.002330 -0.049052
N18   N     N_R   0.814800 0.361830 0.823700 -0.053531
Ni1   Ni    Ni4+2 0.119340 0.493420 0.109960 0.225362
Ni2   Ni    Ni4+2 0.880660 0.506580 0.890040 0.220602
Ni3   Ni    Ni4+2 0.872590 0.372590 0.000000 0.252893
Ni4   Ni    Ni4+2 0.127410 0.627410 0.000000 0.241952

loop_
_geom_bond_atom_site_label_1
_geom_bond_atom_site_label_2
_ccdc_geom_bond_type
C9    C33   A    
N12   Ni2   S    
C6    C82   A    
C27   C29   A    
H42   N10   S    
C14   C18   A    
N14   Ni3   S    
C8    N10   S    
N8    N11   A    
N2    Ni1   S    
C33   H11   S    
C19   C31   S    
C81   H44   S    
C40   H22   S    
C15   C19   A    
N6    N13   A    
C55   H15   S    
C75   H33   S    
C28   H4    S    
C19   C21   A    
C24   C26   A    
C38   C42   A    
C35   H13   S    
C5    C68   S    
C54   Cl5   S    
C11   C14   A    
C57   C59   A    
N5    Ni4   S    
C11   C25   A    
C81   N10   S    
C12   C79   A    
C22   H50   S    
C49   C57   A    
C60   C62   A    
C20   H48   S    
C37   C42   A    
C61   C63   A    
C82   H36   S    
C72   C78   A    
C7    N9    S    
N1    Ni1   S    
C29   C78   S    
C52   H17   S    
C22   C25   A    
C43   H5    S    
C76   C79   A    
C36   C46   A    
C10   C35   A    
C65   C78   A    
N2    N15   A    
N4    Ni2   S    
C41   H24   S    
C67   C71   A    
C30   C67   S    
C60   H18   S    
C44   C47   A    
C46   Cl3   S    
C2    H37   S    
C61   H19   S    
C17   N13   A    
C1    H1    S    
C80   H41   S    
N18   Ni2   S    
C76   H35   S    
C7    C33   A    
C12   N11   A    
C40   N14   A    
C40   C45   A    
C26   H34   S    
C14   Cl1   S    
C23   C73   A    
C38   H7    S    
C44   Cl4   S    
C24   H2    S    
C52   C54   A    
N15   Ni4   S    
C80   N9    S    
N6    Ni3   S    
C46   C48   A    
C70   N2    A    
C50   C53   A    
C80   H40   S    
C62   C66   A    
C45   C69   A    
C64   C67   A    
C4    C6    A    
N7    Ni3   S    
C9    Cl7   S    
C39   H8    S    
C39   C43   A    
C75   N7    A    
C58   C59   A    
C23   C37   S    
C50   C56   S    
C73   N5    A    
C51   C53   A    
C8    C35   A    
C13   H47   S    
N13   Ni1   S    
C2    C4    A    
C41   C56   A    
C12   H12   S    
C25   H23   S    
C47   C48   A    
C62   H20   S    
C45   C49   S    
C72   H30   S    
C3    C82   A    
C69   N18   A    
C21   C24   A    
C16   N12   A    
N3    Ni1   S    
C75   C77   A    
C10   Cl8   S    
C3    C79   S    
C52   C58   A    
C34   C74   A    
C65   N17   A    
C74   H32   S    
C20   C22   A    
C8    C68   A    
C16   C23   A    
C56   C70   A    
C13   C15   A    
C65   H26   S    
C42   H6    S    
C13   C26   A    
C27   H3    S    
C10   C61   A    
C18   C32   S    
C17   C34   A    
C21   H49   S    
N17   Ni3   S    
C81   H46   S    
C39   C47   A    
C72   N4    A    
C57   H14   S    
C63   C68   A    
C80   H39   S    
C27   C32   A    
C38   C48   A    
C74   N6    A    
C28   C31   A    
C11   H45   S    
C3    C5    A    
C16   H9    S    
C81   H43   S    
C15   Cl2   S    
C64   N16   A    
C73   H31   S    
C50   C55   A    
C71   H29   S    
C9    C60   A    
N8    Ni4   S    
N11   Ni2   S    
C37   C44   A    
C28   C30   A    
C4    C77   S    
C29   C31   A    
C7    C66   A    
C30   C32   A    
N3    N16   A    
C71   N3    A    
C70   H28   S    
C51   H16   S    
C69   H27   S    
C34   C36   S    
C53   Cl6   S    
C18   C20   A    
C63   H21   S    
C17   H10   S    
N5    N12   A    
C1    N1    A    
N1    N7    A    
N16   Ni4   S    
C2    C5    A    
H38   N9    S    
C6    C66   S    
C51   C59   A    
C76   N8    A    
C55   C58   A    
C64   H25   S    
N14   N18   A    
C36   C43   A    
C1    C77   A    
N4    N17   A    
C49   C54   A    
C41   N15   A    
