data_mof_unit_17236.cif
_audit_creation_date              2012-12-10T18:59:18-0500
_audit_creation_method            fapswitch 2.2
_symmetry_space_group_name_H-M    P1
_symmetry_Int_Tables_number       1
_space_group_crystal_system       triclinic
_cell_length_a                    10.842453
_cell_length_b                    10.844047
_cell_length_c                    9.564331
_cell_angle_alpha                 89.906907
_cell_angle_beta                  89.622841
_cell_angle_gamma                 91.669413
_cell_volume                      1124.03293668

loop_
_atom_site_label
_atom_site_type_symbol
_atom_type_description
_atom_site_fract_x
_atom_site_fract_y
_atom_site_fract_z
_atom_type_partial_charge
C1    C     C_R   0.500192 0.262448 0.500157 0.785211
C2    C     C_R   0.060461 0.509054 0.632969 -0.077618
C3    C     C_R   0.128042 0.525341 0.505345 -0.262109
C4    C     C_R   0.063349 0.533357 0.377811 0.457944
C5    C     C_R   0.936748 0.513310 0.377125 -0.284452
C6    C     C_R   0.872152 0.483259 0.499913 -0.176291
C7    C     C_R   0.505016 0.063500 0.625945 0.113868
C8    C     C_R   0.507100 0.129423 0.500234 -0.091611
C9    C     C_R   0.518663 0.065132 0.373783 -0.196448
C10   C     C_R   0.515712 0.936884 0.373647 -0.235521
C11   C     C_R   0.503845 0.871140 0.499798 -0.093944
C12   C     C_R   0.262678 0.510963 0.501211 0.802327
C13   C     C_R   0.502995 0.936096 0.625664 0.125435
C14   C     C_3   0.410089 0.928496 0.741862 -0.454728
C15   C     C_3   0.413935 0.068213 0.743553 -0.464167
C16   C     C_R   0.527004 0.606084 0.072680 0.063865
C17   C     C_R   0.450961 0.402394 0.072952 0.464504
C18   C     C_R   0.454622 0.401853 0.924913 -0.051674
C19   C     C_R   0.527797 0.605492 0.925910 0.082678
C20   C     C_3   0.642084 0.686325 0.918504 0.219145
C21   C     C_3   0.638361 0.690925 0.078139 0.162121
C22   C     C_R   0.498939 0.737587 0.499925 0.776866
C23   C     C_R   0.737390 0.490477 0.499785 0.821473
C24   C     C_R   0.109782 0.530081 0.769388 0.464312
C25   C     C_R   0.055957 0.468733 0.884006 -0.112736
C26   C     C_R   0.947761 0.398319 0.867850 -0.241488
C27   C     C_R   0.886215 0.399419 0.740342 -0.137501
C28   C     C_R   0.937796 0.463919 0.624592 0.099415
Cu1   Cu    Cu3+1 0.499990 0.499980 0.640670 0.974163
Cu2   Cu    Cu3+1 0.500010 0.500020 0.359330 0.973431
H1    H     H_    0.447177 0.887670 0.838834 0.183538
H2    H     H_    0.325364 0.109332 0.712548 0.200512
H3    H     H_    0.455977 0.106802 0.840298 0.202323
H4    H     H_    0.417154 0.323042 0.869034 0.151974
H5    H     H_    0.627365 0.776809 0.867987 0.091378
H6    H     H_    0.618365 0.784574 0.117362 0.033635
H7    H     H_    0.096455 0.478468 0.986567 0.193578
H8    H     H_    0.907137 0.349707 0.956563 0.164914
H9    H     H_    0.799396 0.348189 0.732738 0.150895
H10   H     H_    0.889606 0.519984 0.278588 0.221942
H11   H     H_    0.524575 0.113225 0.274539 0.200092
H12   H     H_    0.517190 0.889927 0.274531 0.155181
H13   H     H_    0.319681 0.888244 0.707890 0.196268
N1    N     N_R   0.500790 0.500930 0.147930 -0.200874
N2    N     N_R   0.500790 0.500890 0.852020 -0.197195
O1    O     O_R   0.500000 0.319640 0.618810 -0.602983
O2    O     O_R   0.500010 0.319680 0.381230 -0.568964
O3    O     O_R   0.319640 0.499980 0.618820 -0.550631
O4    O     O_R   0.319650 0.500020 0.381230 -0.571745
O5    O     O_R   0.499990 0.680320 0.618770 -0.564708
O6    O     O_R   0.500000 0.680360 0.381190 -0.599236
O7    O     O_R   0.680350 0.499980 0.618770 -0.549372
O8    O     O_R   0.680360 0.500020 0.381180 -0.551751
O9    O     O_3   0.122602 0.551064 0.250293 -0.613532
C29   C     C_3   0.160790 0.676313 0.234020 0.084766
H14   H     H_    0.244042 0.678487 0.165518 0.182807
H15   H     H_    0.188911 0.721679 0.334032 0.106560
C30   C     C_3   0.059901 0.749477 0.163059 -0.353110
H16   H     H_    0.027803 0.700130 0.067629 0.265575
H17   H     H_    0.980383 0.757642 0.235867 0.206378
C31   C     C_3   0.107107 0.878605 0.122264 -0.875741
H18   H     H_    0.139232 0.929984 0.216257 0.253233
H19   H     H_    0.031482 0.929885 0.073156 0.261308
H20   H     H_    0.184497 0.872988 0.045997 0.262995
O10   O     O_3   0.392380 0.303591 0.136983 -0.754822
H21   H     H_    0.342183 0.337149 0.213670 0.369172
O11   O     O_3   0.745449 0.627279 0.863582 -0.655263
H22   H     H_    0.746853 0.543037 0.903985 0.364506
O12   O     O_3   0.739614 0.636341 0.140464 -0.699712
H23   H     H_    0.761995 0.688993 0.221677 0.321395
O13   O     O_3   0.199942 0.619003 0.797044 -0.731877
H24   H     H_    0.205137 0.676574 0.716400 0.310122

loop_
_geom_bond_atom_site_label_1
_geom_bond_atom_site_label_2
_ccdc_geom_bond_type
C31   H20   S    
C29   H14   S    
C19   N2    A    
C23   O8    A    
C16   C21   S    
C26   H8    S    
C6    C28   A    
C10   H12   S    
C1    C8    S    
C11   C13   A    
C9    C10   A    
C16   N1    A    
C11   C22   S    
C9    H11   S    
C19   C20   S    
C12   O3    A    
Cu1   O1    S    
C22   O5    A    
C25   H7    S    
C30   C31   S    
C7    C15   S    
C12   O4    A    
C23   O7    A    
C17   N1    A    
C7    C8    A    
C21   H6    S    
C13   C14   S    
C24   C25   A    
C4    C5    A    
C18   H4    S    
Cu2   N1    S    
C26   C27   A    
Cu1   Cu2   S    
C16   C19   A    
C5    C6    A    
C6    C23   S    
Cu2   O4    S    
C15   H3    S    
C2    C3    A    
Cu1   O5    S    
C29   H15   S    
C2    C24   A    
C31   H18   S    
Cu2   O8    S    
O12   H23   S    
C1    O1    A    
C29   C30   S    
Cu1   N2    S    
C10   C11   A    
Cu1   O3    S    
C30   H17   S    
O11   H22   S    
Cu2   O6    S    
C18   N2    A    
Cu2   O2    S    
C7    C13   A    
O13   H24   S    
C20   C21   S    
C17   C18   A    
O10   H21   S    
C5    H10   S    
C21   O12   S    
C27   C28   A    
C31   H19   S    
C14   H1    S    
C14   C15   S    
C8    C9    A    
C2    C28   A    
C3    C12   S    
C20   O11   S    
C4    O9    S    
C25   C26   A    
O9    C29   S    
C30   H16   S    
C17   O10   S    
C20   H5    S    
C22   O6    A    
C1    O2    A    
C3    C4    A    
C24   O13   S    
C27   H9    S    
C14   H13   S    
Cu1   O7    S    
C15   H2    S    
