data_mof_unit_52575.cif
_audit_creation_date              2012-12-10T17:27:56-0500
_audit_creation_method            fapswitch 2.2
_symmetry_space_group_name_H-M    P1
_symmetry_Int_Tables_number       1
_space_group_crystal_system       triclinic
_cell_length_a                    10.591335
_cell_length_b                    12.085129
_cell_length_c                    12.991455
_cell_angle_alpha                 93.165113
_cell_angle_beta                  90.324703
_cell_angle_gamma                 85.429156
_cell_volume                      1655.05715394

loop_
_atom_site_label
_atom_site_type_symbol
_atom_type_description
_atom_site_fract_x
_atom_site_fract_y
_atom_site_fract_z
_atom_type_partial_charge
Br1   Br    Br    0.843290 0.715327 0.379096 -0.382007
Br2   Br    Br    0.687263 0.232364 0.974221 -0.310542
Br3   Br    Br    0.455463 0.295476 0.822046 -0.388659
Br4   Br    Br    0.720840 0.245420 0.666507 -0.339868
Br5   Br    Br    0.639030 0.012448 0.752882 -0.276466
Br6   Br    Br    0.295819 0.748327 0.319380 -0.449879
Br7   Br    Br    0.677589 0.785493 0.626099 -0.350981
Br8   Br    Br    0.946001 0.044824 0.474761 -0.417029
C1    C     C_R   0.493556 0.521759 0.700877 0.922057
C2    C     C_R   0.478557 0.641752 0.865476 -0.100906
C3    C     C_R   0.512800 0.438705 0.871183 0.288592
C4    C     C_R   0.738543 0.496702 0.481669 0.921705
C5    C     C_R   0.542150 0.450268 0.975349 -0.003203
C6    C     C_R   0.521263 0.555702 0.027472 0.024181
C7    C     C_R   0.519040 0.561116 0.134399 -0.179961
C8    C     C_R   0.549697 0.359719 0.135825 -0.124624
C9    C     C_R   0.577671 0.356408 0.031548 0.293736
C10   C     C_R   0.387921 0.954320 0.396764 -0.128946
C11   C     C_R   0.397283 0.838951 0.408783 0.322527
C12   C     C_R   0.951092 0.395083 0.480738 -0.014207
C13   C     C_R   0.545985 0.858168 0.545297 0.396660
C14   C     C_R   0.531459 0.976861 0.542854 -0.127290
C15   C     C_R   0.453987 0.025952 0.465077 -0.110960
C16   C     C_R   0.504715 0.477739 0.299585 0.907816
C17   C     C_R   0.445609 0.144876 0.460337 0.013590
C18   C     C_R   0.600591 0.160423 0.591665 0.385786
C19   C     C_R   0.593739 0.048743 0.613336 0.244997
C20   C     C_R   0.258942 0.502983 0.510932 0.891859
C21   C     C_R   0.921084 0.284477 0.456907 -0.024822
C22   C     C_R   0.986168 0.195892 0.506587 0.239645
C23   C     C_R   0.873645 0.491796 0.458202 -0.216344
C24   C     C_R   0.075226 0.219533 0.583836 -0.087780
C25   C     C_R   0.111039 0.328786 0.598936 -0.059393
C26   C     C_R   0.063335 0.410497 0.532937 0.027555
C27   C     C_1   0.435481 0.740422 0.812069 0.313247
C28   C     C_1   0.353283 0.203448 0.396973 0.281473
C29   C     C_1   0.314013 0.994008 0.310061 0.293760
C30   C     C_1   0.840670 0.260252 0.370414 0.281077
C31   C     C_1   0.131010 0.132398 0.645661 0.307899
C32   C     C_1   0.163181 0.366871 0.696200 0.247343
C33   C     C_1   0.088850 0.715223 0.510671 0.399430
C34   C     C_R   0.927802 0.593599 0.450627 0.269087
C35   C     C_1   0.543240 0.254603 0.182655 0.341786
C36   C     C_1   0.476286 0.761424 0.025732 0.239626
C37   C     C_R   0.048465 0.604537 0.489643 -0.086436
C38   C     C_R   0.121150 0.509400 0.521037 -0.221312
C39   C     C_R   0.521877 0.464072 0.188515 -0.149246
C40   C     C_R   0.492825 0.534831 0.813765 -0.207778
C41   C     C_R   0.493266 0.652011 0.972591 -0.039283
H1    H     H_    0.505029 0.641335 0.175517 0.206698
N1    N     N_R   0.523130 0.207800 0.519340 -0.175274
N2    N     N_1   0.538058 0.169200 0.217881 -0.156685
N3    N     N_1   0.462820 0.848427 0.067939 -0.118401
N4    N     N_R   0.476870 0.792180 0.480660 -0.158571
N5    N     N_1   0.400063 0.819199 0.770255 -0.135264
N6    N     N_1   0.278851 0.250284 0.346148 -0.179711
N7    N     N_1   0.254871 0.024105 0.240249 -0.110678
N8    N     N_1   0.778227 0.240153 0.299872 -0.157641
N9    N     N_1   0.175967 0.062684 0.695057 -0.118096
N10   N     N_1   0.199092 0.401107 0.774893 -0.147726
N11   N     N_1   0.120444 0.803700 0.528903 -0.117603
O1    O     O_R   0.506170 0.421690 0.658830 -0.554628
O2    O     O_R   0.491330 0.609320 0.646410 -0.608798
O3    O     O_R   0.690660 0.406170 0.506210 -0.600920
O4    O     O_R   0.675810 0.593790 0.493790 -0.546225
O5    O     O_R   0.508670 0.390680 0.353590 -0.640178
O6    O     O_R   0.493830 0.578310 0.341170 -0.583857
O7    O     O_R   0.324190 0.406210 0.506210 -0.618738
O8    O     O_R   0.309340 0.593830 0.493790 -0.601359
Zn1   Zn    Zn3+2 0.509910 0.374720 0.508290 1.016894
Zn2   Zn    Zn3+2 0.490090 0.625280 0.491710 1.049246

loop_
_geom_bond_atom_site_label_1
_geom_bond_atom_site_label_2
_ccdc_geom_bond_type
C36   C41   S    
C21   C30   S    
Br4   C18   S    
C17   N1    A    
C21   C22   A    
C26   C38   A    
N1    Zn1   S    
O3    Zn1   S    
C2    C41   A    
C4    O4    A    
C20   O8    A    
C6    C7    A    
C7    C39   A    
C12   C21   A    
C31   N9    T    
C24   C25   A    
C25   C26   A    
C18   C19   A    
C12   C26   A    
Br5   C19   S    
C18   N1    A    
Br2   C9    S    
C22   C24   A    
Br6   C11   S    
C3    C5    A    
C8    C35   S    
C20   C38   S    
C3    C40   A    
O5    Zn1   S    
C5    C9    A    
C28   N6    T    
C11   N4    A    
C13   C14   A    
C23   C34   A    
C10   C29   S    
O2    Zn2   S    
O6    Zn2   S    
C14   C19   A    
C15   C17   A    
C4    C23   S    
C2    C40   A    
C13   N4    A    
C4    O3    A    
C2    C27   S    
C35   N2    T    
C24   C31   S    
C6    C41   A    
Br3   C3    S    
N4    Zn2   S    
C17   C28   S    
C30   N8    T    
C1    O1    A    
C25   C32   S    
C37   C38   A    
Br1   C34   S    
C16   O5    A    
O1    Zn1   S    
C1    C40   S    
O7    Zn1   S    
C10   C11   A    
C7    H1    S    
Br7   C13   S    
C32   N10   T    
O8    Zn2   S    
C33   C37   S    
C14   C15   A    
C8    C9    A    
C8    C39   A    
C16   O6    A    
C20   O7    A    
Br8   C22   S    
C1    O2    A    
C16   C39   S    
C27   N5    T    
C36   N3    T    
C34   C37   A    
C29   N7    T    
C33   N11   T    
C10   C15   A    
O4    Zn2   S    
C5    C6    A    
C12   C23   A    
