data_mof_unit_51527.cif
_audit_creation_date              2012-12-11T15:57:34-0500
_audit_creation_method            fapswitch 2.2
_symmetry_space_group_name_H-M    P1
_symmetry_Int_Tables_number       1
_space_group_crystal_system       triclinic
_cell_length_a                    10.752789
_cell_length_b                    10.739123
_cell_length_c                    16.912935
_cell_angle_alpha                 99.043816
_cell_angle_beta                  99.339412
_cell_angle_gamma                 61.16715
_cell_volume                      1681.18200383

loop_
_atom_site_label
_atom_site_type_symbol
_atom_type_description
_atom_site_fract_x
_atom_site_fract_y
_atom_site_fract_z
_atom_type_partial_charge
C1    C     C_R   0.357942 0.771071 0.399416 0.564864
C2    C     C_2   0.847633 0.318405 0.165248 -0.135686
C3    C     C_2   0.910382 0.201860 0.206958 -0.137426
C4    C     C_2   0.886331 0.208062 0.291015 0.108649
C5    C     C_2   0.350941 0.827530 0.324939 -0.067834
C6    C     C_2   0.351481 0.796912 0.149289 0.089141
C7    C     C_2   0.462165 0.794893 0.200929 0.151333
C8    C     C_2   0.469498 0.768108 0.284851 0.366844
C9    C     C_2   0.303059 0.296499 0.630532 0.125406
C10   C     C_2   0.274422 0.271613 0.796707 -0.100920
C11   C     C_2   0.349367 0.160725 0.745982 -0.151732
C12   C     C_R   0.365737 0.342734 0.358646 0.549626
C13   C     C_2   0.389498 0.185448 0.674098 -0.104276
C14   C     C_1   0.846148 0.328527 0.705087 -0.019333
C15   C     C_1   0.894545 0.293488 0.771639 -0.030688
C16   C     C_1   0.338567 0.811313 0.708796 -0.039090
C17   C     C_1   0.313175 0.838569 0.777149 -0.040217
C18   C     C_R   0.896881 0.306198 0.088117 0.549922
C19   C     C_R   0.290422 0.259751 0.121921 0.565870
C20   C     C_R   0.295704 0.886220 0.081928 0.548562
C21   C     C_R   0.944378 0.273183 0.853969 0.539982
C22   C     C_R   0.274225 0.249828 0.878809 0.543377
C23   C     C_R   0.780132 0.375717 0.406597 0.567492
C24   C     C_R   0.278867 0.884520 0.856892 0.538316
C25   C     C_R   0.357751 0.770509 0.626790 0.541813
C26   C     C_R   0.366732 0.343754 0.579864 0.552432
C27   C     C_R   0.775409 0.379633 0.629486 0.529985
C28   C     C_1   0.323340 0.314685 0.277216 -0.050949
C29   C     C_1   0.303540 0.289096 0.206460 -0.057670
C30   C     C_2   0.863527 0.328039 0.338391 -0.088345
Cr1   Cr    Cr6+3 0.608020 0.610770 0.522990 1.061454
Cr2   Cr    Cr6+3 0.289390 0.599570 0.488050 1.024020
Cr3   Cr    Cr6+3 0.602610 0.289690 0.489020 1.034644
Cr4   Cr    Cr6+3 0.053780 0.052210 0.965970 1.021754
Cr5   Cr    Cr6+3 0.060060 0.372530 0.992430 1.015714
Cr6   Cr    Cr6+3 0.372600 0.061970 0.991430 1.018925
H1    H     H_    0.985028 0.099310 0.179556 0.150789
H2    H     H_    0.502623 0.124430 0.666579 0.136901
H3    H     H_    0.221127 0.380308 0.779625 0.146221
H4    H     H_    0.774450 0.422987 0.191302 0.126834
H5    H     H_    0.885528 0.406658 0.318853 0.106499
H6    H     H_    0.248609 0.904712 0.298418 0.045025
H7    H     H_    0.407485 0.053943 0.765852 0.140402
O1    O     O_R   0.749250 0.499990 0.439200 -0.465855
O2    O     O_R   0.299400 0.468710 0.556310 -0.500889
O3    O     O_R   0.489240 0.256450 0.560730 -0.531270
O4    O     O_R   0.723350 0.306730 0.584410 -0.507910
O5    O     O_3   0.500010 0.500010 0.500020 -0.252327
O6    O     O_R   0.170650 0.915100 0.051290 -0.524683
O7    O     O_R   0.941960 0.184500 0.049060 -0.488025
O8    O     O_R   0.922640 0.402670 0.071640 -0.515303
O9    O     O_R   0.196880 0.368740 0.083740 -0.505174
O10   O     O_R   0.411120 0.181190 0.091480 -0.483060
O11   O     O_R   0.364220 0.944920 0.062310 -0.506113
O12   O     O_R   0.477870 0.725740 0.440280 -0.429785
O13   O     O_R   0.158740 0.906940 0.874970 -0.503155
O14   O     O_R   0.930920 0.176940 0.885610 -0.478227
O15   O     O_R   0.910730 0.394510 0.895320 -0.500537
O16   O     O_R   0.185840 0.361180 0.920280 -0.498683
O17   O     O_R   0.399210 0.173040 0.915160 -0.487083
O18   O     O_R   0.353170 0.937370 0.898860 -0.522246
O19   O     O_3   0.162150 0.162240 0.983280 -0.317638
O20   O     O_R   0.260770 0.742210 0.412610 -0.523259
O21   O     O_R   0.297990 0.466320 0.394220 -0.498813
O22   O     O_R   0.487720 0.253870 0.385870 -0.494009
O23   O     O_R   0.721940 0.304340 0.422320 -0.477125
O24   O     O_R   0.750770 0.502570 0.614050 -0.513795
O25   O     O_R   0.479280 0.728140 0.602370 -0.500312
O26   O     O_R   0.262290 0.744790 0.587460 -0.513839
N1    N     N_2   0.152154 0.354057 0.624360 -0.524725
H8    H     H_    0.098427 0.462242 0.618486 0.265047
C31   C     C_3   0.102155 0.275699 0.561473 -0.295611
H9    H     H_    0.984840 0.332743 0.551038 0.159159
H10   H     H_    0.136030 0.167488 0.578922 0.155663
H11   H     H_    0.144071 0.266279 0.503633 0.126403
N2    N     N_2   0.887840 0.090358 0.321960 -0.474917
H12   H     H_    0.933996 0.073138 0.380344 0.251670
C32   C     C_3   0.918566 0.960813 0.269949 -0.296217
H13   H     H_    0.905159 0.885772 0.301656 0.140327
H14   H     H_    0.030251 0.908641 0.255057 0.143036
H15   H     H_    0.844354 0.984920 0.213983 0.164691
N3    N     N_2   0.572845 0.810310 0.173070 -0.500789
H16   H     H_    0.595629 0.764862 0.115298 0.259122
C33   C     C_3   0.699564 0.788713 0.226366 -0.250246
H17   H     H_    0.767868 0.812549 0.195520 0.114213
H18   H     H_    0.762145 0.675431 0.239822 0.188797
H19   H     H_    0.671056 0.861023 0.282590 0.184954
F1    F     F_    0.595633 0.665143 0.316157 -0.649980
N4    N     N_2   0.272136 0.731125 0.167344 -0.575228
H20   H     H_    0.167995 0.770650 0.141909 0.267111
C34   C     C_3   0.346724 0.577051 0.160714 -0.275789
H21   H     H_    0.362292 0.534663 0.096785 0.174016
H22   H     H_    0.281707 0.539037 0.183731 0.168729
H23   H     H_    0.451804 0.536334 0.197344 0.181050

loop_
_geom_bond_atom_site_label_1
_geom_bond_atom_site_label_2
_ccdc_geom_bond_type
C5    H6    S    
Cr4   O13   S    
C24   O18   A    
C9    C26   S    
C2    C18   S    
Cr2   O2    S    
C33   H19   S    
Cr3   O22   S    
C7    C8    S    
C10   C22   S    
Cr1   O24   S    
C12   C28   S    
Cr5   O15   S    
C1    C5    S    
C23   O23   A    
C28   C29   T    
N2    C32   S    
C19   O9    A    
C22   O17   A    
C12   O21   A    
C32   H14   S    
Cr4   O19   S    
Cr5   O16   S    
C9    C13   D    
Cr6   O10   S    
C26   O2    A    
C33   H17   S    
C16   C17   T    
Cr3   O23   S    
Cr4   O14   S    
C30   H5    S    
C11   H7    S    
N1    H8    S    
C14   C27   S    
N4    C34   S    
C19   O10   A    
Cr3   O3    S    
Cr2   O5    S    
C25   O25   A    
C31   H11   S    
Cr6   O19   S    
C1    O20   A    
C18   O8    A    
Cr1   O25   S    
Cr4   O7    S    
C17   C24   S    
Cr1   O1    S    
C23   C30   S    
C27   O24   A    
N2    H12   S    
Cr2   O21   S    
C20   O11   A    
C22   O16   A    
C32   H13   S    
C23   O1    A    
C10   H3    S    
C8    F1    S    
C21   O14   A    
C20   O6    A    
C34   H22   S    
C9    N1    S    
C13   H2    S    
Cr2   O26   S    
C31   H10   S    
N3    C33   S    
Cr1   O5    S    
Cr5   O8    S    
Cr3   O4    S    
C25   O26   A    
C3    C4    S    
C19   C29   S    
C34   H21   S    
C18   O7    A    
C27   O4    A    
C16   C25   S    
Cr4   O6    S    
Cr2   O20   S    
C33   H18   S    
C31   H9    S    
Cr6   O17   S    
C5    C8    D    
C6    C7    D    
C24   O13   A    
C6    N4    S    
C6    C20   S    
C12   O22   A    
C2    C3    D    
C1    O12   A    
C21   O15   A    
C34   H23   S    
C11   C13   S    
C32   H15   S    
Cr5   O19   S    
C4    N2    S    
Cr6   O11   S    
C10   C11   D    
C26   O3    A    
C2    H4    S    
C15   C21   S    
C7    N3    S    
C3    H1    S    
N3    H16   S    
Cr5   O9    S    
Cr3   O5    S    
C14   C15   T    
N1    C31   S    
Cr1   O12   S    
N4    H20   S    
C4    C30   D    
Cr6   O18   S    
