data_mof_unit_47534.cif
_audit_creation_date              2013-03-05T15:40:33-0500
_audit_creation_method            fapswitch 2.2
_symmetry_space_group_name_H-M    P1
_symmetry_Int_Tables_number       1
_space_group_crystal_system       triclinic
_cell_length_a                    14.925117
_cell_length_b                    8.718676
_cell_length_c                    7.500401
_cell_angle_alpha                 103.153928
_cell_angle_beta                  93.524251
_cell_angle_gamma                 92.532243
_cell_volume                      946.900503368

loop_
_atom_site_label
_atom_site_type_symbol
_atom_site_description
_atom_site_fract_x
_atom_site_fract_y
_atom_site_fract_z
_atom_type_partial_charge
O1    O     O_R   0.506510 0.286130 0.619770 -0.569674
O2    O     O_R   0.493490 0.713870 0.380230 -0.569394
O3    O     O_R   0.489600 0.256770 0.308360 -0.546063
O4    O     O_R   0.510400 0.743230 0.691640 -0.546632
C1    C     C_R   0.495464 0.200401 0.454184 0.802898
C2    C     C_R   0.504470 0.799594 0.545824 0.803135
O5    O     O_R   0.378710 0.514640 0.655720 -0.560575
O6    O     O_R   0.621290 0.485360 0.344280 -0.560573
O7    O     O_R   0.361800 0.485290 0.344300 -0.535942
O8    O     O_R   0.638200 0.514710 0.655700 -0.536138
C3    C     C_R   0.329342 0.499719 0.503315 0.796523
C4    C     C_R   0.670658 0.500276 0.496684 0.796300
Cu1   Cu    Cu3+1 0.510010 0.517380 0.684380 1.145592
Cu2   Cu    Cu3+1 0.489990 0.482620 0.315620 1.145805
C5    C     C_R   0.818335 0.640627 0.569764 -0.130293
C6    C     C_R   0.181666 0.359365 0.430229 -0.130424
C7    C     C_R   0.766761 0.502207 0.489397 -0.033488
C8    C     C_R   0.233239 0.497785 0.510601 -0.033470
C9    C     C_R   0.806592 0.364611 0.408524 -0.097691
C10   C     C_R   0.193409 0.635379 0.591477 -0.097613
C11   C     C_R   0.899897 0.362318 0.414636 0.055234
C12   C     C_R   0.100104 0.637672 0.585363 0.055186
C13   C     C_R   0.953050 0.501809 0.495620 0.021913
C14   C     C_R   0.046951 0.498181 0.504377 0.021929
C15   C     C_R   0.912094 0.644521 0.568014 -0.000261
C16   C     C_R   0.087907 0.355470 0.431981 -0.000232
C17   C     C_R   0.940341 0.221326 0.346036 -0.145563
C18   C     C_R   0.059660 0.778665 0.653961 -0.145632
C19   C     C_R   0.033947 0.214835 0.358195 0.344322
C20   C     C_R   0.966055 0.785156 0.641799 0.344309
H1    H     H_    0.784284 0.743200 0.635467 0.187209
H2    H     H_    0.215718 0.256795 0.364522 0.187144
H3    H     H_    0.764833 0.258178 0.347975 0.158955
H4    H     H_    0.235167 0.741813 0.652030 0.159003
H5    H     H_    0.898702 0.114306 0.288542 0.210306
H6    H     H_    0.101299 0.885685 0.711454 0.210254
C21   C     C_2   0.479665 0.034214 0.436525 -0.246340
C22   C     C_2   0.520139 0.965791 0.563537 -0.246031
N1    N     N_2   0.474890 0.456420 0.038520 0.024746
N2    N     N_2   0.525110 0.543580 0.961480 0.024561
N3    N     N_R   0.072285 0.064105 0.302918 0.129841
O9    O     O_R   0.032920 0.956294 0.168433 -0.309242
O10   O     O_R   0.135097 0.023349 0.408083 -0.352889
N4    N     N_R   0.927717 0.935887 0.697067 0.129897
O11   O     O_R   0.967080 0.043699 0.831553 -0.309208
O12   O     O_R   0.864910 0.976642 0.591892 -0.352583
C23   C     C_2   0.405078 0.955633 0.299604 0.916146
O13   O     O_2   0.343837 0.878900 0.346285 -0.555889
O14   O     O_R   0.403949 0.973857 0.118997 -0.676031
H7    H     H_    0.349958 0.915911 0.039461 0.353594
C24   C     C_2   0.594592 0.044468 0.700672 0.916107
O15   O     O_2   0.656230 0.120237 0.653819 -0.555842
O16   O     O_R   0.595052 0.027586 0.881779 -0.675892
H8    H     H_    0.648992 0.085533 0.961493 0.353509
N5    N     N_R   0.387290 0.427168 0.962002 0.262949
O17   O     O_R   0.330267 0.536693 0.999660 -0.320959
O18   O     O_R   0.357120 0.282231 0.893087 -0.329116
N6    N     N_R   0.612711 0.572824 0.037991 0.262862
O19   O     O_R   0.669727 0.463289 0.000340 -0.321152
O20   O     O_R   0.642890 0.717759 0.106875 -0.329402

loop_
_geom_bond_atom_site_label_1
_geom_bond_atom_site_label_2
_geom_bond_distance
_ccdc_geom_bond_type
C4    C7    1.438250 S    
C24   O16   1.398871 S    
O7    Cu2   1.938967 S    
C2    C22   1.431994 S    
C3    C8    1.438241 S    
C5    H1    1.082261 S    
C21   C22   1.359440 D    
C1    C21   1.432185 S    
C6    H2    1.082263 S    
N3    O10   1.301296 A    
N3    O9    1.301159 A    
C23   O13   1.223730 D    
C17   C19   1.398928 A    
O6    C4    1.298769 A    
C13   C14   1.401087 A    
C10   H4    1.085402 S    
N5    O17   1.301767 A    
C18   C20   1.398926 A    
C21   C23   1.495036 S    
C11   C17   1.398606 A    
C19   N3    1.440127 S    
C23   O14   1.398553 S    
C12   C18   1.398602 A    
O16   H8    1.014027 S    
O5    C3    1.298768 A    
O7    C3    1.296578 A    
C20   N4    1.440124 S    
O2    C2    1.292184 A    
O3    Cu2   1.957180 S    
O8    C4    1.296581 A    
O1    C1    1.292190 A    
C6    C8    1.393595 A    
C9    C11   1.391699 A    
N4    O12   1.301294 A    
C8    C10   1.391636 A    
N5    O18   1.300225 A    
C11   C13   1.413036 A    
C6    C16   1.399219 A    
O2    Cu2   1.960993 S    
C12   C14   1.413037 A    
C5    C15   1.399220 A    
O1    Cu1   1.960993 S    
C10   C12   1.391693 A    
N6    O20   1.300215 A    
C24   O15   1.223894 D    
N1    N2    1.294582 D    
C7    C9    1.391640 A    
O5    Cu1   1.956735 S    
C13   C15   1.420273 A    
N2    N6    1.384001 S    
N4    O11   1.301157 A    
C18   H6    1.084200 S    
C16   C19   1.416839 A    
O4    C2    1.296927 A    
O14   H7    1.014017 S    
C9    H3    1.085401 S    
O4    Cu1   1.957180 S    
C5    C7    1.393594 A    
C15   C20   1.416837 A    
Cu1   N2    2.035765 S    
O6    Cu2   1.956735 S    
C22   C24   1.494762 S    
C17   H5    1.084199 S    
Cu2   N1    2.035765 S    
Cu1   Cu2   2.709232 S    
N6    O19   1.301751 A    
N1    N5    1.384008 S    
C14   C16   1.420273 A    
O3    C1    1.296977 A    
O8    Cu1   1.938967 S    
