data_mof_unit_60328.cif
_audit_creation_date              2012-12-10T20:49:11-0500
_audit_creation_method            fapswitch 2.2
_symmetry_space_group_name_H-M    P1
_symmetry_Int_Tables_number       1
_space_group_crystal_system       triclinic
_cell_length_a                    19.198591
_cell_length_b                    19.20291
_cell_length_c                    19.485124
_cell_angle_alpha                 89.882583
_cell_angle_beta                  94.673719
_cell_angle_gamma                 84.859001
_cell_volume                      7130.55299549

loop_
_atom_site_label
_atom_site_type_symbol
_atom_type_description
_atom_site_fract_x
_atom_site_fract_y
_atom_site_fract_z
_atom_type_partial_charge
Br1   Br    Br    0.665484 0.235194 0.479639 -0.492962
Br2   Br    Br    0.233033 0.667282 0.477162 -0.507322
Br3   Br    Br    0.527578 0.332966 0.747833 -0.475514
C1    C     C_R   0.492181 0.689198 0.507234 0.798638
C2    C     C_2   0.485231 0.517514 0.017416 -0.223040
C3    C     C_2   0.526549 0.474009 0.981267 -0.207160
C4    C     C_R   0.508355 0.310840 0.493624 0.842191
C5    C     C_R   0.514778 0.485455 0.762732 -0.061353
C6    C     C_R   0.514279 0.234106 0.494193 -0.062002
C7    C     C_R   0.454288 0.200085 0.504444 -0.256328
C8    C     C_R   0.457926 0.127536 0.508315 -0.150603
C9    C     C_R   0.522265 0.087326 0.502367 0.271525
C10   C     C_R   0.582225 0.121209 0.492787 -0.211916
C11   C     C_R   0.578951 0.194070 0.488405 0.258869
C12   C     C_R   0.484790 0.512903 0.092788 0.196616
C13   C     C_R   0.539062 0.873792 0.537772 -0.156805
C14   C     C_R   0.543025 0.800895 0.539322 -0.225939
C15   C     C_R   0.478754 0.912522 0.506596 0.317308
C16   C     C_R   0.689782 0.491589 0.507311 0.806166
C17   C     C_R   0.487321 0.765852 0.509332 -0.007993
C18   C     C_R   0.426787 0.804660 0.479754 -0.183244
C19   C     C_R   0.422436 0.877377 0.479130 -0.188901
C20   C     C_R   0.233472 0.514925 0.493800 -0.063928
C21   C     C_R   0.200409 0.454128 0.504721 -0.266875
C22   C     C_R   0.128201 0.457468 0.508498 -0.155600
C23   C     C_R   0.457254 0.571247 0.128164 -0.171775
C24   C     C_R   0.087382 0.522280 0.501749 0.271105
C25   C     C_R   0.120338 0.582983 0.491370 -0.214667
C26   C     C_R   0.192828 0.580053 0.487092 0.252962
C27   C     C_R   0.877092 0.536229 0.537289 -0.156865
C28   C     C_R   0.310206 0.508990 0.493528 0.828077
C29   C     C_R   0.804319 0.540012 0.538798 -0.222334
C30   C     C_R   0.913072 0.478355 0.507007 0.316786
C31   C     C_R   0.766642 0.486599 0.509632 -0.008135
C32   C     C_R   0.802859 0.428363 0.480993 -0.177909
C33   C     C_R   0.875527 0.424113 0.480434 -0.186874
C34   C     C_R   0.458202 0.569693 0.199727 -0.185570
C35   C     C_R   0.509155 0.490813 0.687991 0.844787
C36   C     C_R   0.491422 0.508121 0.311622 0.786637
C37   C     C_R   0.487186 0.509787 0.236539 -0.001080
C38   C     C_R   0.512730 0.450761 0.201173 -0.196953
C39   C     C_R   0.510757 0.451858 0.129887 -0.143414
C40   C     C_R   0.518753 0.543885 0.872495 -0.144404
C41   C     C_R   0.514667 0.547056 0.801067 -0.245609
C42   C     C_R   0.521587 0.419934 0.796519 0.258592
C43   C     C_R   0.526857 0.417164 0.868195 -0.190223
C44   C     C_R   0.523941 0.478861 0.906224 0.139521
H1    H     H_    0.533737 0.403381 0.228644 0.166864
H2    H     H_    0.777452 0.585238 0.561433 0.166977
H3    H     H_    0.510329 0.597667 0.775605 0.164897
H4    H     H_    0.905002 0.578355 0.559638 0.156269
H5    H     H_    0.089319 0.633010 0.487017 0.176606
H6    H     H_    0.775000 0.386028 0.458936 0.195357
H7    H     H_    0.104721 0.409410 0.517462 0.164309
H8    H     H_    0.902669 0.379003 0.457860 0.154273
H9    H     H_    0.230630 0.403722 0.510446 0.174834
H10   H     H_    0.561136 0.431966 0.005871 0.152602
H11   H     H_    0.436077 0.618440 0.100472 0.135073
H12   H     H_    0.532045 0.366847 0.894291 0.165760
H13   H     H_    0.518389 0.592069 0.901299 0.145545
H14   H     H_    0.437793 0.615659 0.226281 0.163818
H15   H     H_    0.450873 0.558775 0.990736 0.154422
H16   H     H_    0.529129 0.404452 0.104712 0.132173
H17   H     H_    0.590068 0.771997 0.562692 0.167236
H18   H     H_    0.582944 0.899659 0.560806 0.157416
H19   H     H_    0.631966 0.090586 0.489105 0.176280
H20   H     H_    0.382721 0.778803 0.457025 0.195174
H21   H     H_    0.410539 0.103240 0.516706 0.163855
H22   H     H_    0.375512 0.906557 0.455841 0.153906
H23   H     H_    0.404294 0.229808 0.509522 0.173241
N1    N     N_2   0.529234 0.013174 0.506978 -0.184082
N2    N     N_2   0.472183 0.986521 0.502266 -0.194338
N3    N     N_2   0.013636 0.528889 0.506317 -0.185233
N4    N     N_2   0.986677 0.472176 0.502719 -0.193949
O1    O     O_3   0.500000 0.500000 0.500000 -0.500092
O2    O     O_R   0.546320 0.532340 0.658770 -0.644581
O3    O     O_R   0.450550 0.549430 0.344370 -0.642961
O4    O     O_R   0.467400 0.453980 0.652500 -0.600269
O5    O     O_R   0.535730 0.464240 0.344360 -0.644297
O6    O     O_R   0.656240 0.454400 0.463600 -0.627479
O7    O     O_R   0.340160 0.549180 0.454800 -0.599502
O8    O     O_R   0.536860 0.652450 0.548350 -0.648445
O9    O     O_R   0.466740 0.343960 0.533260 -0.628744
O10   O     O_R   0.451210 0.659450 0.463610 -0.629747
O11   O     O_R   0.545190 0.344140 0.454780 -0.606456
O12   O     O_R   0.656710 0.532590 0.548340 -0.643470
O13   O     O_R   0.346890 0.463830 0.533270 -0.648965
Zn1   Zn    Zn3+2 0.558280 0.441710 0.441700 1.010112
Zn2   Zn    Zn3+2 0.558950 0.553420 0.562770 0.985576
Zn3   Zn    Zn3+2 0.446190 0.441460 0.553820 1.018722
Zn4   Zn    Zn3+2 0.436580 0.563410 0.441710 1.004828

loop_
_geom_bond_atom_site_label_1
_geom_bond_atom_site_label_2
_ccdc_geom_bond_type
C4    O9    A    
C27   H4    S    
C16   C31   S    
C43   H12   S    
C32   H6    S    
C38   C39   A    
C32   C33   A    
C40   C41   A    
C16   O12   A    
C30   C33   A    
C35   O2    A    
C42   C43   A    
O4    Zn3   S    
O8    Zn2   S    
Br2   C26   S    
C20   C26   A    
C25   C26   A    
C34   C37   A    
C14   H17   S    
C2    C3    D    
C14   C17   A    
C31   C32   A    
N3    N4    D    
C5    C42   A    
O1    Zn3   S    
C29   C31   A    
C13   C14   A    
C20   C21   A    
O10   Zn4   S    
C6    C7    A    
C19   H22   S    
O1    Zn4   S    
O2    Zn2   S    
C10   C11   A    
C18   H20   S    
C3    H10   S    
C5    C35   S    
O5    Zn1   S    
C10   H19   S    
C15   N2    S    
C28   O13   A    
C3    C44   S    
C21   C22   A    
C36   C37   S    
C12   C23   A    
C35   O4    A    
Br3   C42   S    
C20   C28   S    
C6    C11   A    
O1    Zn1   S    
C1    O10   A    
C17   C18   A    
C22   H7    S    
O7    Zn4   S    
C23   H11   S    
C40   H13   S    
C7    H23   S    
C37   C38   A    
C9    N1    S    
C22   C24   A    
C36   O3    A    
C8    H21   S    
O11   Zn1   S    
C41   H3    S    
C4    C6    S    
O9    Zn3   S    
C43   C44   A    
O3    Zn4   S    
C27   C30   A    
C15   C19   A    
C5    C41   A    
C12   C39   A    
O12   Zn2   S    
C34   H14   S    
C8    C9    A    
C23   C34   A    
Br1   C11   S    
C21   H9    S    
C28   O7    A    
N1    N2    D    
O6    Zn1   S    
C33   H8    S    
C24   N3    S    
C27   C29   A    
C25   H5    S    
C4    O11   A    
C38   H1    S    
C2    H15   S    
C16   O6    A    
C29   H2    S    
C2    C12   S    
C7    C8    A    
O1    Zn2   S    
C1    C17   S    
C30   N4    S    
C1    O8    A    
C9    C10   A    
C13   C15   A    
O13   Zn3   S    
C24   C25   A    
C13   H18   S    
C18   C19   A    
C40   C44   A    
C39   H16   S    
C36   O5    A    
