data_mof_unit_15291.cif
_audit_creation_date              2012-12-11T14:56:05-0500
_audit_creation_method            fapswitch 2.2
_symmetry_space_group_name_H-M    P1
_symmetry_Int_Tables_number       1
_space_group_crystal_system       triclinic
_cell_length_a                    27.991791
_cell_length_b                    17.150136
_cell_length_c                    18.049939
_cell_angle_alpha                 90.101141
_cell_angle_beta                  137.805447
_cell_angle_gamma                 89.951156
_cell_volume                      5819.9109478

loop_
_atom_site_label
_atom_site_type_symbol
_atom_type_description
_atom_site_fract_x
_atom_site_fract_y
_atom_site_fract_z
_atom_type_partial_charge
C1    C     C_R   0.666624 0.922260 0.816518 -0.130798
C2    C     C_3   0.266762 0.705161 0.011446 -0.255874
C3    C     C_3   0.666720 0.739697 0.947062 0.649526
C4    C     C_3   0.209355 0.810744 0.913852 0.653029
C5    C     C_3   0.834453 0.241754 0.051486 0.649887
C6    C     C_3   0.791306 0.810641 0.087390 0.653481
C7    C     C_3   0.166758 0.239672 0.947010 0.649032
C8    C     C_3   0.249919 0.783850 0.029187 -0.349465
C9    C     C_3   0.789825 0.267907 0.932917 -0.362023
C10   C     C_3   0.751310 0.783251 0.972405 -0.350568
C11   C     C_3   0.207725 0.265466 0.064072 -0.365663
C12   C     C_3   0.751924 0.280285 0.033520 -0.347391
C13   C     C_3   0.223800 0.345700 0.044650 -0.346042
C14   C     C_3   0.292276 0.765011 0.935717 -0.365308
C15   C     C_3   0.251324 0.283299 0.972337 -0.350534
C16   C     C_3   0.707680 0.765540 0.064107 -0.366415
C17   C     C_3   0.318005 0.817875 0.072045 -0.020265
C18   C     C_3   0.724665 0.231478 0.896173 0.037683
C19   C     C_3   0.683011 0.817571 0.928518 -0.019933
C20   C     C_3   0.275433 0.232399 0.105891 0.036436
C21   C     C_3   0.817622 0.317998 0.072172 -0.020244
C22   C     C_3   0.224803 0.732251 0.894907 0.036560
C23   C     C_3   0.183030 0.317583 0.928502 -0.019937
C24   C     C_3   0.733994 0.704859 0.989753 -0.254858
C25   C     C_3   0.775391 0.732435 0.105969 0.036327
C26   C     C_3   0.640857 0.409937 0.884909 0.257940
C27   C     C_3   0.567592 0.447468 0.799167 -0.888823
C28   C     C_3   0.448183 0.735343 0.138036 0.237671
C29   C     C_3   0.521465 0.700050 0.234406 -0.906705
C30   C     C_3   0.356895 0.416350 0.122828 0.255981
C31   C     C_3   0.427401 0.458969 0.212471 -0.894965
C32   C     C_3   0.552188 0.735181 0.861584 0.237259
C33   C     C_3   0.478931 0.699779 0.764958 -0.905069
C34   C     C_3   0.144284 0.916837 0.878980 0.255756
C35   C     C_3   0.276651 0.845530 0.955546 -0.347349
C36   C     C_3   0.073641 0.959205 0.789920 -0.894373
C37   C     C_3   0.948007 0.244750 0.133229 0.238858
C38   C     C_3   0.022642 0.211952 0.228266 -0.901732
C39   C     C_3   0.856898 0.916314 0.122881 0.255702
C40   C     C_3   0.927397 0.958929 0.212568 -0.896692
C41   C     C_3   0.052239 0.235041 0.861568 0.236797
C42   C     C_3   0.978995 0.199623 0.764917 -0.906527
C43   C     C_3   0.769718 0.203545 0.013776 -0.260176
C44   C     C_3   0.723769 0.845739 0.044643 -0.346648
C45   C     C_3   0.234028 0.204872 0.989657 -0.255369
C46   C     C_R   0.715428 0.751467 0.621807 0.105258
C47   C     C_R   0.391191 0.145781 0.648795 0.091279
C48   C     C_R   0.284597 0.751424 0.378258 0.105125
C49   C     C_R   0.313062 0.102832 0.198477 -0.163692
C50   C     C_R   0.609655 0.145998 0.352434 0.110501
C51   C     C_R   0.215291 0.251656 0.620596 0.106028
C52   C     C_R   0.890567 0.646211 0.647944 0.110466
C53   C     C_R   0.784602 0.251418 0.378253 0.104555
C54   C     C_R   0.109642 0.646008 0.352420 0.110337
C55   C     C_R   0.395323 0.248915 0.745561 -0.267182
C56   C     C_R   0.740869 0.621238 0.604571 -0.275038
C57   C     C_R   0.605074 0.248475 0.254744 -0.284230
C58   C     C_R   0.259332 0.621259 0.395618 -0.274308
C59   C     C_R   0.895085 0.748785 0.745806 -0.284007
C60   C     C_R   0.334563 0.922965 0.183890 -0.129759
C61   C     C_R   0.241084 0.121292 0.604286 -0.274952
C62   C     C_R   0.105069 0.748493 0.254748 -0.283920
C63   C     C_R   0.759350 0.121255 0.395640 -0.274856
C64   C     C_R   0.428338 0.208509 0.725498 0.032259
C65   C     C_R   0.696954 0.671195 0.594434 0.033281
C66   C     C_R   0.572769 0.208655 0.276092 0.027342
C67   C     C_R   0.303079 0.671191 0.405429 0.033012
C68   C     C_R   0.927386 0.709032 0.724303 0.027354
C69   C     C_R   0.196890 0.171352 0.593349 0.033471
C70   C     C_R   0.072760 0.708671 0.276089 0.027438
C71   C     C_R   0.686736 0.102280 0.802600 -0.165590
C72   C     C_R   0.803092 0.171187 0.405438 0.033058
C73   C     C_R   0.335995 0.109897 0.624626 -0.296050
C74   C     C_R   0.785485 0.773753 0.685716 -0.309407
C75   C     C_R   0.664984 0.110205 0.376747 -0.301465
C76   C     C_R   0.214600 0.773644 0.314711 -0.309358
C77   C     C_R   0.835375 0.610239 0.623793 -0.301217
C78   C     C_R   0.285337 0.274034 0.684442 -0.308293
C79   C     C_R   0.164963 0.610208 0.376715 -0.301064
C80   C     C_R   0.714602 0.273630 0.314696 -0.309617
C81   C     C_R   0.303717 0.149692 0.645469 0.181660
C82   C     C_R   0.166591 0.422330 0.816506 -0.129900
C83   C     C_R   0.829255 0.723448 0.696351 0.187504
C84   C     C_R   0.696904 0.149681 0.355110 0.181112
C85   C     C_R   0.170924 0.723308 0.304176 0.187529
C86   C     C_R   0.803374 0.649727 0.645374 0.181354
C87   C     C_R   0.329361 0.223614 0.695773 0.180523
C88   C     C_R   0.196888 0.649687 0.355091 0.180972
C89   C     C_R   0.670932 0.223295 0.304175 0.187697
C90   C     C_R   0.362135 0.069974 0.495286 -0.129336
C91   C     C_R   0.674345 0.893635 0.596231 -0.152135
C92   C     C_R   0.638068 0.069994 0.505014 -0.133804
C93   C     C_R   0.813047 0.602863 0.198543 -0.163430
C94   C     C_R   0.325647 0.893580 0.403704 -0.154356
C95   C     C_R   0.861938 0.570120 0.494983 -0.133116
C96   C     C_R   0.174281 0.393706 0.595867 -0.151729
C97   C     C_R   0.138074 0.570014 0.505021 -0.133939
C98   C     C_R   0.825649 0.393582 0.403713 -0.153724
C99   C     C_R   0.409643 0.802425 0.496824 -0.153736
C100  C     C_R   0.557474 0.165993 0.421445 -0.130739
C101  C     C_R   0.590363 0.802389 0.503161 -0.152170
C102  C     C_R   0.442563 0.166173 0.578650 -0.135711
C103  C     C_R   0.909644 0.302425 0.496824 -0.153795
C104  C     C_R   0.834513 0.423081 0.183894 -0.129954
C105  C     C_R   0.057465 0.665994 0.421438 -0.130251
C106  C     C_R   0.090261 0.302471 0.502679 -0.152590
C107  C     C_R   0.942555 0.666146 0.578646 -0.128691
C108  C     C_R   0.603120 0.194007 0.713362 -0.124887
C109  C     C_R   0.418077 0.829701 0.275202 -0.127033
C110  C     C_R   0.396820 0.194348 0.287819 -0.121301
C111  C     C_R   0.582697 0.829585 0.725368 -0.127811
C112  C     C_R   0.103172 0.694256 0.712793 -0.121754
C113  C     C_R   0.918008 0.329816 0.275039 -0.127202
C114  C     C_R   0.896803 0.694368 0.287865 -0.122038
C115  C     C_R   0.186834 0.602626 0.802092 -0.163741
C116  C     C_R   0.082695 0.329606 0.725376 -0.127627
C117  C     C_R   0.640027 0.861224 0.827648 0.077385
C118  C     C_R   0.326635 0.178826 0.195248 0.092816
C119  C     C_R   0.361381 0.861847 0.172980 0.077721
C120  C     C_R   0.673089 0.177941 0.806793 0.092770
C121  C     C_R   0.140013 0.361270 0.827651 0.078402
C122  C     C_R   0.826604 0.678869 0.195340 0.092710
C123  C     C_R   0.861355 0.362158 0.172887 0.076398
C124  C     C_R   0.173267 0.678538 0.805720 0.092616
C125  C     C_R   0.399176 0.127107 0.578364 0.069512
C126  C     C_3   0.773065 0.346468 0.954509 -0.350984
C127  C     C_R   0.661856 0.813565 0.572919 0.084144
C128  C     C_R   0.601174 0.127108 0.422150 0.068407
C129  C     C_R   0.338145 0.813556 0.427036 0.084399
C130  C     C_R   0.898899 0.627312 0.577986 0.068347
C131  C     C_R   0.161730 0.313687 0.572133 0.083529
C132  C     C_R   0.101169 0.627120 0.422145 0.068420
C133  C     C_R   0.838147 0.313555 0.427037 0.084035
C134  C     C_3   0.708202 0.308020 0.917015 0.651413
C135  C     C_3   0.333800 0.739688 0.053112 0.649128
C136  C     C_3   0.291334 0.310640 0.087349 0.652933
H1    H     H_    0.714525 0.955172 0.881988 0.082142
H2    H     H_    0.223802 0.062065 0.573307 0.131019
H3    H     H_    0.048502 0.299032 0.847400 0.096847
H4    H     H_    0.067738 0.224304 0.937941 0.100551
H5    H     H_    0.980633 0.135798 0.776997 0.255626
H6    H     H_    0.939994 0.226627 0.758552 0.215270
H7    H     H_    0.961440 0.210181 0.686944 0.250939
H8    H     H_    0.603315 0.614014 0.478346 0.109465
H9    H     H_    0.649526 0.595573 0.609825 0.115022
H10   H     H_    0.516909 0.278379 0.834259 0.113483
H11   H     H_    0.532160 0.185280 0.828690 0.116075
H12   H     H_    0.396706 0.614052 0.520826 0.109441
H13   H     H_    0.081206 0.801625 0.206425 0.128289
H14   H     H_    0.350085 0.595548 0.389082 0.115306
H15   H     H_    0.506513 0.291800 0.238834 0.113504
H16   H     H_    0.468590 0.227449 0.136448 0.118268
H17   H     H_    0.103161 0.114532 0.476238 0.109861
H18   H     H_    0.148774 0.095605 0.607353 0.114778
H19   H     H_    0.993351 0.792405 0.761246 0.113605
H20   H     H_    0.031550 0.728337 0.863769 0.118755
H21   H     H_    0.896724 0.114052 0.520841 0.109565
H22   H     H_    0.850101 0.095543 0.389097 0.114380
H23   H     H_    0.006511 0.791818 0.238846 0.113556
H24   H     H_    0.776779 0.062145 0.426765 0.131505
H25   H     H_    0.968583 0.727476 0.136448 0.118445
H26   H     H_    0.418495 0.302489 0.793153 0.124591
H27   H     H_    0.723481 0.562079 0.573337 0.131330
H28   H     H_    0.581206 0.301602 0.206409 0.128203
H29   H     H_    0.276755 0.562145 0.426730 0.132200
H30   H     H_    0.323875 0.028950 0.472683 0.101100
H31   H     H_    0.725834 0.921147 0.660084 0.089169
H32   H     H_    0.676427 0.029047 0.527745 0.101857
H33   H     H_    0.261377 0.075707 0.144646 0.101934
H34   H     H_    0.274147 0.920977 0.339839 0.089559
H35   H     H_    0.823556 0.529190 0.472168 0.101725
H36   H     H_    0.225785 0.421191 0.659697 0.088988
H37   H     H_    0.176456 0.529100 0.527773 0.101995
H38   H     H_    0.774147 0.420976 0.339845 0.089179
H39   H     H_    0.438051 0.748625 0.522850 0.113204
H40   H     H_    0.523328 0.214848 0.372150 0.122073
H41   H     H_    0.561970 0.748574 0.477213 0.113434
H42   H     H_    0.476508 0.215329 0.627781 0.131066
H43   H     H_    0.938053 0.248626 0.522848 0.113007
H44   H     H_    0.287019 0.956201 0.118279 0.082546
H45   H     H_    0.023304 0.714838 0.372128 0.122105
H46   H     H_    0.061794 0.248677 0.476406 0.113985
H47   H     H_    0.976752 0.715039 0.628055 0.122544
H48   H     H_    0.578400 0.250805 0.683339 0.151277
H49   H     H_    0.447556 0.777723 0.295374 0.144971
H50   H     H_    0.422215 0.250828 0.317879 0.150496
H51   H     H_    0.552634 0.778206 0.705112 0.145124
H52   H     H_    0.078230 0.750931 0.682581 0.150037
H53   H     H_    0.947292 0.277707 0.294856 0.143620
H54   H     H_    0.922208 0.750842 0.317941 0.150550
H55   H     H_    0.738439 0.075288 0.856343 0.102514
H56   H     H_    0.052646 0.278216 0.705129 0.145136
H57   H     H_    0.232661 0.791592 0.067780 0.147190
H58   H     H_    0.803363 0.260834 0.888992 0.143082
H59   H     H_    0.769058 0.790557 0.934507 0.147111
H60   H     H_    0.192095 0.256391 0.104760 0.142875
H61   H     H_    0.736649 0.285533 0.075231 0.147501
H62   H     H_    0.307438 0.755478 0.894395 0.142603
H63   H     H_    0.269053 0.290655 0.934419 0.146981
H64   H     H_    0.692039 0.756517 0.104787 0.142547
H65   H     H_    0.775703 0.405712 0.933045 0.147349
H66   H     H_    0.214436 0.455346 0.881931 0.082285
H67   H     H_    0.262754 0.646917 0.033350 0.142150
H68   H     H_    0.218382 0.404074 0.064453 0.147688
H69   H     H_    0.738116 0.646407 0.968235 0.142180
H70   H     H_    0.281965 0.903699 0.935367 0.147546
H71   H     H_    0.768324 0.144285 0.036876 0.140903
H72   H     H_    0.718351 0.904136 0.064402 0.146937
H73   H     H_    0.238140 0.146434 0.968092 0.141974
H74   H     H_    0.803674 0.832719 0.716198 0.124612
H75   H     H_    0.311498 0.056859 0.576379 0.126984
H76   H     H_    0.196392 0.832573 0.284381 0.124646
H77   H     H_    0.761363 0.575745 0.144748 0.101902
H78   H     H_    0.689664 0.057397 0.425240 0.127244
H79   H     H_    0.303413 0.333070 0.714611 0.124413
H80   H     H_    0.810788 0.557299 0.575336 0.127153
H81   H     H_    0.696389 0.332557 0.284350 0.124631
H82   H     H_    0.189633 0.557391 0.425188 0.127470
H83   H     H_    0.679427 0.452424 0.905562 0.092022
H84   H     H_    0.654919 0.397738 0.959798 0.084955
H85   H     H_    0.527514 0.407311 0.777282 0.246995
H86   H     H_    0.568286 0.502377 0.832692 0.227477
H87   H     H_    0.552337 0.461167 0.723659 0.257871
H88   H     H_    0.786890 0.456243 0.118335 0.083080
H89   H     H_    0.451927 0.799307 0.152599 0.096862
H90   H     H_    0.432575 0.724777 0.061501 0.100022
H91   H     H_    0.519851 0.636250 0.221975 0.255476
H92   H     H_    0.560396 0.727250 0.240791 0.215087
H93   H     H_    0.539094 0.710483 0.312505 0.251258
H94   H     H_    0.314224 0.455781 0.094460 0.091090
H95   H     H_    0.348334 0.404196 0.053075 0.086935
H96   H     H_    0.471542 0.422456 0.241674 0.241674
H97   H     H_    0.425961 0.514524 0.179299 0.236009
H98   H     H_    0.437250 0.472275 0.283153 0.258082
H99   H     H_    0.238528 0.575609 0.855824 0.102034
H100  H     H_    0.548474 0.799160 0.847356 0.095816
H101  H     H_    0.567675 0.724526 0.937959 0.099804
H102  H     H_    0.480537 0.635972 0.777110 0.255746
H103  H     H_    0.439935 0.726873 0.758546 0.214647
H104  H     H_    0.461390 0.710243 0.686981 0.250707
H105  H     H_    0.186637 0.956127 0.906079 0.091018
H106  H     H_    0.153661 0.905390 0.949621 0.086939
H107  H     H_    0.029836 0.922896 0.762106 0.241506
H108  H     H_    0.075508 0.015169 0.823088 0.236355
H109  H     H_    0.062929 0.971716 0.718299 0.258083
H110  H     H_    0.918880 0.802026 0.794146 0.128195
H111  H     H_    0.949759 0.308132 0.148787 0.096919
H112  H     H_    0.931799 0.236988 0.055787 0.099848
H113  H     H_    0.023132 0.148908 0.214641 0.255439
H114  H     H_    0.060075 0.243168 0.234095 0.214182
H115  H     H_    0.040652 0.219463 0.307110 0.252085
H116  H     H_    0.814213 0.955756 0.094448 0.089698
H117  H     H_    0.848383 0.904133 0.053179 0.087477
H118  H     H_    0.971553 0.922406 0.241831 0.242728
H119  H     H_    0.925983 0.014479 0.179416 0.234768
H120  H     H_    0.937200 0.972240 0.283205 0.257494
N1    N     N_R   0.625380 0.928280 0.709340 -0.038302
N2    N     N_R   0.613900 0.929750 0.547530 -0.037253
N3    N     N_R   0.613900 0.070250 0.547530 -0.039697
N4    N     N_R   0.386100 0.929750 0.452470 -0.037966
N5    N     N_R   0.886100 0.570250 0.452470 -0.039587
N6    N     N_R   0.113900 0.429750 0.547530 -0.037240
N7    N     N_R   0.113900 0.570250 0.547530 -0.039941
N8    N     N_R   0.886100 0.429750 0.452470 -0.037474
N9    N     N_R   0.437800 0.869550 0.507970 -0.041906
N10   N     N_R   0.562200 0.130450 0.492030 -0.046208
N11   N     N_R   0.562200 0.869550 0.492030 -0.041639
N12   N     N_R   0.374620 0.071720 0.290660 -0.036329
N13   N     N_R   0.437800 0.130450 0.507970 -0.045806
N14   N     N_R   0.937800 0.369550 0.507970 -0.041679
N15   N     N_R   0.062200 0.630450 0.492030 -0.046380
N16   N     N_R   0.062200 0.369550 0.492030 -0.041446
N17   N     N_R   0.937800 0.630450 0.507970 -0.046261
N18   N     N_R   0.573690 0.128980 0.653840 -0.050094
N19   N     N_R   0.426310 0.871020 0.346160 -0.045521
N20   N     N_R   0.426310 0.128980 0.346160 -0.048975
N21   N     N_R   0.573690 0.871020 0.653840 -0.045574
N22   N     N_R   0.073690 0.628980 0.653840 -0.049227
N23   N     N_R   0.374620 0.928280 0.290660 -0.038867
N24   N     N_R   0.926310 0.371020 0.346160 -0.045582
N25   N     N_R   0.926310 0.628980 0.346160 -0.049065
N26   N     N_R   0.073690 0.371020 0.653840 -0.045650
N27   N     N_3   0.634202 0.639580 0.555522 -0.228986
N28   N     N_3   0.497613 0.232078 0.780108 -0.211609
N29   N     N_3   0.365637 0.639586 0.443683 -0.229050
N30   N     N_3   0.503824 0.232775 0.221471 -0.214616
N31   N     N_3   0.133841 0.139790 0.553516 -0.229174
N32   N     N_3   0.996224 0.733421 0.778717 -0.214365
N33   N     N_3   0.865651 0.139583 0.443693 -0.229377
N34   N     N_R   0.625380 0.071720 0.709340 -0.036567
N35   N     N_3   0.003818 0.732795 0.221472 -0.214610
N36   N     N_R   0.125380 0.428280 0.709340 -0.038522
N37   N     N_R   0.874620 0.571720 0.290660 -0.036330
N38   N     N_R   0.874620 0.428280 0.290660 -0.039053
N39   N     N_R   0.125380 0.571720 0.709340 -0.036452
N40   N     N_R   0.386100 0.070250 0.452470 -0.039709
Ni1   Ni    Ni4+2 0.616560 0.000000 0.627280 0.211363
Ni2   Ni    Ni4+2 0.383440 1.000000 0.372720 0.211282
Ni3   Ni    Ni4+2 0.116560 0.500000 0.627280 0.211651
Ni4   Ni    Ni4+2 0.883440 0.500000 0.372720 0.211216
Ni5   Ni    Ni4+2 0.497990 0.870580 0.500000 0.213032
Ni6   Ni    Ni4+2 0.502010 0.129420 0.500000 0.213037
Ni7   Ni    Ni4+2 0.997990 0.370580 0.500000 0.212920
Ni8   Ni    Ni4+2 0.002010 0.629420 0.500000 0.213557
O1    O     O_3   0.639228 0.340271 0.841397 -0.657531
O2    O     O_3   0.399231 0.699415 0.130145 -0.653785
O3    O     O_3   0.359136 0.346084 0.165929 -0.658819
O4    O     O_3   0.601239 0.699430 0.869499 -0.651719
O5    O     O_3   0.141560 0.846112 0.835840 -0.658566
O6    O     O_3   0.901115 0.203994 0.126429 -0.653482
O7    O     O_3   0.859113 0.846066 0.165977 -0.658674
O8    O     O_3   0.101292 0.199381 0.869433 -0.653839

loop_
_geom_bond_atom_site_label_1
_geom_bond_atom_site_label_2
_ccdc_geom_bond_type
N9    Ni5   S    
C114  H54   S    
C108  C120  A    
C74   C83   A    
C102  C125  A    
C110  C118  A    
C20   C118  S    
C104  C123  A    
N23   Ni2   S    
C91   C127  A    
C112  C124  A    
C134  O1    S    
N13   Ni6   S    
H16   N30   S    
C38   H113  S    
C24   H69   S    
C62   C70   A    
C58   H29   S    
C2    C22   S    
C3    C19   S    
H14   N29   S    
C16   C44   S    
C20   C45   S    
C40   H118  S    
C5    C43   S    
C6    C44   S    
N34   Ni1   S    
N18   Ni6   S    
C73   C81   A    
C31   H98   S    
C11   C20   S    
C97   H37   S    
C116  C121  A    
C99   C129  A    
C103  N14   A    
C53   C133  S    
C46   C65   A    
C47   C64   A    
C82   H66   S    
C51   C131  S    
N39   Ni3   S    
C109  H49   S    
C21   C123  S    
C37   C38   S    
C4    O5    S    
C92   H32   S    
C56   C86   A    
C54   C70   A    
C6    O7    S    
C8    H57   S    
N26   N36   A    
C48   C129  S    
N11   Ni5   S    
C52   C77   A    
C39   C40   S    
C19   C44   S    
C54   C79   A    
C32   H100  S    
C16   C25   S    
C96   N6    A    
C36   H107  S    
C28   O2    S    
C39   O7    S    
C58   C88   A    
N14   Ni7   S    
C39   H117  S    
C54   C132  S    
C27   H87   S    
C8    C17   S    
C37   H111  S    
C63   C84   A    
C51   C78   A    
C91   N2    A    
C94   H34   S    
H11   N28   S    
C11   C13   S    
C100  N10   A    
C7    O8    S    
C59   H110  S    
C48   C67   A    
C107  N17   A    
C112  N22   A    
C97   N7    A    
C40   H120  S    
C98   N8    A    
C58   C67   A    
C95   N5    A    
C83   C86   A    
C5    C21   S    
C126  C134  S    
C42   H7    S    
N36   Ni3   S    
C51   C69   A    
C21   C126  S    
C50   C75   A    
C76   C85   A    
C77   H80   S    
C78   C87   A    
N1    N21   A    
C102  N13   A    
C48   C76   A    
C57   C66   A    
N38   Ni4   S    
C111  N21   A    
C91   H31   S    
C75   C84   A    
C14   C135  S    
C13   C23   S    
C60   C119  A    
C41   H4    S    
N12   Ni2   S    
C33   H102  S    
N25   N37   A    
C94   N4    A    
C39   H116  S    
C49   C118  A    
C60   N23   A    
N10   Ni6   S    
C95   C130  A    
N24   N38   A    
C16   H64   S    
C76   H76   S    
N7    N15   A    
C12   C134  S    
C34   H105  S    
C36   H109  S    
C3    C24   S    
H8    N27   S    
C27   H85   S    
C115  N39   A    
C46   C127  S    
C66   N30   S    
C53   C80   A    
C80   H81   S    
C15   C136  S    
C10   C24   S    
C45   H73   S    
C30   H95   S    
C5    C9    S    
C4    C22   S    
C64   N28   S    
C35   H70   S    
N12   N20   A    
C42   H5    S    
C93   N37   A    
C1    C117  A    
C20   C136  S    
N18   N34   A    
C113  N24   A    
C96   C131  A    
C102  H42   S    
H9    N27   S    
C92   N3    A    
C1    H1    S    
C85   C88   A    
C110  H50   S    
N8    N14   A    
C26   H83   S    
C100  C128  A    
N24   Ni7   S    
C73   H75   S    
C2    H67   S    
N8    Ni4   S    
C28   H89   S    
C2    C135  S    
C111  C117  A    
C14   C22   S    
N37   Ni4   S    
C29   H93   S    
C33   H104  S    
C61   C81   A    
C38   H114  S    
C7    C23   S    
C101  C127  A    
C18   C134  S    
C34   C36   S    
C116  H56   S    
N6    N16   A    
C9    C18   S    
C99   H39   S    
C29   H91   S    
C29   H92   S    
C71   H55   S    
H19   N32   S    
C104  H88   S    
C3    C16   S    
C135  O2    S    
C41   C42   S    
C116  N26   A    
N17   Ni8   S    
C46   C74   A    
C115  H99   S    
H10   N28   S    
C23   C121  S    
C31   H97   S    
C98   C133  A    
C26   C27   S    
C57   C89   A    
C37   O6    S    
C28   C29   S    
H25   N35   S    
C59   C83   A    
C108  N18   A    
C30   C31   S    
C49   N12   A    
N2    Ni1   S    
C104  N38   A    
C6    C25   S    
C80   C89   A    
N3    Ni1   S    
C100  H40   S    
C3    O4    S    
C71   N34   A    
N7    Ni3   S    
C1    N1    A    
N40   Ni2   S    
C4    C35   S    
C90   H30   S    
N15   Ni8   S    
C107  C130  A    
C79   C88   A    
C47   C125  S    
C105  C132  A    
N21   Ni5   S    
C126  H65   S    
C106  C131  A    
C43   H71   S    
C36   H108  S    
C11   H60   S    
C47   C73   A    
C108  H48   S    
C9    H58   S    
C93   H77   S    
C32   C33   S    
C78   H79   S    
N19   N23   A    
C30   O3    S    
C114  N25   A    
C113  C123  A    
C10   C19   S    
C31   H96   S    
C93   C122  A    
N25   Ni8   S    
C81   C87   A    
C82   N36   A    
N26   Ni7   S    
C34   O5    S    
N1    Ni1   S    
C69   N31   S    
H12   N29   S    
C50   C128  S    
C109  C119  A    
C32   O4    S    
C115  C124  A    
C2    C8    S    
C97   C132  A    
C6    C10   S    
C60   H44   S    
C113  H53   S    
C111  H51   S    
C13   H68   S    
C70   N35   S    
C52   C130  S    
C18   C43   S    
C49   H33   S    
N4    Ni2   S    
N22   N39   A    
C90   C125  A    
C103  H43   S    
C61   H2    S    
H23   N35   S    
C41   H3    S    
C101  H41   S    
C17   C119  S    
C63   C72   A    
C19   C117  S    
C32   H101  S    
N3    N10   A    
C17   C35   S    
H22   N33   S    
N4    N9    A    
C53   C72   A    
C95   H35   S    
N20   Ni6   S    
C105  N15   A    
N22   Ni8   S    
C41   O8    S    
C106  N16   A    
C62   H13   S    
C34   H106  S    
C4    C8    S    
C7    C11   S    
C14   H62   S    
C56   H27   S    
C37   H112  S    
C71   C120  A    
C74   H74   S    
C7    C45   S    
C12   C43   S    
C98   H38   S    
N5    N17   A    
C56   C65   A    
C44   H72   S    
C106  H46   S    
N13   N40   A    
C68   N32   S    
C40   H119  S    
C42   H6    S    
C12   H61   S    
C25   C122  S    
C82   C121  A    
C52   C68   A    
C15   C23   S    
C101  N11   A    
C55   C87   A    
C63   H24   S    
N2    N11   A    
C92   C128  A    
N16   Ni7   S    
C62   C85   A    
C94   C129  A    
C26   H84   S    
H21   N33   S    
C24   C25   S    
C28   H90   S    
C14   C35   S    
C79   H82   S    
C90   N40   A    
C12   C21   S    
C107  H47   S    
C72   N33   S    
C17   C135  S    
C33   H103  S    
C59   C68   A    
C15   H63   S    
C38   H115  S    
C55   C64   A    
H18   N31   S    
C65   N27   S    
C50   C66   A    
C109  N19   A    
C110  N20   A    
N5    Ni4   S    
C77   C86   A    
N6    Ni3   S    
C13   C136  S    
C84   C89   A    
C15   C45   S    
H15   N30   S    
C18   C120  S    
H20   N32   S    
C61   C69   A    
C99   N9    A    
C27   H86   S    
C55   H26   S    
C112  H52   S    
N19   Ni5   S    
C22   C124  S    
C75   H78   S    
C9    C126  S    
C105  H45   S    
C30   H94   S    
C103  C133  A    
C67   N29   S    
C10   H59   S    
C136  O3    S    
C57   H28   S    
H17   N31   S    
C114  C122  A    
C5    O6    S    
C96   H36   S    
C26   O1    S    
