data_mof_unit_35598.cif
_audit_creation_date              2012-12-10T18:09:55-0500
_audit_creation_method            fapswitch 2.2
_symmetry_space_group_name_H-M    P1
_symmetry_Int_Tables_number       1
_space_group_crystal_system       triclinic
_cell_length_a                    10.767571
_cell_length_b                    12.542399
_cell_length_c                    13.150256
_cell_angle_alpha                 81.848056
_cell_angle_beta                  89.802016
_cell_angle_gamma                 102.291396
_cell_volume                      1716.67499725

loop_
_atom_site_label
_atom_site_type_symbol
_atom_type_description
_atom_site_fract_x
_atom_site_fract_y
_atom_site_fract_z
_atom_type_partial_charge
C1    C     C_R   0.486044 0.437870 0.691746 0.912335
C2    C     C_R   0.551060 0.467036 0.962881 0.094427
C3    C     C_R   0.479858 0.469032 0.873290 -0.065358
C4    C     C_R   0.741423 0.500665 0.499833 0.878314
C5    C     C_R   0.544223 0.545579 0.029512 -0.011028
C6    C     C_R   0.497910 0.642011 0.991981 -0.107847
C7    C     C_R   0.431793 0.644214 0.899339 0.327812
C8    C     C_R   0.403123 0.547832 0.853359 -0.076755
C9    C     C_R   0.572311 0.526773 0.134115 0.370565
C10   C     C_R   0.546946 0.710512 0.154703 0.348512
C11   C     C_R   0.494292 0.398052 0.801602 -0.070730
C12   C     C_3   0.120551 0.501890 0.502046 -0.168514
C13   C     C_R   0.348457 0.098738 0.329176 0.362220
C14   C     C_R   0.640160 0.795794 0.636386 -0.014478
C15   C     C_R   0.668673 0.899950 0.666776 -0.069677
C16   C     C_R   0.524492 0.562114 0.308602 0.964971
C17   C     C_R   0.619370 0.984537 0.611453 -0.153980
C18   C     C_R   0.541180 0.964469 0.526824 0.022915
C19   C     C_R   0.517100 0.857437 0.499391 0.256057
C20   C     C_R   0.483128 0.045004 0.470393 -0.038917
C21   C     C_R   0.407172 0.018723 0.384760 0.039723
C22   C     C_R   0.386792 0.912160 0.359971 -0.209933
C23   C     C_3   0.074743 0.521872 0.389021 -0.272535
C24   C     C_R   0.439727 0.833308 0.417185 -0.135303
C25   C     C_R   0.495017 0.150604 0.497122 -0.037024
C26   C     C_R   0.360547 0.199501 0.363676 0.070508
C27   C     C_R   0.257701 0.499755 0.501985 0.908428
C28   C     C_3   0.899339 0.398262 0.575608 -0.333559
C29   C     C_3   0.041485 0.390681 0.564520 -0.190279
C30   C     C_3   0.927576 0.495443 0.391306 0.173146
C31   C     C_3   0.952229 0.609103 0.542447 -0.242228
C32   C     C_3   0.877659 0.502182 0.501840 -0.032275
C33   C     C_2   0.179574 0.711032 0.538928 0.499832
C34   C     C_3   0.091094 0.598118 0.560118 -0.279466
C35   C     C_2   0.496868 0.841870 0.011298 0.601565
C36   C     C_2   0.854445 0.397933 0.685674 0.446573
C37   C     C_2   0.283396 0.524638 0.796505 0.456858
C38   C     C_2   0.748448 0.918384 0.756633 0.511229
C39   C     C_2   0.048817 0.286462 0.520810 0.466784
C40   C     C_2   0.128001 0.462002 0.312558 0.391187
C41   C     C_2   0.940616 0.715603 0.473648 0.525598
C42   C     C_R   0.514720 0.729875 0.051706 -0.034762
C43   C     C_R   0.553587 0.602604 0.198541 -0.274884
C44   C     C_R   0.553109 0.308464 0.830099 0.426570
C45   C     C_R   0.621725 0.305719 0.920056 -0.228361
C46   C     C_R   0.628561 0.388546 0.980832 -0.120665
H1    H     H_    0.837529 0.323441 0.551636 0.141999
H2    H     H_    0.411656 0.751970 0.398752 0.212570
H3    H     H_    0.083791 0.381564 0.641126 0.265691
H4    H     H_    0.890880 0.409664 0.374741 0.101847
H5    H     H_    0.910180 0.613139 0.619115 0.169405
H6    H     H_    0.097298 0.570407 0.643645 0.202815
H7    H     H_    0.193345 0.754391 0.461237 0.034688
H8    H     H_    0.900776 0.547555 0.248461 0.347948
H9    H     H_    0.633029 0.789506 0.258372 0.366194
H10   H     H_    0.380460 0.738607 0.785026 0.357798
H11   H     H_    0.404342 0.855042 0.987571 0.115941
H12   H     H_    0.108731 0.611315 0.360302 0.187394
H13   H     H_    0.664405 0.442660 0.228632 0.343000
H14   H     H_    0.601836 0.176629 0.795334 0.361982
H15   H     H_    0.759043 0.408623 0.699588 0.047489
H16   H     H_    0.230938 0.588544 0.775435 0.107800
H17   H     H_    0.319433 0.036527 0.202526 0.348844
H18   H     H_    0.784040 0.850728 0.798617 0.056681
H19   H     H_    0.997894 0.266488 0.452774 0.027871
H20   H     H_    0.100428 0.373415 0.316552 0.073337
H21   H     H_    0.975626 0.732842 0.394437 0.108731
H22   H     H_    0.699437 0.391703 0.038651 0.210188
H23   H     H_    0.677930 0.244022 0.939128 0.199079
H24   H     H_    0.316999 0.262527 0.322906 0.168978
H25   H     H_    0.324027 0.885931 0.299994 0.167560
H26   H     H_    0.552536 0.179451 0.558459 0.168026
H27   H     H_    0.676698 0.728786 0.677926 0.133479
H28   H     H_    0.643436 0.064355 0.636266 0.177119
N1    N     N_R   0.433240 0.222190 0.444680 -0.142919
N2    N     N_R   0.566070 0.776970 0.554790 -0.125252
O1    O     O_R   0.468120 0.366740 0.627160 -0.533799
O2    O     O_3   0.882644 0.568301 0.316206 -0.808142
O3    O     O_3   0.562029 0.796185 0.211829 -0.734834
O4    O     O_3   0.384370 0.735041 0.860713 -0.796445
O5    O     O_2   0.585719 0.921279 0.007734 -0.524006
O6    O     O_3   0.599944 0.427542 0.175798 -0.757171
O7    O     O_3   0.554601 0.232178 0.764113 -0.756720
O8    O     O_2   0.921926 0.386095 0.759037 -0.524473
O9    O     O_2   0.236954 0.431579 0.779460 -0.561440
O10   O     O_3   0.279762 0.082624 0.242236 -0.737517
O11   O     O_2   0.775222 0.008827 0.785063 -0.519076
O12   O     O_R   0.510770 0.544830 0.662520 -0.663430
O13   O     O_2   0.106951 0.220775 0.564778 -0.493163
O14   O     O_2   0.202658 0.513808 0.243837 -0.562178
O15   O     O_2   0.895404 0.784857 0.508384 -0.562411
O16   O     O_R   0.663880 0.410950 0.482330 -0.650900
O17   O     O_R   0.706530 0.589040 0.517700 -0.601223
O18   O     O_R   0.489230 0.455170 0.337480 -0.577825
O19   O     O_R   0.531880 0.633260 0.372840 -0.639097
O20   O     O_R   0.293470 0.410960 0.482300 -0.592014
O21   O     O_R   0.336120 0.589050 0.517670 -0.642860
O22   O     O_2   0.233205 0.754646 0.608898 -0.574957
Zn1   Zn    Zn3+2 0.471520 0.381090 0.476390 1.024296
Zn2   Zn    Zn3+2 0.528480 0.618910 0.523610 0.965530

loop_
_geom_bond_atom_site_label_1
_geom_bond_atom_site_label_2
_ccdc_geom_bond_type
C23   H12   S    
C28   H1    S    
C12   C29   S    
C10   C42   A    
C1    O1    A    
C1    C11   S    
H13   O6    S    
C44   O7    S    
C37   H16   S    
C35   O5    D    
C7    C8    A    
C41   H21   S    
C29   H3    S    
C45   C46   A    
C2    C46   A    
C46   H22   S    
C12   C23   S    
C37   O9    D    
C28   C29   S    
C33   O22   D    
C5    C6    A    
H14   O7    S    
C20   C25   A    
C23   C40   S    
O20   Zn1   S    
C17   C18   A    
C18   C19   A    
C35   C42   S    
C27   O21   A    
C13   O10   S    
O1    Zn1   S    
C9    O6    S    
C4    O16   A    
C1    O12   A    
C30   H4    S    
C40   H20   S    
C21   C22   A    
C39   H19   S    
C27   O20   A    
C33   C34   S    
C38   H18   S    
C33   H7    S    
C9    C43   A    
C12   C27   S    
C45   H23   S    
C24   H2    S    
C14   H27   S    
C28   C32   S    
C3    C8    A    
O19   Zn2   S    
C25   N1    A    
C14   N2    A    
C23   C30   S    
C15   C38   S    
C5    C9    A    
H9    O3    S    
C31   C32   S    
O17   Zn2   S    
C29   C39   S    
N1    Zn1   S    
C26   N1    A    
C31   C34   S    
C13   C21   A    
C11   C44   A    
C25   H26   S    
C4    C32   S    
C16   C43   S    
O12   Zn2   S    
C41   O15   D    
H17   O10   S    
C17   H28   S    
C26   H24   S    
C22   C24   A    
C13   C26   A    
C2    C5    A    
C8    C37   S    
C12   C34   S    
C36   H15   S    
C22   H25   S    
O21   Zn2   S    
C44   C45   A    
C15   C17   A    
C19   N2    A    
C16   O19   A    
C31   C41   S    
C10   C43   A    
C34   H6    S    
C31   H5    S    
C10   O3    S    
C6    C7    A    
N2    Zn2   S    
C16   O18   A    
H10   O4    S    
C38   O11   D    
C35   H11   S    
C19   C24   A    
C30   C32   S    
O18   Zn1   S    
C36   O8    D    
C2    C3    A    
C18   C20   A    
C3    C11   A    
C4    O17   A    
C30   O2    S    
C20   C21   A    
C28   C36   S    
C6    C42   A    
C14   C15   A    
C40   O14   D    
C39   O13   D    
O16   Zn1   S    
C7    O4    S    
H8    O2    S    
