data_mof_unit_63726.cif
_audit_creation_date              2012-12-10T19:00:46-0500
_audit_creation_method            fapswitch 2.2
_symmetry_space_group_name_H-M    P1
_symmetry_Int_Tables_number       1
_space_group_crystal_system       triclinic
_cell_length_a                    13.386666
_cell_length_b                    14.261576
_cell_length_c                    13.738688
_cell_angle_alpha                 89.999973
_cell_angle_beta                  83.332381
_cell_angle_gamma                 90.0
_cell_volume                      2605.18067999

loop_
_atom_site_label
_atom_site_type_symbol
_atom_type_description
_atom_site_fract_x
_atom_site_fract_y
_atom_site_fract_z
_atom_type_partial_charge
C1    C     C_R   0.500000 0.673435 0.500000 0.925197
C2    C     C_2   0.456745 0.500012 0.980977 -0.157048
C3    C     C_1   0.460228 0.500008 0.878047 0.014242
C4    C     C_1   0.539772 0.499999 0.121953 0.014243
C5    C     C_1   0.500000 0.774092 0.500000 -0.222441
C6    C     C_1   0.500000 0.225908 0.500000 -0.222440
C7    C     C_1   0.500000 0.858657 0.500000 -0.003425
C8    C     C_1   0.500000 0.141342 0.500000 -0.003425
C9    C     C_1   0.500000 0.957720 0.500000 0.011875
C10   C     C_1   0.500000 0.042280 0.500000 0.011875
C11   C     C_1   0.830541 0.500000 0.500015 0.073436
C12   C     C_R   0.500000 0.326565 0.500000 0.925193
C13   C     C_1   0.169459 0.500000 0.499985 0.073436
C14   C     C_1   0.950479 0.500000 0.500005 -0.046218
C15   C     C_1   0.049521 0.500000 0.499995 -0.046218
C16   C     C_R   0.483004 0.499999 0.688332 0.931738
C17   C     C_R   0.516996 0.500000 0.311668 0.931739
C18   C     C_1   0.530489 0.499999 0.208917 -0.201566
C19   C     C_1   0.469511 0.500004 0.791083 -0.201566
C20   C     C_2   0.543256 0.499998 0.019023 -0.157048
H1    H     H_    0.384517 0.500025 0.026287 0.160873
H2    H     H_    0.615483 0.499985 0.973713 0.160873
N1    N     N_1   0.738130 0.500000 0.500020 -0.062044
N2    N     N_1   0.261870 0.500000 0.499980 -0.062044
O1    O     O_R   0.423530 0.626280 0.499990 -0.594949
O2    O     O_R   0.576470 0.373720 0.500010 -0.594950
O3    O     O_R   0.576470 0.626280 0.500010 -0.594949
O4    O     O_R   0.423530 0.373720 0.499990 -0.594949
O5    O     O_R   0.412540 0.500000 0.640340 -0.604619
O6    O     O_R   0.587460 0.500000 0.359660 -0.604619
O7    O     O_R   0.565450 0.500000 0.640350 -0.603838
O8    O     O_R   0.434550 0.500000 0.359650 -0.603839
Zn1   Zn    Zn3+2 0.397910 0.500000 0.499990 0.973736
Zn2   Zn    Zn3+2 0.602090 0.500000 0.500010 0.973736

loop_
_geom_bond_atom_site_label_1
_geom_bond_atom_site_label_2
_ccdc_geom_bond_type
C3    C19   T    
C9    C10   T    
N2    Zn1   S    
N1    Zn2   S    
C4    C18   T    
O8    Zn1   S    
C2    H1    S    
C2    C3    S    
O7    Zn2   S    
C1    O3    A    
C16   O7    A    
C1    O1    A    
C17   O6    A    
C12   O4    A    
C16   C19   S    
C1    C5    S    
C11   N1    T    
C20   H2    S    
O4    Zn1   S    
C17   C18   S    
C5    C7    T    
C13   C15   S    
O3    Zn2   S    
C6    C12   S    
C11   C14   S    
O6    Zn2   S    
C2    C20   D    
C4    C20   S    
O5    Zn1   S    
C8    C10   S    
O1    Zn1   S    
C7    C9    S    
C17   O8    A    
C14   C15   T    
C6    C8    T    
C16   O5    A    
O2    Zn2   S    
C13   N2    T    
C12   O2    A    
