data_mof_unit_49795.cif
_audit_creation_date              2012-10-26T19:46:56-0400
_audit_creation_method            fapswitch 2.2
_symmetry_space_group_name_H-M    P1
_symmetry_Int_Tables_number       1
_space_group_crystal_system       triclinic
_cell_length_a                    10.884671
_cell_length_b                    9.566821
_cell_length_c                    15.954404
_cell_angle_alpha                 89.998347
_cell_angle_beta                  87.665454
_cell_angle_gamma                 90.037898
_cell_volume                      1659.97993001

loop_
_atom_site_label
_atom_site_type_symbol
_atom_type_description
_atom_site_fract_x
_atom_site_fract_y
_atom_site_fract_z
_atom_type_partial_charge
C1    C     C_R   0.871967 0.496368 0.510454 -0.003324
C2    C     C_R   0.387204 0.473112 0.959169 0.116120
C3    C     C_R   0.496424 0.506333 0.912770 0.014934
C4    C     C_R   0.493507 0.514690 0.087876 0.026643
C5    C     C_1   0.497979 0.503159 0.822801 -0.034896
C6    C     C_1   0.496017 0.506442 0.177560 -0.007473
C7    C     C_1   0.498001 0.501783 0.252507 -0.044865
C8    C     C_1   0.499154 0.501140 0.747683 -0.053602
C9    C     C_R   0.566322 0.074742 0.439420 0.224864
C10   C     C_R   0.430316 0.924848 0.558738 0.228742
C11   C     C_R   0.433633 0.074602 0.560520 0.225817
C12   C     C_R   0.127963 0.496061 0.489917 -0.003240
C13   C     C_R   0.569555 0.924963 0.441155 0.227994
C14   C     C_R   0.063884 0.367115 0.495525 0.099702
C15   C     C_R   0.937586 0.623507 0.512370 0.089708
C16   C     C_R   0.935768 0.367289 0.506187 0.100517
C17   C     C_R   0.062598 0.623180 0.486930 0.091470
C18   C     C_3   0.589241 0.138842 0.291274 -0.285534
C19   C     C_3   0.228561 0.867039 0.625867 -0.289445
C20   C     C_3   0.411394 0.138150 0.708653 -0.288851
C21   C     C_3   0.770658 0.867051 0.373023 -0.285817
C22   C     C_3   0.710189 0.733898 0.114460 -0.319325
C23   C     C_R   0.262480 0.499279 0.495032 0.560671
C24   C     C_3   0.204379 0.545357 0.889616 -0.311822
C25   C     C_3   0.787339 0.471913 0.875674 -0.322381
C26   C     C_3   0.209336 0.550245 0.135706 -0.316004
C27   C     C_3   0.155412 0.189936 0.404132 -0.289457
C28   C     C_3   0.852406 0.741335 0.635778 -0.286583
C29   C     C_3   0.843327 0.193560 0.599695 -0.292632
C30   C     C_3   0.148315 0.738393 0.362710 -0.295315
C31   C     C_R   0.737487 0.499386 0.505109 0.562342
C32   C     C_R   0.499880 0.500188 0.341441 0.529228
C33   C     C_R   0.499867 0.500148 0.658601 0.528437
C34   C     C_R   0.603250 0.547119 0.953291 0.130823
C35   C     C_R   0.385458 0.477991 0.047408 0.145714
C36   C     C_R   0.601289 0.553016 0.041704 0.120856
Cu1   Cu    Cu3+1 0.500000 0.640660 0.500000 0.995463
Cu2   Cu    Cu3+1 0.500000 0.359340 0.500000 0.992227
H1    H     H_    0.727283 0.146714 0.378862 0.240913
H2    H     H_    0.371585 0.045659 0.741390 0.105806
H3    H     H_    0.381651 0.231389 0.745335 0.140185
H4    H     H_    0.513499 0.132590 0.707612 0.145825
H5    H     H_    0.597072 0.837882 0.322280 0.235595
H6    H     H_    0.798690 0.919066 0.313050 0.093911
H7    H     H_    0.815507 0.763075 0.373972 0.177679
H8    H     H_    0.803440 0.930903 0.425599 0.130333
H9    H     H_    0.790859 0.560455 0.056346 0.250228
H10   H     H_    0.713153 0.807333 0.060466 0.129016
H11   H     H_    0.792876 0.751095 0.151686 0.131918
H12   H     H_    0.628450 0.046006 0.258635 0.100665
H13   H     H_    0.627599 0.756394 0.155401 0.152239
H14   H     H_    0.295732 0.357231 0.871694 0.241198
H15   H     H_    0.117811 0.503035 0.865206 0.129414
H16   H     H_    0.253581 0.604589 0.838608 0.140857
H17   H     H_    0.180370 0.617438 0.942168 0.150532
H18   H     H_    0.759818 0.668264 0.928881 0.248018
H19   H     H_    0.826951 0.417507 0.929834 0.132648
H20   H     H_    0.863691 0.512438 0.834213 0.126510
H21   H     H_    0.733795 0.396001 0.839181 0.153151
H22   H     H_    0.221989 0.366327 0.066950 0.273882
H23   H     H_    0.619859 0.231878 0.254550 0.155741
H24   H     H_    0.167948 0.617703 0.087898 0.134113
H25   H     H_    0.269015 0.615119 0.174897 0.144353
H26   H     H_    0.134350 0.506393 0.177057 0.131475
H27   H     H_    0.095459 0.158618 0.528266 0.231147
H28   H     H_    0.214310 0.095279 0.405580 0.133273
H29   H     H_    0.205905 0.272003 0.367409 0.164986
H30   H     H_    0.069329 0.163561 0.372563 0.111056
H31   H     H_    0.915328 0.841469 0.528551 0.226588
H32   H     H_    0.939331 0.737633 0.669921 0.113644
H33   H     H_    0.795369 0.648573 0.652998 0.159408
H34   H     H_    0.487113 0.134033 0.292102 0.148513
H35   H     H_    0.800241 0.836257 0.655621 0.131760
H36   H     H_    0.903648 0.157602 0.476067 0.231726
H37   H     H_    0.929162 0.168223 0.631810 0.109440
H38   H     H_    0.784126 0.098986 0.599357 0.133844
H39   H     H_    0.792907 0.277032 0.635198 0.157589
H40   H     H_    0.085479 0.840824 0.469161 0.226886
H41   H     H_    0.061482 0.733896 0.328488 0.115147
H42   H     H_    0.205291 0.645316 0.346289 0.151464
H43   H     H_    0.200641 0.832916 0.342191 0.127526
H44   H     H_    0.401506 0.837496 0.677467 0.239804
H45   H     H_    0.200102 0.919716 0.685529 0.095131
H46   H     H_    0.183496 0.763109 0.625088 0.174422
H47   H     H_    0.196436 0.930398 0.572889 0.131759
H48   H     H_    0.272956 0.146198 0.621460 0.240370
N1    N     N_R   0.500000 0.852070 0.500000 -0.220275
N2    N     N_2   0.277972 0.437075 0.095769 -0.508001
N3    N     N_2   0.127975 0.237041 0.489070 -0.491330
N4    N     N_2   0.879302 0.746428 0.546172 -0.493713
N5    N     N_2   0.871362 0.237485 0.514209 -0.489048
N6    N     N_2   0.121208 0.745359 0.452245 -0.490257
N7    N     N_R   0.500000 0.147930 0.500000 -0.220646
N8    N     N_2   0.633115 0.150180 0.375631 -0.445388
N9    N     N_2   0.360656 0.848598 0.620729 -0.451823
N10   N     N_2   0.367138 0.149856 0.624445 -0.444320
N11   N     N_2   0.638541 0.848812 0.378814 -0.450313
N12   N     N_2   0.708619 0.590852 0.084992 -0.518696
N13   N     N_2   0.279509 0.431248 0.917782 -0.525347
N14   N     N_2   0.710381 0.586996 0.904463 -0.517627
O1    O     O_R   0.319640 0.618740 0.499990 -0.451959
O2    O     O_R   0.680360 0.381260 0.500010 -0.460457
O3    O     O_R   0.680360 0.618740 0.500010 -0.451328
O4    O     O_R   0.319640 0.381260 0.499990 -0.461393
O5    O     O_R   0.499970 0.618750 0.380310 -0.495660
O6    O     O_R   0.500030 0.381250 0.619690 -0.478294
O7    O     O_R   0.500030 0.618750 0.619690 -0.491678
O8    O     O_R   0.499970 0.381250 0.380310 -0.475843

loop_
_geom_bond_atom_site_label_1
_geom_bond_atom_site_label_2
_ccdc_geom_bond_type
C11   N10   S    
C2    C35   A    
C22   H10   S    
C4    C36   A    
C22   N12   S    
C24   N13   S    
C33   O7    A    
C20   H3    S    
H22   N2    S    
H1    N8    S    
C29   H38   S    
C24   H17   S    
H27   N3    S    
C12   C23   S    
H9    N12   S    
Cu1   O7    S    
C20   H2    S    
C24   H16   S    
C1    C31   S    
C26   H26   S    
C9    C13   A    
C27   H30   S    
C12   C17   A    
C34   N14   S    
C1    C15   A    
C3    C5    S    
C30   H42   S    
C11   N7    A    
C20   N10   S    
C4    C35   A    
Cu2   O8    S    
C17   N6    S    
C25   H19   S    
C19   H45   S    
C28   H35   S    
C28   N4    S    
C21   H7    S    
C18   H34   S    
C7    C32   S    
C10   N1    A    
C31   O2    A    
C4    C6    S    
Cu1   O3    S    
C3    C34   A    
H40   N6    S    
C24   H15   S    
C31   O3    A    
H36   N5    S    
Cu2   O6    S    
C26   H25   S    
C14   N3    S    
Cu1   O5    S    
Cu1   Cu2   S    
C21   H6    S    
C21   N11   S    
C35   N2    S    
C25   N14   S    
C20   H4    S    
C23   O4    A    
C13   N1    A    
C1    C16   A    
H48   N10   S    
C22   H11   S    
C30   H41   S    
C30   N6    S    
C12   C14   A    
C2    N13   S    
C32   O5    A    
C18   N8    S    
C14   C16   A    
C28   H33   S    
C25   H20   S    
H18   N14   S    
H31   N4    S    
C9    N7    A    
C29   N5    S    
C19   N9    S    
C18   H12   S    
C21   H8    S    
C15   C17   A    
H44   N9    S    
Cu1   N1    S    
C28   H32   S    
C33   O6    A    
H5    N11   S    
C19   H47   S    
C5    C8    T    
Cu2   O4    S    
C18   H23   S    
C6    C7    T    
C29   H37   S    
H14   N13   S    
C30   H43   S    
C2    C3    A    
C26   H24   S    
Cu2   O2    S    
C27   H28   S    
C15   N4    S    
Cu1   O1    S    
C23   O1    A    
C10   N9    S    
Cu2   N7    S    
C27   N3    S    
C34   C36   A    
C8    C33   S    
C13   N11   S    
C27   H29   S    
C10   C11   A    
C29   H39   S    
C16   N5    S    
C26   N2    S    
C32   O8    A    
C36   N12   S    
C25   H21   S    
C9    N8    S    
C19   H46   S    
C22   H13   S    
