data_mof_unit_57576.cif
_audit_creation_date              2012-12-10T17:28:39-0500
_audit_creation_method            fapswitch 2.2
_symmetry_space_group_name_H-M    P1
_symmetry_Int_Tables_number       1
_space_group_crystal_system       triclinic
_cell_length_a                    10.662826
_cell_length_b                    11.978567
_cell_length_c                    12.844641
_cell_angle_alpha                 93.591703
_cell_angle_beta                  91.004311
_cell_angle_gamma                 82.779159
_cell_volume                      1624.30110867

loop_
_atom_site_label
_atom_site_type_symbol
_atom_type_description
_atom_site_fract_x
_atom_site_fract_y
_atom_site_fract_z
_atom_type_partial_charge
C1    C     C_R   0.495905 0.522683 0.700479 0.880795
C2    C     C_R   0.445178 0.545860 0.131568 -0.261212
C3    C     C_R   0.540408 0.455803 0.974687 0.156552
C4    C     C_R   0.459595 0.544198 0.025312 0.156552
C5    C     C_R   0.399974 0.956975 0.387760 -0.170756
C6    C     C_R   0.600024 0.043025 0.612241 -0.170755
C7    C     C_R   0.404671 0.839437 0.402184 0.545740
C8    C     C_R   0.595328 0.160563 0.597817 0.545740
C9    C     C_R   0.540727 0.856395 0.549155 -0.094599
C10   C     C_R   0.459272 0.143605 0.450845 -0.094600
C11   C     C_R   0.535483 0.974639 0.541100 -0.027960
C12   C     C_R   0.504096 0.477317 0.299521 0.880791
C13   C     C_R   0.464516 0.025361 0.458901 -0.027959
C14   C     C_R   0.740902 0.494554 0.490018 0.882224
C15   C     C_R   0.259098 0.505446 0.509979 0.882224
C16   C     C_R   0.922879 0.289542 0.541300 -0.126783
C17   C     C_R   0.077118 0.710458 0.458695 -0.126784
C18   C     C_R   0.997941 0.215294 0.603604 0.048209
C19   C     C_R   0.002056 0.784706 0.396390 0.048208
C20   C     C_R   0.104889 0.249307 0.653437 -0.180619
C21   C     C_R   0.895110 0.750691 0.346555 -0.180616
C22   C     C_R   0.142789 0.352697 0.633373 -0.145870
C23   C     C_R   0.512276 0.462165 0.188184 -0.110412
C24   C     C_R   0.857210 0.647300 0.366620 -0.145870
C25   C     C_R   0.073926 0.423731 0.562648 0.076861
C26   C     C_R   0.926074 0.576267 0.437345 0.076861
C27   C     C_R   0.955677 0.398786 0.526557 0.057263
C28   C     C_R   0.044322 0.601213 0.473437 0.057262
C29   C     C_R   0.123254 0.516803 0.524651 -0.224119
C30   C     C_R   0.876745 0.483196 0.475344 -0.224119
C31   C     C_1   0.333476 0.006002 0.298915 0.149654
C32   C     C_1   0.666520 0.993998 0.701087 0.149655
C33   C     C_1   0.967067 0.103124 0.614828 0.160509
C34   C     C_R   0.487725 0.537835 0.811816 -0.110412
C35   C     C_1   0.032926 0.896876 0.385170 0.160507
C36   C     C_1   0.666064 0.286468 0.195107 0.187922
C37   C     C_1   0.333935 0.713530 0.804893 0.187922
C38   C     C_R   0.394838 0.630117 0.969262 -0.234017
C39   C     C_R   0.605165 0.369883 0.030738 -0.234017
C40   C     C_R   0.407952 0.627445 0.861817 -0.018328
C41   C     C_R   0.592049 0.372555 0.138183 -0.018328
C42   C     C_R   0.554825 0.454140 0.868432 -0.261212
H1    H     H_    0.838122 0.805845 0.295543 0.151542
H2    H     H_    0.667156 0.302204 0.991124 0.150153
H3    H     H_    0.403766 0.185718 0.390205 0.169927
H4    H     H_    0.596234 0.814282 0.609794 0.169927
H5    H     H_    0.715113 0.187570 0.711775 0.316039
H6    H     H_    0.284883 0.812430 0.288228 0.316039
H7    H     H_    0.161877 0.194151 0.704447 0.151542
H8    H     H_    0.844453 0.257602 0.500066 0.184308
H9    H     H_    0.155541 0.742398 0.499932 0.184306
H10   H     H_    0.227833 0.375997 0.671728 0.151106
H11   H     H_    0.772166 0.623999 0.328265 0.151102
H12   H     H_    0.383051 0.613707 0.170786 0.192280
H13   H     H_    0.616952 0.386294 0.829213 0.192279
H14   H     H_    0.332847 0.697797 0.008876 0.150154
N1    N     N_R   0.523130 0.207800 0.519340 -0.120624
N2    N     N_R   0.476870 0.792200 0.480660 -0.120623
N3    N     N_1   0.280672 0.045219 0.227867 -0.183560
N4    N     N_1   0.719322 0.954781 0.772135 -0.183560
N5    N     N_1   0.943245 0.012621 0.623661 -0.191270
N6    N     N_1   0.056747 0.987380 0.376338 -0.191270
N7    N     N_1   0.725323 0.217619 0.240755 -0.196868
N8    N     N_1   0.274674 0.782377 0.759245 -0.196867
O1    O     O_R   0.506170 0.421700 0.658830 -0.568501
O2    O     O_3   0.338425 0.769169 0.339065 -0.760386
O3    O     O_R   0.493830 0.578300 0.341170 -0.568503
O4    O     O_R   0.491330 0.609310 0.646410 -0.625532
O5    O     O_R   0.508670 0.390690 0.353590 -0.625533
O6    O     O_R   0.690650 0.406190 0.506220 -0.594047
O7    O     O_R   0.309350 0.593810 0.493780 -0.594044
O8    O     O_R   0.675800 0.593810 0.493800 -0.619102
O9    O     O_R   0.324200 0.406190 0.506200 -0.619103
O10   O     O_3   0.661573 0.230831 0.660937 -0.760386
Zn1   Zn    Zn3+2 0.509910 0.374730 0.508290 0.993483
Zn2   Zn    Zn3+2 0.490090 0.625270 0.491710 0.993485

loop_
_geom_bond_atom_site_label_1
_geom_bond_atom_site_label_2
_ccdc_geom_bond_type
C6    C32   S    
C12   O5    A    
C3    C42   A    
O9    Zn1   S    
C34   C42   A    
O8    Zn2   S    
C17   H9    S    
N2    Zn2   S    
C39   C41   A    
C12   C23   S    
C34   C40   A    
C28   C29   A    
C19   C21   A    
C16   H8    S    
C37   C40   S    
O7    Zn2   S    
C42   H13   S    
C1    O4    A    
C9    N2    A    
C31   N3    T    
C21   H1    S    
C22   C25   A    
C1    O1    A    
C36   N7    T    
C7    N2    A    
C5    C13   A    
C16   C27   A    
C3    C39   A    
C9    H4    S    
C27   C30   A    
C14   O6    A    
C36   C41   S    
C14   C30   S    
C1    C34   S    
C15   C29   S    
C25   C29   A    
C12   O3    A    
C10   N1    A    
C2    H12   S    
C6    C11   A    
C5    C7    A    
C6    C8    A    
C24   H11   S    
C2    C4    A    
C20   H7    S    
C8    N1    A    
C10   H3    S    
C8    O10   S    
C9    C11   A    
C16   C18   A    
C15   O9    A    
C20   C22   A    
C26   C30   A    
O4    Zn2   S    
C32   N4    T    
C3    C4    A    
O6    Zn1   S    
C37   N8    T    
C22   H10   S    
C17   C28   A    
C14   O8    A    
H5    O10   S    
C24   C26   A    
C10   C13   A    
O1    Zn1   S    
C39   H2    S    
C25   C27   A    
C15   O7    A    
C26   C28   A    
C23   C41   A    
N1    Zn1   S    
C19   C35   S    
C7    O2    S    
C38   C40   A    
C11   C13   A    
C17   C19   A    
O5    Zn1   S    
C35   N6    T    
C18   C20   A    
C18   C33   S    
C38   H14   S    
C33   N5    T    
C21   C24   A    
C2    C23   A    
O3    Zn2   S    
H6    O2    S    
C4    C38   A    
C5    C31   S    
