data_mof_unit_13272.cif
_audit_creation_date              2012-12-11T18:13:26-0500
_audit_creation_method            fapswitch 2.2
_symmetry_space_group_name_H-M    P1
_symmetry_Int_Tables_number       1
_space_group_crystal_system       triclinic
_cell_length_a                    8.276913
_cell_length_b                    12.852172
_cell_length_c                    18.693926
_cell_angle_alpha                 100.091568
_cell_angle_beta                  91.34095
_cell_angle_gamma                 99.169858
_cell_volume                      1930.10801895

loop_
_atom_site_label
_atom_site_type_symbol
_atom_type_description
_atom_site_fract_x
_atom_site_fract_y
_atom_site_fract_z
_atom_type_partial_charge
Ba1   Ba    Ba6+2 0.852780 0.548340 0.465070 1.722377
Ba2   Ba    Ba6+2 0.337060 0.451750 0.534940 1.713885
Br1   Br    Br    0.087625 0.947381 0.704188 -0.584091
Br2   Br    Br    0.021856 0.127613 0.409228 -0.603869
Br3   Br    Br    0.272669 0.162582 0.229589 -0.598533
Br4   Br    Br    0.042171 0.693822 0.193331 -0.598602
C1    C     C_3   0.611148 0.868508 0.213788 -0.397423
C2    C     C_R   0.899776 0.390599 0.092491 0.044082
C3    C     C_R   0.737631 0.344958 0.068877 -0.066370
C4    C     C_3   0.159604 0.809508 0.264382 0.726322
C5    C     C_R   0.674893 0.353233 0.000472 -0.095061
C6    C     C_R   0.774255 0.405153 0.953310 0.031365
C7    C     C_R   0.937713 0.450422 0.975656 0.030630
C8    C     C_R   0.712882 0.410413 0.883827 -0.116301
C9    C     C_R   0.814280 0.456263 0.833999 -0.054026
C10   C     C_R   0.977832 0.504921 0.856778 -0.006397
C11   C     C_R   0.038366 0.502160 0.928088 -0.006412
C12   C     C_3   0.647459 0.816265 0.277888 0.345676
C13   C     C_R   0.758788 0.451666 0.761332 -0.027536
C14   C     C_R   0.866151 0.492672 0.712407 -0.286521
C15   C     C_R   0.024656 0.546824 0.734423 0.028723
C16   C     C_3   0.211352 0.902029 0.225307 0.293902
C17   C     C_R   0.081473 0.554912 0.808307 -0.047925
C18   C     C_R   0.161564 0.491561 0.069425 0.024226
C19   C     C_R   0.218901 0.493306 0.142058 0.053326
C20   C     C_R   0.114336 0.444700 0.190965 -0.003312
C21   C     C_R   0.961066 0.386425 0.162647 -0.019278
C22   C     C_R   0.239330 0.608518 0.835135 -0.029427
C23   C     C_3   0.402585 0.249674 0.312693 0.534382
C24   C     C_R   0.301293 0.602078 0.904682 0.030530
C25   C     C_R   0.200871 0.548469 0.951301 -0.000675
C26   C     C_R   0.262512 0.542952 0.021759 0.032669
C27   C     C_R   0.463728 0.647340 0.928094 -0.077172
C28   C     C_3   0.227178 0.783673 0.618160 0.348380
C29   C     C_R   0.525224 0.640783 0.997215 -0.088220
C30   C     C_R   0.424716 0.590256 0.044826 0.032963
C31   C     C_R   0.377919 0.547928 0.166317 -0.020673
C32   C     C_R   0.482422 0.590013 0.115884 -0.125834
C33   C     C_R   0.425547 0.562145 0.240801 -0.022479
C34   C     C_3   0.516212 0.333651 0.282561 0.219149
C35   C     C_R   0.314252 0.525609 0.290419 -0.253334
C36   C     C_R   0.163235 0.460918 0.266841 0.063791
C37   C     C_R   0.758168 0.183899 0.534443 0.163595
C38   C     C_R   0.433950 0.807164 0.466286 -0.265622
C39   C     C_R   0.406335 0.982291 0.442728 -0.119649
C40   C     C_3   0.250115 0.904955 0.636576 0.086122
C41   C     C_R   0.343444 0.874037 0.436916 -0.044125
C42   C     C_R   0.580665 0.848488 0.507859 0.065516
C43   C     C_R   0.643931 0.960844 0.516372 -0.053606
C44   C     C_R   0.555711 0.027722 0.482123 -0.092593
C45   C     C_3   0.044831 0.251302 0.739088 0.321062
C46   C     C_R   0.615576 0.139298 0.490461 0.003181
C47   C     C_R   0.852218 0.118687 0.564066 0.012355
C48   C     C_R   0.792977 0.008408 0.556662 -0.141968
C49   C     C_3   0.900923 0.197765 0.349353 0.559265
C50   C     C_3   0.798168 0.104976 0.297766 -0.253022
C51   C     C_3   0.729222 0.709079 0.682997 0.344518
C52   C     C_3   0.734866 0.743551 0.765253 -0.370643
C53   C     C_3   0.051490 0.228770 0.816584 0.270324
C54   C     C_3   0.548516 0.184254 0.702801 0.353328
C55   C     C_3   0.596361 0.105036 0.747739 -0.377413
C56   C     C_R   0.999930 0.444084 0.045826 0.030474
H1    H     H_    0.727579 0.875722 0.319327 0.091734
H2    H     H_    0.553622 0.939815 0.232244 0.071957
H3    H     H_    0.832479 0.814009 0.782888 0.171833
H4    H     H_    0.760497 0.677492 0.792453 0.045258
H5    H     H_    0.615102 0.765255 0.782259 0.114659
H6    H     H_    0.532448 0.791666 0.304154 -0.057037
H7    H     H_    0.527709 0.810591 0.172888 0.108867
H8    H     H_    0.318259 0.288788 0.349379 -0.000030
H9    H     H_    0.447528 0.365894 0.242623 -0.029033
H10   H     H_    0.568271 0.399256 0.327656 0.080036
H11   H     H_    0.726193 0.893712 0.187538 0.173520
H12   H     H_    0.374138 0.936306 0.662420 0.043856
H13   H     H_    0.285767 0.877453 0.178483 -0.002670
H14   H     H_    0.116285 0.331796 0.737994 0.041341
H15   H     H_    0.915031 0.250650 0.723042 -0.045102
H16   H     H_    0.977980 0.279796 0.851926 -0.057228
H17   H     H_    0.996162 0.144129 0.816380 0.124683
H18   H     H_    0.658895 0.215746 0.675797 -0.047861
H19   H     H_    0.454878 0.141443 0.659698 0.079308
H20   H     H_    0.687446 0.147398 0.792015 0.094294
H21   H     H_    0.651173 0.042148 0.712670 0.084405
H22   H     H_    0.486716 0.066812 0.772346 0.183350
H23   H     H_    0.237322 0.938496 0.586418 0.045992
H24   H     H_    0.657478 0.304431 0.103506 0.088224
H25   H     H_    0.548647 0.318090 0.984210 0.101485
H26   H     H_    0.823173 0.485794 0.656413 0.100765
H27   H     H_    0.586301 0.376107 0.868922 0.121467
H28   H     H_    0.886412 0.340749 0.195760 0.154423
H29   H     H_    0.317751 0.653417 0.801902 0.101722
H30   H     H_    0.543602 0.687803 0.892916 0.068645
H31   H     H_    0.650780 0.677071 0.013948 0.092447
H32   H     H_    0.607160 0.627658 0.131943 0.127298
H33   H     H_    0.269554 0.781311 0.283659 -0.310896
H34   H     H_    0.822491 0.248395 0.381209 -0.033575
H35   H     H_    0.353255 0.537765 0.347338 0.042028
H36   H     H_    0.332800 0.030692 0.418841 0.140157
H37   H     H_    0.866361 0.960845 0.581282 0.152015
H38   H     H_    0.383143 0.723131 0.461510 0.058617
H39   H     H_    0.287936 0.966388 0.264742 0.092900
H40   H     H_    0.338394 0.758204 0.594212 -0.085297
H41   H     H_    0.121513 0.755754 0.578350 0.060324
H42   H     H_    0.592129 0.240391 0.202316 0.308740
H43   H     H_    0.247288 0.324819 0.859400 0.299420
H44   H     H_    0.870163 0.309361 0.505770 0.307418
H45   H     H_    0.739092 0.130546 0.252121 0.151793
H46   H     H_    0.045698 0.904656 0.150244 0.327939
H47   H     H_    0.703963 0.062545 0.328454 0.050119
H48   H     H_    0.876672 0.047576 0.273023 0.194321
H49   H     H_    0.850640 0.690993 0.666422 0.006561
H50   H     H_    0.634455 0.636276 0.667906 0.047524
O1    O     O_2   0.873090 0.425890 0.325140 -0.431924
O2    O     O_2   0.194933 0.125020 0.559363 -0.446913
O3    O     O_3   0.110922 0.172271 0.692826 -0.540453
O4    O     O_3   0.122420 0.434370 0.414380 -0.500385
O5    O     O_3   0.578370 0.633800 0.536380 -0.497144
O6    O     O_2   0.341510 0.231850 0.465510 -0.419612
O7    O     O_3   0.493724 0.185381 0.345774 -0.643005
O8    O     O_2   0.421065 0.457762 0.756065 -0.501610
O9    O     O_3   0.481240 0.263767 0.748480 -0.545245
O10   O     O_3   0.659500 0.627100 0.368810 -0.483730
O11   O     O_2   0.749653 0.531533 0.243884 -0.425488
O12   O     O_3   0.691196 0.793314 0.650897 -0.618514
O13   O     O_3   0.011430 0.254611 0.309121 -0.594363
O14   O     O_3   0.733272 0.732790 0.252437 -0.522599
O15   O     O_2   0.848200 0.768190 0.534530 -0.469423
O16   O     O_3   0.081160 0.685950 0.404810 -0.466717
O17   O     O_2   0.015559 0.876858 0.458068 -0.453513
O18   O     O_3   0.641662 0.289189 0.247154 -0.725514
O19   O     O_3   0.213761 0.246048 0.844893 -0.658216
O20   O     O_3   0.807818 0.292780 0.548130 -0.722504
O21   O     O_3   0.072947 0.939828 0.201699 -0.664021
O22   O     O_3   0.056413 0.842641 0.319775 -0.538071
O23   O     O_2   0.316610 0.574140 0.674900 -0.468497
O24   O     O_3   0.067290 0.565720 0.585630 -0.500843
O25   O     O_3   0.530210 0.372990 0.631200 -0.439637
O26   O     O_3   0.200190 0.744127 0.682579 -0.604869
O27   O     O_3   0.611340 0.366290 0.463630 -0.464644
O28   O     O_3   0.108550 0.314140 0.595200 -0.437250
P1    P     P_3+3 0.041040 0.394770 0.336330 1.019671
P2    P     P_3+3 0.672880 0.754030 0.556100 0.985069
P3    P     P_3+3 0.128373 0.822315 0.404258 1.029351
P4    P     P_3+3 0.148670 0.605320 0.663680 0.988700
P5    P     P_3+3 0.063901 0.179311 0.602380 1.070454
P6    P     P_3+3 0.639278 0.612657 0.275284 1.017943
P7    P     P_3+3 0.520144 0.229619 0.440466 0.974587
P8    P     P_3+3 0.548925 0.389104 0.725327 0.978214

loop_
_geom_bond_atom_site_label_1
_geom_bond_atom_site_label_2
_ccdc_geom_bond_type
C49   C50   S    
C34   H9    S    
Ba2   P4    S    
C35   C36   A    
O25   P8    S    
C29   C30   A    
Ba1   O16   S    
C45   H15   S    
Ba2   O6    S    
H43   O19   S    
C47   C48   A    
C4    C16   S    
C13   P8    S    
C9    C13   A    
C23   O7    S    
O27   P7    S    
C20   C21   A    
C28   H40   S    
C16   H39   S    
Ba2   O27   S    
C26   C30   A    
C37   O20   S    
C55   H20   S    
O23   P4    D    
C24   C25   A    
C12   H1    S    
C51   H50   S    
O7    P7    S    
C43   C48   A    
C41   P3    S    
C33   P6    S    
C21   H28   S    
Ba1   Ba2   S    
C8    H27   S    
Ba1   O10   S    
Ba1   P2    S    
C19   C31   A    
O22   P3    S    
Ba2   O4    S    
C52   H4    S    
C54   H18   S    
C7    C56   A    
C49   O13   S    
C5    H25   S    
C10   C11   A    
C44   C46   A    
C28   H41   S    
C28   C40   S    
Ba1   O4    S    
Ba1   O24   S    
Ba1   O27   S    
C38   C41   A    
C40   H23   S    
C39   C41   A    
H42   O18   S    
O12   P2    S    
Ba1   O1    S    
C16   H13   S    
C53   H16   S    
C50   H48   S    
Ba2   O5    S    
C37   C47   A    
Br3   C23   S    
C29   H31   S    
O14   P6    S    
C16   O21   S    
Ba1   O15   S    
C18   C19   A    
C15   P4    S    
C33   C35   A    
C55   H21   S    
C27   H30   S    
O13   P1    S    
C32   H32   S    
C2    C3    A    
C19   C20   A    
C28   O26   S    
C45   O3    S    
C54   C55   S    
O15   P2    D    
H44   O20   S    
C18   C26   A    
C50   H45   S    
Br4   C4    S    
C31   C32   A    
C3    H24   S    
C54   H19   S    
C52   H3    S    
C25   C26   A    
O11   P6    D    
C1    C12   S    
C53   O19   S    
C1    H11   S    
C36   P1    S    
C47   P5    S    
O9    P8    S    
C42   P2    S    
Ba1   O5    S    
C17   C22   A    
C45   H14   S    
C3    C5    A    
C42   C43   A    
C6    C8    A    
O8    P8    D    
C46   P7    S    
C15   C17   A    
Br2   C49   S    
C11   C25   A    
C35   H35   S    
C48   H37   S    
C45   C53   S    
C53   H17   S    
C50   H47   S    
C40   H12   S    
C20   C36   A    
C23   H8    S    
C34   O18   S    
O6    P7    D    
C18   C56   A    
C34   H10   S    
C24   C27   A    
C14   C15   A    
Ba2   O25   S    
C4    O22   S    
O2    P5    D    
C4    H33   S    
C49   H34   S    
C55   H22   S    
O28   P5    S    
C1    H7    S    
C5    C6    A    
O17   P3    D    
C10   C17   A    
O3    P5    S    
Br1   C40   S    
Ba2   O23   S    
C7    C11   A    
C39   H36   S    
Ba2   O28   S    
C13   C14   A    
C30   C32   A    
O5    P2    S    
H46   O21   S    
O24   P4    S    
O26   P4    S    
C12   O14   S    
C51   O12   S    
C38   H38   S    
C51   C52   S    
C51   H49   S    
C39   C44   A    
C14   H26   S    
C23   C34   S    
C22   C24   A    
C27   C29   A    
O1    P1    D    
C22   H29   S    
O10   P6    S    
C54   O9    S    
C37   C46   A    
O16   P3    S    
Ba2   O24   S    
C1    H2    S    
Ba1   P1    S    
O4    P1    S    
C38   C42   A    
C52   H5    S    
C6    C7    A    
C31   C33   A    
C43   C44   A    
C2    C21   A    
C8    C9    A    
C12   H6    S    
C9    C10   A    
C2    C56   A    
