data_mof_unit_56724.cif
_audit_creation_date              2012-10-26T18:32:26-0400
_audit_creation_method            fapswitch 2.2
_symmetry_space_group_name_H-M    P1
_symmetry_Int_Tables_number       1
_space_group_crystal_system       triclinic
_cell_length_a                    12.36706
_cell_length_b                    13.13157
_cell_length_c                    15.847312
_cell_angle_alpha                 77.444161
_cell_angle_beta                  100.451579
_cell_angle_gamma                 116.454973
_cell_volume                      2238.43587929

loop_
_atom_site_label
_atom_site_type_symbol
_atom_type_description
_atom_site_fract_x
_atom_site_fract_y
_atom_site_fract_z
_atom_type_partial_charge
C1    C     C_R   0.855080 0.286353 0.507548 0.531376
C2    C     C_R   0.227336 0.837694 0.477103 0.005475
C3    C     C_R   0.812818 0.084341 0.568859 -0.167670
C4    C     C_R   0.999304 0.500057 0.659309 0.539382
C5    C     C_R   0.730476 0.975276 0.600880 -0.132664
C6    C     C_R   0.605580 0.942217 0.581326 0.150002
C7    C     C_R   0.562384 0.013975 0.516461 0.045924
C8    C     C_R   0.647849 0.124576 0.482821 -0.036584
C9    C     C_R   0.437601 0.982321 0.485867 -0.011329
C10   C     C_R   0.398440 0.066427 0.437418 0.025626
C11   C     C_R   0.484413 0.174308 0.402307 0.140365
C12   C     C_3   0.101432 0.468044 0.068849 -0.215001
C13   C     C_R   0.607283 0.196386 0.418758 -0.093698
C14   C     C_R   0.351656 0.867805 0.496872 -0.157163
C15   C     C_R   0.187308 0.924988 0.442572 0.117973
C16   C     C_R   0.144837 0.714058 0.488129 0.551732
C17   C     C_R   0.772110 0.162663 0.515498 -0.015862
C18   C     C_R   0.350046 0.336434 0.645027 -0.169682
C19   C     C_R   0.766313 0.653067 0.388303 0.041979
C20   C     C_R   0.680946 0.698060 0.372928 -0.185127
C21   C     C_R   0.579642 0.645178 0.419501 -0.125137
C22   C     C_R   0.558565 0.542218 0.478759 0.002444
C23   C     C_3   0.999892 0.499358 0.083356 0.040391
C24   C     C_R   0.654271 0.506218 0.498193 0.169899
C25   C     C_R   0.450378 0.478268 0.523331 0.015452
C26   C     C_R   0.449516 0.393007 0.595515 0.005653
C27   C     C_R   0.547294 0.363667 0.617036 -0.185015
C28   C     C_R   0.000829 0.500180 0.340648 0.540551
C29   C     C_R   0.646327 0.417386 0.568398 -0.098703
C30   C     C_R   0.340710 0.491689 0.497224 0.284934
C31   C     C_R   0.250384 0.362766 0.622105 0.016112
C32   C     C_3   0.092276 0.454745 0.971314 0.290120
C33   C     C_3   0.865346 0.409481 0.949491 0.021932
C34   C     C_3   0.027497 0.622082 0.030226 0.052372
C35   C     C_3   0.876299 0.406033 0.050021 -0.196479
C36   C     C_1   0.002178 0.499706 0.251362 -0.051405
C37   C     C_3   0.992742 0.496542 0.916335 0.125697
C38   C     C_3   0.273306 0.639172 0.916570 -0.329894
C39   C     C_3   0.834452 0.634920 0.048678 -0.301661
C40   C     C_3   0.007871 0.901528 0.498325 -0.287168
C41   C     C_3   0.524822 0.349899 0.290303 -0.318702
C42   C     C_3   0.481914 0.868609 0.701335 -0.312276
C43   C     C_3   0.089324 0.292615 0.905006 -0.295057
C44   C     C_3   0.299584 0.486721 0.341635 -0.300468
C45   C     C_3   0.011897 0.617607 0.931778 -0.177050
C46   C     C_3   0.726706 0.428045 0.816673 -0.319427
C47   C     C_1   0.002136 0.499444 0.175859 -0.075093
C48   C     C_1   0.994489 0.498442 0.823996 -0.031499
C49   C     C_1   0.997054 0.499658 0.748577 -0.060008
C50   C     C_R   0.273308 0.037584 0.419541 -0.114845
Cu1   Cu    Cu3+1 0.098280 0.475420 0.519630 0.920178
Cu2   Cu    Cu3+1 0.901720 0.524580 0.480370 0.907447
H1    H     H_    0.240855 0.101376 0.386302 0.120583
H2    H     H_    0.272775 0.683631 0.968288 0.120658
H3    H     H_    0.231444 0.666377 0.853093 0.153604
H4    H     H_    0.191776 0.535088 0.088687 0.096542
H5    H     H_    0.007308 0.724004 0.106575 0.247974
H6    H     H_    0.806581 0.704603 0.048046 0.128768
H7    H     H_    0.801701 0.570177 0.107085 0.136830
H8    H     H_    0.791241 0.597278 0.988675 0.178124
H9    H     H_    0.041117 0.947551 0.369151 0.233017
H10   H     H_    0.048704 0.989975 0.514992 0.124372
H11   H     H_    0.021662 0.841250 0.555766 0.167683
H12   H     H_    0.381770 0.800049 0.515895 0.183152
H13   H     H_    0.908773 0.874185 0.481445 0.144985
H14   H     H_    0.397360 0.282539 0.381269 0.243735
H15   H     H_    0.473112 0.394916 0.246883 0.129472
H16   H     H_    0.559773 0.314852 0.249138 0.145053
H17   H     H_    0.601179 0.413348 0.326872 0.164072
H18   H     H_    0.558694 0.780965 0.656874 0.247560
H19   H     H_    0.558192 0.911293 0.749278 0.133104
H20   H     H_    0.415678 0.787245 0.735349 0.140523
H21   H     H_    0.435198 0.925377 0.673230 0.159858
H22   H     H_    0.763845 0.919940 0.647892 0.105302
H23   H     H_    0.907755 0.110596 0.592514 0.125165
H24   H     H_    0.004949 0.269604 0.017088 0.225486
H25   H     H_    0.018950 0.207150 0.891192 0.121102
H26   H     H_    0.174666 0.284195 0.932455 0.138048
H27   H     H_    0.104659 0.353047 0.842883 0.183208
H28   H     H_    0.672005 0.271758 0.382744 0.149476
H29   H     H_    0.546553 0.297053 0.671397 0.102709
H30   H     H_    0.349771 0.272740 0.701546 0.091015
H31   H     H_    0.286818 0.607435 0.405067 0.286293
H32   H     H_    0.284965 0.539082 0.279248 0.128014
H33   H     H_    0.217581 0.403920 0.350555 0.168124
H34   H     H_    0.174648 0.320948 0.661351 0.119319
H35   H     H_    0.377755 0.468434 0.337975 0.139847
H36   H     H_    0.846460 0.695761 0.353512 0.147401
H37   H     H_    0.694984 0.775803 0.326710 0.098073
H38   H     H_    0.716527 0.388963 0.590079 0.182899
H39   H     H_    0.689578 0.398450 0.942891 0.239798
H40   H     H_    0.631912 0.419194 0.800791 0.134434
H41   H     H_    0.730470 0.351348 0.800862 0.136052
H42   H     H_    0.783862 0.507574 0.775588 0.169622
H43   H     H_    0.842387 0.321338 0.937575 0.143214
H44   H     H_    0.799328 0.413534 0.070180 0.119400
H45   H     H_    0.522498 0.689817 0.410727 0.147173
H46   H     H_    0.089652 0.689260 0.900500 0.070853
H47   H     H_    0.934064 0.636481 0.899211 0.167051
H48   H     H_    0.125771 0.676263 0.045745 0.106845
H49   H     H_    0.868737 0.319493 0.083136 0.077690
H50   H     H_    0.096185 0.388173 0.113572 0.102268
H51   H     H_    0.273881 0.482414 0.974872 0.249641
H52   H     H_    0.369640 0.665352 0.907439 0.124475
N1    N     N_R   0.246300 0.438200 0.549400 -0.217957
N2    N     N_2   0.764203 0.438056 0.907743 -0.550990
N3    N     N_R   0.754300 0.561180 0.451130 -0.242008
N4    N     N_2   0.214164 0.515433 0.940527 -0.493016
N5    N     N_2   0.965401 0.683304 0.053026 -0.523702
N6    N     N_2   0.061676 0.899736 0.425157 -0.502629
N7    N     N_2   0.445356 0.257618 0.349620 -0.529474
N8    N     N_2   0.526626 0.843213 0.633870 -0.534614
N9    N     N_2   0.049144 0.331500 0.967275 -0.528688
N10   N     N_2   0.324047 0.549728 0.412643 -0.521618
O1    O     O_R   0.972520 0.318130 0.524690 -0.500781
O2    O     O_R   0.806530 0.359650 0.491530 -0.527206
O3    O     O_R   0.083030 0.479240 0.637150 -0.493260
O4    O     O_R   0.917040 0.520750 0.603990 -0.518010
O5    O     O_R   0.193470 0.640350 0.508470 -0.524910
O6    O     O_R   0.027480 0.681870 0.475310 -0.462925
O7    O     O_R   0.082960 0.479250 0.396010 -0.497389
O8    O     O_R   0.916970 0.520760 0.362850 -0.508838

loop_
_geom_bond_atom_site_label_1
_geom_bond_atom_site_label_2
_ccdc_geom_bond_type
C8    C13   A    
C27   C29   A    
C19   C20   A    
C18   C26   A    
C7    C8    A    
C41   H15   S    
C35   H44   S    
C43   H26   S    
C12   C23   S    
C26   C27   A    
C40   H11   S    
C45   H46   S    
C16   O6    A    
C5    C6    A    
C28   O8    A    
C46   H40   S    
C43   H27   S    
C40   H10   S    
C36   C47   T    
C15   C50   A    
C5    H22   S    
C42   N8    S    
C24   C29   A    
C38   H52   S    
Cu1   O3    S    
Cu2   O8    S    
H5    N5    S    
C38   H3    S    
Cu2   N3    S    
C22   C25   A    
C46   H42   S    
Cu1   O5    S    
H51   N4    S    
C1    O2    A    
H14   N7    S    
C44   H35   S    
C2    C16   S    
C9    C10   A    
C13   H28   S    
C44   N10   S    
C31   H34   S    
C21   C22   A    
C12   C32   S    
C31   N1    A    
H31   N10   S    
C4    O4    A    
H9    N6    S    
C33   H43   S    
C29   H38   S    
C41   H16   S    
Cu2   O2    S    
C50   H1    S    
C23   C47   S    
C11   N7    S    
Cu1   Cu2   S    
C27   H29   S    
C19   H36   S    
C45   H47   S    
C16   O5    A    
C24   N3    A    
C28   O7    A    
C40   N6    S    
C3    C5    A    
C25   C26   A    
C39   H6    S    
C33   C37   S    
C9    C14   A    
C12   H50   S    
C21   H45   S    
C34   H48   S    
C38   H2    S    
Cu1   N1    S    
C23   C34   S    
C39   H7    S    
C42   H20   S    
H24   N9    S    
C34   C45   S    
C32   C37   S    
C37   C48   S    
C2    C15   A    
C12   H4    S    
H18   N8    S    
C14   H12   S    
Cu2   O6    S    
C48   C49   T    
C18   H30   S    
C23   C35   S    
C40   H13   S    
C30   N1    A    
C32   N4    S    
Cu1   O7    S    
C22   C24   A    
C4    O3    A    
C37   C45   S    
C44   H33   S    
C10   C50   A    
C3    H23   S    
C41   H17   S    
C30   N10   S    
C25   C30   A    
C7    C9    A    
C42   H21   S    
C6    N8    S    
C33   N2    S    
C35   H49   S    
C6    C7    A    
C43   H25   S    
C20   H37   S    
C32   N9    S    
C1    C17   S    
C8    C17   A    
C44   H32   S    
C4    C49   S    
H39   N2    S    
C43   N9    S    
C11   C13   A    
C46   H41   S    
C39   H8    S    
C46   N2    S    
C42   H19   S    
C33   C35   S    
C3    C17   A    
C38   N4    S    
C2    C14   A    
Cu1   O1    S    
C15   N6    S    
C10   C11   A    
C39   N5    S    
C20   C21   A    
C28   C36   S    
C41   N7    S    
C34   N5    S    
C18   C31   A    
C1    O1    A    
C19   N3    A    
Cu2   O4    S    
