data_mof_unit_10673.cif
_audit_creation_date              2013-03-05T15:45:32-0500
_audit_creation_method            fapswitch 2.2
_symmetry_space_group_name_H-M    P1
_symmetry_Int_Tables_number       1
_space_group_crystal_system       triclinic
_cell_length_a                    10.955978
_cell_length_b                    10.943357
_cell_length_c                    18.741802
_cell_angle_alpha                 89.358348
_cell_angle_beta                  89.180854
_cell_angle_gamma                 60.113226
_cell_volume                      1947.99970171

loop_
_atom_site_label
_atom_site_type_symbol
_atom_site_description
_atom_site_fract_x
_atom_site_fract_y
_atom_site_fract_z
_atom_type_partial_charge
O1    O     O_R   0.507430 0.255570 0.581420 -0.476767
O2    O     O_R   0.280190 0.527390 0.578910 -0.431075
C1    C     C_R   0.230553 0.646834 0.608287 0.557060
O3    O     O_R   0.260310 0.739740 0.584580 -0.546693
O4    O     O_R   0.532250 0.695150 0.573830 -0.455825
C2    C     C_R   0.626686 0.586181 0.608950 0.555937
O5    O     O_R   0.744930 0.503430 0.576380 -0.422572
O6    O     O_R   0.699250 0.276390 0.571950 -0.537787
C3    C     C_R   0.626119 0.229720 0.604075 0.539376
O7    O     O_R   0.499020 0.256400 0.419850 -0.511150
O8    O     O_R   0.272400 0.528160 0.429140 -0.493201
C4    C     C_R   0.230202 0.646125 0.398146 0.557751
O9    O     O_R   0.251910 0.740570 0.423020 -0.519520
O10   O     O_R   0.524460 0.695920 0.424060 -0.500851
C5    C     C_R   0.644815 0.626312 0.393685 0.570546
O11   O     O_R   0.736530 0.504260 0.414810 -0.509871
O12   O     O_R   0.691460 0.277160 0.422180 -0.507768
C6    C     C_R   0.617699 0.230067 0.394676 0.560022
Cr1   Cr    Cr6+3 0.392930 0.397900 0.502230 1.111689
Cr2   Cr    Cr6+3 0.398240 0.708600 0.501260 1.062665
Cr3   Cr    Cr6+3 0.708800 0.393470 0.496460 1.062464
O13   O     O_3   0.499990 0.499990 0.499980 -0.309525
C7    C     C_3   0.527894 0.722893 0.803504 0.389793
C8    C     C_3   0.505476 0.679676 0.727041 -0.201869
H1    H     H_    0.468800 0.601605 0.728698 0.091940
H2    H     H_    0.419532 0.772593 0.699413 0.214099
C9    C     C_3   0.768148 0.710548 0.758037 0.072567
C10   C     C_3   0.762429 0.498405 0.801875 -0.254703
C11   C     C_3   0.692283 0.660055 0.815616 -0.071943
H3    H     H_    0.876170 0.442615 0.815757 0.210220
H4    H     H_    0.717269 0.447403 0.836132 0.169883
C12   C     C_3   0.646171 0.616962 0.683339 0.013425
C13   C     C_3   0.697165 0.728739 0.684328 0.415855
C14   C     C_3   0.748602 0.474258 0.722342 0.029170
H5    H     H_    0.699987 0.406903 0.719339 0.101588
H6    H     H_    0.878495 0.622691 0.752268 0.189444
C15   C     C_R   0.784813 0.150530 0.709686 -0.119712
H7    H     H_    0.875143 0.126838 0.676253 0.138469
C16   C     C_R   0.798586 0.143257 0.784069 -0.090544
H8    H     H_    0.900532 0.107385 0.807154 0.210317
C17   C     C_R   0.681815 0.173856 0.827728 -0.002024
C18   C     C_R   0.550610 0.222536 0.796744 -0.033272
H9    H     H_    0.458623 0.247358 0.829408 0.177067
C19   C     C_R   0.540955 0.209260 0.724649 0.220306
C20   C     C_R   0.655170 0.184720 0.679025 0.018727
C21   C     C_R   0.173733 0.553313 0.723169 0.188788
C22   C     C_R   0.175645 0.564788 0.797347 -0.133886
H10   H     H_    0.179503 0.481690 0.830820 0.171713
C23   C     C_R   0.162609 0.684839 0.829948 0.060327
C24   C     C_R   0.152909 0.796451 0.787033 0.257449
C25   C     C_R   0.146867 0.788727 0.714190 -0.071330
H11   H     H_    0.137466 0.877630 0.683563 0.178884
C26   C     C_R   0.170605 0.664807 0.680655 -0.006486
C27   C     C_R   0.804784 0.599556 0.294253 -0.110778
H12   H     H_    0.893507 0.519087 0.323592 0.155456
C28   C     C_R   0.822962 0.617602 0.222690 -0.099778
H13   H     H_    0.924550 0.551620 0.198436 0.212888
C29   C     C_R   0.709328 0.713300 0.181562 0.014675
C30   C     C_R   0.578301 0.799842 0.214255 -0.120635
H14   H     H_    0.489517 0.876464 0.183634 0.175295
C31   C     C_R   0.559262 0.781308 0.286423 -0.129552
H15   H     H_    0.455632 0.843061 0.310100 0.138865
C32   C     C_R   0.671026 0.675727 0.325707 0.021099
C33   C     C_R   0.563506 0.137274 0.290065 -0.135912
H16   H     H_    0.496364 0.110503 0.321621 0.156382
C34   C     C_R   0.559107 0.132255 0.217186 -0.155943
H17   H     H_    0.493380 0.094906 0.194603 0.161501
C35   C     C_R   0.644798 0.165519 0.174470 0.021902
C36   C     C_R   0.728132 0.215477 0.205458 0.196148
C37   C     C_R   0.730977 0.220977 0.279490 -0.116264
H18   H     H_    0.790689 0.263856 0.303735 0.174927
C38   C     C_R   0.647641 0.183428 0.321661 -0.014276
C39   C     C_R   0.223757 0.746963 0.280768 -0.073715
H19   H     H_    0.247961 0.821964 0.304601 0.168823
C40   C     C_R   0.228500 0.737758 0.207597 0.221059
C41   C     C_R   0.185181 0.650155 0.174863 -0.001178
C42   C     C_R   0.182658 0.541760 0.215405 0.175102
C43   C     C_R   0.184421 0.548060 0.289537 -0.092174
H20   H     H_    0.179649 0.466824 0.320993 0.168190
C44   C     C_R   0.198820 0.654681 0.322580 -0.068984
O14   O     O_R   0.089490 0.825610 0.930610 -0.478190
O15   O     O_R   0.818370 0.054540 0.929880 -0.466583
C45   C     C_R   0.699297 0.109332 0.898278 0.600788
O16   O     O_R   0.605870 0.077310 0.915530 -0.504298
O17   O     O_R   0.646440 0.806700 0.917570 -0.423419
C46   C     C_R   0.721010 0.684518 0.889757 0.650454
O18   O     O_R   0.837200 0.593290 0.915250 -0.513829
O19   O     O_R   0.065330 0.635370 0.931590 -0.507026
C47   C     C_R   0.115781 0.709295 0.904492 0.617278
O20   O     O_R   0.068300 0.828790 0.091860 -0.473336
O21   O     O_R   0.798730 0.057480 0.079370 -0.461428
C48   C     C_R   0.672971 0.109725 0.102973 0.561767
O22   O     O_R   0.584680 0.080480 0.076790 -0.546199
O23   O     O_R   0.626790 0.809640 0.067050 -0.490941
C49   C     C_R   0.732564 0.718386 0.105083 0.556657
O24   O     O_R   0.816010 0.596460 0.076500 -0.446828
O25   O     O_R   0.045680 0.638310 0.081070 -0.533253
C50   C     C_R   0.102848 0.703465 0.109520 0.516340
Cr4   Cr    Cr6+3 0.937620 0.938540 0.007640 1.140052
Cr5   Cr    Cr6+3 0.625150 0.937450 0.994520 1.111611
Cr6   Cr    Cr6+3 0.937990 0.625080 0.001190 1.090612
O26   O     O_3   0.833590 0.833690 0.001120 -0.297091
O27   O     O_3   0.450767 0.871801 0.807893 -0.619048
H21   H     H_    0.514602 0.911341 0.805172 0.369503
O28   O     O_3   0.883860 0.407506 0.691060 -0.593584
H22   H     H_    0.900463 0.318665 0.669024 0.350807
N1    N     N_R   0.793915 0.711238 0.624386 0.137433
O29   O     O_R   0.917929 0.601264 0.619939 -0.246709
O30   O     O_R   0.752667 0.802277 0.572152 -0.302158
O31   O     O_3   0.418955 0.216559 0.701959 -0.614661
H23   H     H_    0.441274 0.146955 0.663780 0.373981
N2    N     N_R   0.162623 0.434924 0.696331 0.155969
O32   O     O_R   0.140566 0.355692 0.740996 -0.287251
O33   O     O_R   0.170883 0.403782 0.629153 -0.218206
O34   O     O_3   0.147156 0.916249 0.813407 -0.666395
H24   H     H_    0.212739 0.888766 0.853753 0.402790
N3    N     N_R   0.470924 0.667495 0.859244 0.076476
O35   O     O_R   0.435577 0.727812 0.921466 -0.307893
O36   O     O_R   0.468953 0.550538 0.850792 -0.438559
N4    N     N_R   0.805690 0.264547 0.162820 0.092434
O37   O     O_R   0.756510 0.326958 0.101889 -0.304806
O38   O     O_R   0.916383 0.262725 0.188447 -0.316267
O39   O     O_3   0.268507 0.821120 0.169672 -0.668576
H25   H     H_    0.304215 0.777378 0.122269 0.352861
O40   O     O_3   0.180797 0.428574 0.184956 -0.687925
H26   H     H_    0.216857 0.418284 0.135314 0.348100
N5    N     N_R   0.787518 0.829992 0.775535 0.010489
O41   O     O_R   0.831928 0.835884 0.838398 -0.344575
O42   O     O_R   0.830415 0.879376 0.723703 -0.370363
O43   O     O_3   0.577765 0.864498 0.678586 -0.686913
H27   H     H_    0.610304 0.933673 0.674588 0.367622

loop_
_geom_bond_atom_site_label_1
_geom_bond_atom_site_label_2
_geom_bond_distance
_ccdc_geom_bond_type
C13   O43   1.411965 S    
C2    C12   1.481044 S    
C3    C20   1.469027 S    
Cr6   O26   1.979301 S    
C21   N2    1.455958 S    
C9    C11   1.606057 S    
C39   C40   1.374522 A    
C17   C18   1.393246 A    
C27   H12   1.083546 S    
C34   C35   1.402636 A    
C49   O24   1.299792 A    
C13   N1    1.480148 S    
C29   C49   1.457499 S    
N2    O33   1.298111 A    
O25   C50   1.283790 A    
O39   H25   0.992195 S    
C16   C17   1.402728 A    
O4    Cr2   1.965810 S    
C42   C43   1.392729 A    
C9    C13   1.556616 S    
C4    O9    1.265317 A    
O8    Cr1   1.945325 S    
O11   Cr3   2.053339 S    
C40   O39   1.380068 S    
C7    C11   1.594395 S    
C10   C11   1.560761 S    
C8    H2    1.112052 S    
C24   O34   1.377786 S    
N3    O36   1.302267 A    
O15   Cr4   1.949994 S    
O4    C2    1.303101 A    
C43   C44   1.404359 A    
C27   C32   1.399577 A    
C41   C50   1.464556 S    
C5    O11   1.269817 A    
C17   C45   1.461210 S    
C28   H13   1.076455 S    
C14   H5    1.105976 S    
C39   H19   1.082578 S    
C8    C12   1.562095 S    
C31   C32   1.404696 A    
O31   H23   0.986700 S    
O18   Cr6   2.093063 S    
C9    N5    1.466005 S    
C7    O27   1.415979 S    
C22   H10   1.082584 S    
O6    C3    1.285471 A    
C7    C8    1.574357 S    
N5    O41   1.295504 A    
C37   H18   1.083443 S    
C31   H15   1.081812 S    
O14   C47   1.259890 A    
C34   H17   1.081976 S    
C10   C14   1.539419 S    
C30   H14   1.082115 S    
Cr3   O13   1.984089 S    
N1    O30   1.302788 A    
O23   C49   1.304865 A    
C18   C19   1.371804 A    
N2    O32   1.302981 A    
N4    O38   1.301614 A    
O19   Cr6   1.939551 S    
C6    C38   1.441068 S    
C27   C28   1.379540 A    
O1    Cr1   2.063171 S    
C30   C31   1.393565 A    
C25   H11   1.084403 S    
O16   Cr5   2.052997 S    
O10   Cr2   1.944491 S    
Cr1   O13   1.982221 S    
O1    C3    1.264012 A    
C8    H1    1.110654 S    
C22   C23   1.395776 A    
C16   H8    1.077901 S    
C43   H20   1.083649 S    
C35   C36   1.410490 A    
O14   Cr4   2.074137 S    
C24   C25   1.373328 A    
C29   C30   1.402166 A    
O17   C46   1.281313 A    
O12   Cr3   1.970392 S    
C25   C26   1.401649 A    
C12   C14   1.576023 S    
C40   C41   1.412660 A    
N5    O42   1.298032 A    
C15   H7    1.081403 S    
C45   O16   1.273003 A    
O23   Cr5   1.933258 S    
O7    Cr1   2.083539 S    
N1    O29   1.292602 A    
Cr5   O26   1.985068 S    
O12   C6    1.271722 A    
C41   C42   1.413180 A    
O22   Cr5   2.089698 S    
C11   C46   1.485390 S    
Cr2   O13   1.979690 S    
C23   C24   1.414609 A    
O40   H26   0.990885 S    
C18   H9    1.085132 S    
C15   C20   1.405906 A    
C1    O3    1.285863 A    
O20   Cr4   2.071780 S    
O21   C48   1.274416 A    
C42   O40   1.378990 S    
N4    O37   1.301633 A    
C21   C22   1.398678 A    
O9    Cr2   2.083164 S    
O2    Cr1   1.962030 S    
C46   O18   1.259209 A    
C14   O28   1.406864 S    
C10   H4    1.107529 S    
C19   C20   1.417310 A    
C23   C47   1.462101 S    
O6    Cr3   1.934690 S    
C7    N3    1.480777 S    
O8    C4    1.270342 A    
C2    O5    1.300607 A    
C9    H6    1.112597 S    
O28   H22   0.989685 S    
C36   N4    1.440366 S    
C12   C13   1.578155 S    
C10   H3    1.113922 S    
O2    C1    1.267516 A    
C15   C16   1.401465 A    
O17   Cr5   1.971192 S    
O5    Cr3   2.092906 S    
N3    O35   1.301984 A    
C33   H16   1.084056 S    
C1    C26   1.470160 S    
O7    C6    1.268210 A    
C4    C44   1.453141 S    
C21   C26   1.435999 A    
C48   O22   1.266699 A    
C35   C48   1.443012 S    
C39   C44   1.399888 A    
C28   C29   1.396738 A    
O43   H27   0.986237 S    
C33   C38   1.393467 A    
C36   C37   1.390936 A    
O3    Cr2   2.066269 S    
Cr4   O26   1.985173 S    
O19   C47   1.283090 A    
O15   C45   1.283269 A    
O27   H21   0.989468 S    
C5    C32   1.458411 S    
O10   C5    1.276830 A    
C37   C38   1.404685 A    
O21   Cr4   1.955455 S    
O24   Cr6   2.056587 S    
O20   C50   1.268794 A    
O25   Cr6   1.969743 S    
O34   H24   0.986701 S    
C33   C34   1.370102 A    
C19   O31   1.372183 S    
