data_mof_unit_22097.cif
_audit_creation_date              2012-12-10T16:52:37-0500
_audit_creation_method            fapswitch 2.2
_symmetry_space_group_name_H-M    P1
_symmetry_Int_Tables_number       1
_space_group_crystal_system       triclinic
_cell_length_a                    7.827902
_cell_length_b                    8.458035
_cell_length_c                    13.785026
_cell_angle_alpha                 93.137285
_cell_angle_beta                  92.990976
_cell_angle_gamma                 94.370089
_cell_volume                      907.214280358

loop_
_atom_site_label
_atom_site_type_symbol
_atom_type_description
_atom_site_fract_x
_atom_site_fract_y
_atom_site_fract_z
_atom_type_partial_charge
C1    C     C_R   0.040603 0.792445 0.483646 0.855526
C2    C     C_R   0.936416 0.486394 0.318014 0.843906
C3    C     C_R   0.092241 0.518944 0.787175 -0.063210
C4    C     C_R   0.899859 0.453380 0.214526 -0.068656
C5    C     C_R   0.034298 0.625010 0.947038 -0.188005
C6    C     C_R   0.920511 0.284382 0.069559 -0.197688
C7    C     C_R   0.985798 0.598390 0.848575 -0.190673
C8    C     C_R   0.986738 0.341960 0.161577 -0.166966
C9    C     C_R   0.237850 0.455037 0.825116 -0.271708
C10   C     C_R   0.752732 0.511174 0.174529 -0.272568
C11   C     C_R   0.288430 0.478384 0.923628 0.087979
C12   C     C_R   0.951072 0.204708 0.488875 0.975032
C13   C     C_R   0.673467 0.442195 0.087990 0.097320
C14   C     C_R   0.188270 0.570957 0.984116 0.177922
C15   C     C_R   0.762686 0.331598 0.033106 0.169522
C16   C     C_R   0.443023 0.422693 0.961322 0.058792
C17   C     C_R   0.507631 0.479515 0.055545 0.066918
C18   C     C_2   0.208582 0.000698 0.396679 0.457268
C19   C     C_2   0.734026 0.973316 0.441310 0.418924
C20   C     C_R   0.402390 0.567764 0.115308 -0.224626
C21   C     C_R   0.534885 0.312260 0.908014 -0.224601
C22   C     C_R   0.244829 0.611389 0.080067 -0.223393
C23   C     C_R   0.691571 0.267083 0.943874 -0.219069
C24   C     C_2   0.051775 0.949416 0.447374 -0.325890
C25   C     C_2   0.916591 0.039438 0.458060 -0.208377
C26   C     C_R   0.062970 0.511004 0.682092 0.882339
H1    H     H_    0.698748 0.606033 0.215173 0.141240
H2    H     H_    0.513043 0.626591 0.572352 0.198065
H3    H     H_    0.168470 0.679843 0.127702 0.152001
H4    H     H_    0.757196 0.181063 0.901547 0.150739
H5    H     H_    0.323661 0.938566 0.406261 0.119348
H6    H     H_    0.702244 0.870421 0.391193 0.075654
H7    H     H_    0.316440 0.396505 0.774705 0.161357
H8    H     H_    0.101712 0.296100 0.192363 0.203878
H9    H     H_    0.870717 0.646743 0.819763 0.160346
H10   H     H_    0.954893 0.692372 0.993397 0.141992
H11   H     H_    0.988837 0.198692 0.028690 0.144039
H12   H     H_    0.435681 0.601096 0.190900 0.153354
H13   H     H_    0.485730 0.253389 0.839810 0.155126
H14   H     H_    0.486957 0.373526 0.427556 0.228313
N1    N     N_2   0.440860 0.456490 0.474790 -0.156262
N2    N     N_2   0.559140 0.543510 0.525210 -0.175739
O1    O     O_R   0.891570 0.738930 0.506190 -0.612757
O2    O     O_2   0.618780 0.031653 0.483674 -0.590512
O3    O     O_R   0.108430 0.261070 0.493810 -0.578533
O4    O     O_R   0.174650 0.711050 0.490030 -0.626194
O5    O     O_R   0.825350 0.288950 0.509970 -0.575224
O6    O     O_R   0.909850 0.521900 0.644940 -0.608086
O7    O     O_R   0.090150 0.478100 0.355060 -0.605287
O8    O     O_R   0.192930 0.494020 0.628780 -0.617736
O9    O     O_R   0.807070 0.505980 0.371220 -0.635178
O10   O     O_2   0.206828 0.104727 0.338661 -0.589945
Zn1   Zn    Zn3+2 0.810990 0.518620 0.510790 0.963368
Zn2   Zn    Zn3+2 0.189010 0.481380 0.489210 0.976617

loop_
_geom_bond_atom_site_label_1
_geom_bond_atom_site_label_2
_ccdc_geom_bond_type
C10   H1    S    
C2    C4    S    
C5    H10   S    
C16   C21   A    
C3    C9    A    
C22   H3    S    
C26   O6    A    
C20   H12   S    
N1    N2    D    
C21   H13   S    
C13   C17   A    
C12   C25   S    
C4    C8    A    
O4    Zn2   S    
C26   O8    A    
C15   C23   A    
C6    H11   S    
C18   O10   D    
N2    Zn1   S    
C8    H8    S    
C24   C25   D    
C9    H7    S    
N1    Zn2   S    
C9    C11   A    
C14   C22   A    
C5    C14   A    
O8    Zn2   S    
C12   O5    A    
C18   C24   S    
O5    Zn1   S    
H2    N2    S    
H14   N1    S    
C2    O7    A    
O1    Zn1   S    
C20   C22   A    
O3    Zn2   S    
C3    C7    A    
C13   C15   A    
C21   C23   A    
O6    Zn1   S    
C19   C25   S    
C11   C14   A    
C1    O4    A    
C2    O9    A    
C19   H6    S    
C4    C10   A    
O7    Zn2   S    
C23   H4    S    
C17   C20   A    
C19   O2    D    
C1    C24   S    
C11   C16   A    
C5    C7    A    
C16   C17   A    
C6    C8    A    
C18   H5    S    
C6    C15   A    
C7    H9    S    
C1    O1    A    
C3    C26   S    
C12   O3    A    
O9    Zn1   S    
C10   C13   A    
