data_mof_unit_6622.cif
_audit_creation_date              2012-12-10T17:39:05-0500
_audit_creation_method            fapswitch 2.2
_symmetry_space_group_name_H-M    P1
_symmetry_Int_Tables_number       1
_space_group_crystal_system       triclinic
_cell_length_a                    12.001393
_cell_length_b                    12.978504
_cell_length_c                    23.354749
_cell_angle_alpha                 89.831032
_cell_angle_beta                  84.051487
_cell_angle_gamma                 93.472789
_cell_volume                      3611.3509376

loop_
_atom_site_label
_atom_site_type_symbol
_atom_type_description
_atom_site_fract_x
_atom_site_fract_y
_atom_site_fract_z
_atom_type_partial_charge
C1    C     C_R   0.522637 0.700496 0.496829 0.920986
C2    C     C_R   0.477791 0.299524 0.503065 0.925202
C3    C     C_R   0.568699 0.395472 0.750187 0.037854
C4    C     C_R   0.626971 0.520132 0.235009 -0.001855
C5    C     C_R   0.538502 0.397576 0.694065 0.393880
C6    C     C_R   0.608873 0.537628 0.293960 0.427981
C7    C     C_R   0.496906 0.487602 0.672739 -0.307254
C8    C     C_R   0.507871 0.500388 0.325569 -0.324270
C9    C     C_R   0.470795 0.569699 0.710005 -0.085157
C10   C     C_R   0.417992 0.460394 0.295735 -0.098030
C11   C     C_R   0.482364 0.559257 0.768589 0.504977
C12   C     C_R   0.431035 0.458172 0.235524 0.527980
C13   C     C_R   0.537515 0.474749 0.788316 0.042159
C14   C     C_R   0.536484 0.484359 0.205278 0.030531
C15   C     C_R   0.464578 0.187903 0.506769 -0.178157
C16   C     C_R   0.537835 0.812149 0.493630 -0.181448
C17   C     C_R   0.646414 0.968324 0.511502 -0.339466
C18   C     C_R   0.354450 0.031127 0.492066 -0.331758
C19   C     C_R   0.641897 0.862249 0.503197 0.443725
C20   C     C_R   0.359762 0.136625 0.501071 0.436324
C21   C     C_R   0.445041 0.869090 0.483928 0.011247
C22   C     C_R   0.559190 0.131645 0.514183 0.010918
C23   C     C_R   0.498459 0.499038 0.610686 0.947141
C24   C     C_R   0.501717 0.500428 0.388874 0.936141
C25   C     C_R   0.450276 0.975030 0.493635 0.052934
C26   C     C_R   0.552159 0.024998 0.507002 0.044051
C27   C     C_R   0.963287 0.420890 0.438923 0.418001
C28   C     C_R   0.037600 0.574761 0.564156 0.372119
C29   C     C_R   0.846236 0.428218 0.444368 0.127043
C30   C     C_R   0.156628 0.571266 0.555949 0.138434
C31   C     C_R   0.853654 0.526482 0.529533 -0.018261
C32   C     C_R   0.145741 0.469927 0.472383 -0.057505
C33   C     C_R   0.972597 0.524251 0.524564 -0.108768
C34   C     C_R   0.027554 0.471670 0.478199 -0.152532
C35   C     C_R   0.540157 0.385591 0.117836 0.633745
C36   C     C_R   0.613118 0.552040 0.871445 0.651254
C37   C     C_R   0.568415 0.569323 0.112787 0.519985
C38   C     C_R   0.521573 0.383926 0.880103 0.565559
C39   C     C_R   0.585394 0.567384 0.052488 -0.162336
C40   C     C_R   0.545457 0.376593 0.937415 -0.186231
C41   C     C_R   0.574039 0.471133 0.024881 -0.136467
C42   C     C_R   0.578907 0.468282 0.964562 -0.149391
C43   C     C_R   0.550357 0.378798 0.057438 -0.196939
C44   C     C_R   0.611505 0.558288 0.931460 -0.193951
C45   C     C_R   0.610582 0.658682 0.018992 0.398077
C46   C     C_R   0.531343 0.282403 0.968844 0.407706
C47   C     C_R   0.634926 0.652368 0.959096 0.368934
C48   C     C_R   0.535630 0.283331 0.028735 0.395850
H1    H     H_    0.188761 0.427163 0.438167 0.182464
H2    H     H_    0.810119 0.567462 0.564464 0.201483
H3    H     H_    0.724115 0.005268 0.522597 0.133946
H4    H     H_    0.274112 0.994491 0.484368 0.146854
N1    N     N_R   0.549788 0.479384 0.143723 -0.329609
N2    N     N_R   0.559820 0.469212 0.847542 -0.330895
N3    N     N_R   0.207800 0.519350 0.510590 -0.119409
N4    N     N_R   0.792200 0.480650 0.489410 -0.142667
O1    O     O_R   0.421690 0.658830 0.502820 -0.591823
O2    O     O_R   0.578310 0.341170 0.497180 -0.612487
O3    O     O_R   0.609320 0.646410 0.496030 -0.572855
O4    O     O_R   0.390680 0.353590 0.503970 -0.584197
O5    O     O_R   0.406170 0.506240 0.587240 -0.621117
O6    O     O_R   0.593830 0.493760 0.412760 -0.603396
O7    O     O_R   0.593790 0.493820 0.580450 -0.593275
O8    O     O_R   0.406210 0.506180 0.419550 -0.641746
O9    O     O_2   0.518925 0.299990 0.150932 -0.508872
O10   O     O_2   0.663800 0.628764 0.837244 -0.492614
O11   O     O_2   0.569557 0.660037 0.140854 -0.584736
O12   O     O_2   0.457294 0.308474 0.857780 -0.537807
Zn1   Zn    Zn3+2 0.374720 0.508290 0.504530 0.958461
Zn2   Zn    Zn3+2 0.625280 0.491710 0.495470 0.985139
O13   O     O_3   0.613686 0.755231 0.044052 -0.579661
C49   C     C_3   0.504514 0.792813 0.049820 0.183673
H5    H     H_    0.491327 0.829376 0.092665 0.179016
H6    H     H_    0.434890 0.731877 0.048650 0.103401
C50   C     C_3   0.494532 0.874776 0.004096 -0.833864
H7    H     H_    0.488252 0.838187 0.961627 0.272916
H8    H     H_    0.417621 0.916948 0.015397 0.226422
H9    H     H_    0.568653 0.930740 0.001220 0.272892
O14   O     O_3   0.506206 0.189316 0.942593 -0.539799
C51   C     C_3   0.602695 0.157599 0.908625 0.125421
H10   H     H_    0.665698 0.132069 0.936245 0.090313
H11   H     H_    0.644004 0.219779 0.879540 0.142491
C52   C     C_3   0.568957 0.067484 0.871282 -0.742020
H12   H     H_    0.529865 0.002382 0.898697 0.262070
H13   H     H_    0.507997 0.091726 0.841965 0.267838
H14   H     H_    0.644193 0.041055 0.845016 0.195881
N5    N     N_3   0.224674 0.618200 0.596368 -0.400993
H15   H     H_    0.223200 0.698299 0.592829 0.143883
H16   H     H_    0.191632 0.594367 0.637803 0.181982
N6    N     N_3   0.787117 0.382060 0.399999 -0.431069
H17   H     H_    0.767602 0.439842 0.372323 0.260556
H18   H     H_    0.715950 0.338770 0.417507 0.216849
O15   O     O_3   0.014995 0.373494 0.391098 -0.598717
C53   C     C_3   0.019447 0.267303 0.403336 0.066624
H19   H     H_    0.935358 0.231327 0.419669 0.132251
H20   H     H_    0.079614 0.255616 0.435528 0.169423
C54   C     C_3   0.060407 0.212134 0.348502 -0.754036
H21   H     H_    0.145180 0.244674 0.331581 0.270983
H22   H     H_    0.064996 0.128577 0.357691 0.194393
H23   H     H_    0.001557 0.221508 0.315415 0.258264
O16   O     O_3   0.983626 0.613415 0.614329 -0.616150
C55   C     C_3   0.001876 0.721950 0.617421 0.051600
H24   H     H_    0.041503 0.759647 0.576737 0.106994
H25   H     H_    0.057428 0.740325 0.651671 0.158645
C56   C     C_3   0.890358 0.769247 0.634338 -0.781291
H26   H     H_    0.853193 0.738917 0.677064 0.269357
H27   H     H_    0.903474 0.854510 0.636636 0.198614
H28   H     H_    0.831061 0.749863 0.602039 0.283136
O17   O     O_3   0.662672 0.742119 0.927387 -0.553596
C57   C     C_3   0.777972 0.769139 0.929036 0.181765
H29   H     H_    0.829843 0.708580 0.908165 0.135377
H30   H     H_    0.799157 0.780339 0.974008 0.147171
C58   C     C_3   0.807559 0.870228 0.896331 -0.807696
H31   H     H_    0.758513 0.932464 0.917059 0.244342
H32   H     H_    0.898436 0.891916 0.896587 0.197080
H33   H     H_    0.788089 0.861837 0.851048 0.275246
O18   O     O_3   0.511503 0.191725 0.059318 -0.535536
C59   C     C_3   0.612916 0.147942 0.069326 0.149346
H34   H     H_    0.677052 0.206203 0.082824 0.118674
H35   H     H_    0.648486 0.109214 0.030053 0.112947
C60   C     C_3   0.589021 0.066655 0.116810 -0.728347
H36   H     H_    0.519929 0.011369 0.106633 0.249306
H37   H     H_    0.665304 0.023960 0.120826 0.197332
H38   H     H_    0.564011 0.103573 0.158584 0.276847
N7    N     N_3   0.632691 0.313877 0.768426 -0.428169
H39   H     H_    0.707049 0.313170 0.740853 0.203443
H40   H     H_    0.587203 0.243624 0.764181 0.229126
N8    N     N_3   0.738325 0.537996 0.206481 -0.414313
H41   H     H_    0.759747 0.471758 0.183531 0.183735
H42   H     H_    0.740626 0.599611 0.177551 0.222774
O19   O     O_3   0.550184 0.310646 0.660319 -0.602151
C61   C     C_3   0.443881 0.255974 0.661179 0.103291
H43   H     H_    0.408013 0.271487 0.620363 0.148363
H44   H     H_    0.380891 0.277203 0.697268 0.130312
C62   C     C_3   0.457205 0.140533 0.666687 -0.834363
H45   H     H_    0.484140 0.122346 0.709422 0.247341
H46   H     H_    0.375804 0.097387 0.662367 0.202595
H47   H     H_    0.520464 0.114570 0.632838 0.264464
O20   O     O_3   0.688240 0.596547 0.320394 -0.586795
C63   C     C_3   0.669700 0.701568 0.310801 0.130241
H48   H     H_    0.579892 0.718237 0.322087 0.120605
H49   H     H_    0.695324 0.723634 0.265017 0.171885
C64   C     C_3   0.739034 0.768704 0.348384 -0.845433
H50   H     H_    0.829478 0.755290 0.338500 0.262521
H51   H     H_    0.726042 0.851381 0.340660 0.203744
H52   H     H_    0.711649 0.749444 0.394116 0.279435
N9    N     N_3   0.436938 0.665701 0.689232 -0.398452
H53   H     H_    0.497895 0.694555 0.656988 0.191026
H54   H     H_    0.361724 0.651606 0.671335 0.192458
N10   N     N_3   0.312833 0.421691 0.324925 -0.392587
H55   H     H_    0.273711 0.482930 0.345844 0.214197
H56   H     H_    0.327454 0.365365 0.354893 0.206906
O21   O     O_3   0.450554 0.637726 0.805543 -0.546125
C65   C     C_3   0.344203 0.609183 0.834700 0.090686
H57   H     H_    0.341125 0.530495 0.854332 0.135020
H58   H     H_    0.278444 0.611657 0.804499 0.143787
C66   C     C_3   0.318498 0.685131 0.883055 -0.790854
H59   H     H_    0.319971 0.764737 0.865291 0.264011
H60   H     H_    0.234117 0.664763 0.905806 0.197044
H61   H     H_    0.382022 0.682245 0.914323 0.253323
O22   O     O_3   0.342420 0.422499 0.206104 -0.554304
C67   C     C_3   0.280741 0.507269 0.193218 0.096277
H62   H     H_    0.334854 0.567368 0.167655 0.137426
H63   H     H_    0.242120 0.542279 0.233431 0.151054
C68   C     C_3   0.187270 0.470148 0.157633 -0.777856
H64   H     H_    0.130541 0.411060 0.182194 0.268079
H65   H     H_    0.137899 0.536135 0.147262 0.197761
H66   H     H_    0.223557 0.435940 0.116842 0.257243
N11   N     N_3   0.661501 0.183583 0.529408 -0.398148
H67   H     H_    0.682488 0.153803 0.568234 0.197446
H68   H     H_    0.726159 0.173743 0.496631 0.168209
N12   N     N_3   0.347027 0.818600 0.463151 -0.426642
H69   H     H_    0.278418 0.822963 0.494343 0.178066
H70   H     H_    0.330686 0.854863 0.425125 0.182495
O23   O     O_3   0.263187 0.190301 0.502115 -0.600380
C69   C     C_3   0.192625 0.164348 0.553184 0.085495
H71   H     H_    0.240558 0.149528 0.590590 0.122877
H72   H     H_    0.137822 0.094459 0.545875 0.133328
C70   C     C_3   0.118861 0.253115 0.569738 -0.816835
H73   H     H_    0.063198 0.266834 0.535837 0.233556
H74   H     H_    0.065719 0.234041 0.610618 0.204705
H75   H     H_    0.171970 0.324469 0.575942 0.268361
O24   O     O_3   0.734902 0.805157 0.509120 -0.601570
C71   C     C_3   0.834553 0.851976 0.479670 0.074127
H76   H     H_    0.875775 0.906310 0.508820 0.140659
H77   H     H_    0.818862 0.894321 0.439944 0.140576
C72   C     C_3   0.915730 0.769467 0.461911 -0.832721
H78   H     H_    0.875747 0.708847 0.436128 0.274332
H79   H     H_    0.991490 0.804834 0.436197 0.202413
H80   H     H_    0.941609 0.732578 0.500564 0.250531

loop_
_geom_bond_atom_site_label_1
_geom_bond_atom_site_label_2
_ccdc_geom_bond_type
C62   H47   S    
N5    H15   S    
C68   H64   S    
C45   O13   S    
C41   C43   A    
C41   C42   A    
N9    H53   S    
C63   C64   S    
C50   H7    S    
N8    H41   S    
C17   H3    S    
C59   H35   S    
O22   C67   S    
C18   H4    S    
C62   H45   S    
C39   C41   A    
C40   C46   A    
C56   H27   S    
O15   C53   S    
C17   C26   A    
N9    H54   S    
C63   H49   S    
C67   H62   S    
C1    O3    A    
C46   O14   S    
C51   H10   S    
C36   O10   S    
C20   O23   S    
C35   N1    A    
C35   O9    S    
C64   H50   S    
C71   H76   S    
O6    Zn2   S    
C55   C56   S    
C64   H51   S    
N11   H67   S    
C45   C47   A    
C6    O20   S    
C59   H34   S    
C72   H80   S    
C17   C19   A    
C12   O22   S    
C57   H29   S    
C28   O16   S    
C69   C70   S    
C52   H12   S    
C61   H43   S    
C60   H38   S    
C31   C33   A    
C31   N4    A    
C35   C43   A    
C43   C48   A    
C32   N3    A    
C65   H58   S    
C3    C13   A    
C44   C47   A    
C39   C45   A    
C58   H33   S    
C37   N1    A    
C23   O7    A    
C68   H65   S    
C66   H59   S    
N11   H68   S    
C53   H19   S    
C18   C25   A    
C42   C44   A    
C49   C50   S    
C29   N6    S    
C54   H22   S    
N12   H70   S    
C54   H21   S    
C67   H63   S    
C15   C22   A    
C27   C34   A    
C15   C20   A    
C56   H28   S    
C46   C48   A    
C72   H79   S    
C4    N8    S    
O16   C55   S    
C61   C62   S    
C36   N2    A    
C63   H48   S    
C65   C66   S    
C49   H6    S    
C64   H52   S    
C19   O24   S    
C5    C7    A    
O2    Zn2   S    
C6    C8    A    
C53   C54   S    
C25   C26   A    
C47   O17   S    
C9    N9    S    
C70   H73   S    
C58   H32   S    
C59   C60   S    
C32   C34   A    
C66   H60   S    
C55   H25   S    
O24   C71   S    
C1    O1    A    
C67   C68   S    
C50   H8    S    
N6    H18   S    
O23   C69   S    
C38   N2    A    
O7    Zn2   S    
C23   O5    A    
C52   H14   S    
C2    O2    A    
C33   C34   A    
C60   H36   S    
C1    C16   S    
O8    Zn1   S    
C53   H20   S    
C2    C15   S    
C9    C11   A    
C57   C58   S    
C65   H57   S    
N3    Zn1   S    
C10   C12   A    
C61   H44   S    
C4    C6    A    
C69   H71   S    
C52   H13   S    
C38   O12   S    
C28   C33   A    
C68   H66   S    
N4    Zn2   S    
N5    H16   S    
N7    H39   S    
N10   H56   S    
C36   C44   A    
C31   H2    S    
O19   C61   S    
C54   H23   S    
N12   H69   S    
C51   C52   S    
C58   H31   S    
C56   H26   S    
O5    Zn1   S    
C62   H46   S    
C21   C25   A    
C24   O6    A    
C8    C10   A    
C12   C14   A    
C49   H5    S    
C3    C5    A    
N8    H42   S    
C18   C20   A    
O20   C63   S    
C3    N7    S    
C16   C21   A    
C48   O18   S    
C29   N4    A    
C66   H61   S    
C21   N12   S    
C30   N3    A    
C13   N2    S    
C71   C72   S    
C70   H75   S    
C28   C30   A    
C30   N5    S    
O13   C49   S    
C37   C39   A    
O17   C57   S    
C10   N10   S    
C38   C40   A    
C11   C13   A    
N6    H17   S    
C27   C29   A    
O4    Zn1   S    
C16   C19   A    
C7    C23   S    
C37   O11   S    
C40   C42   A    
C8    C24   S    
C51   H11   S    
C71   H77   S    
C2    O4    A    
C4    C14   A    
C55   H24   S    
C50   H9    S    
C57   H30   S    
C32   H1    S    
C60   H37   S    
C22   N11   S    
C27   O15   S    
C11   O21   S    
O3    Zn2   S    
O14   C51   S    
C7    C9    A    
C5    O19   S    
C14   N1    S    
C24   O8    A    
C22   C26   A    
N7    H40   S    
N10   H55   S    
C72   H78   S    
O1    Zn1   S    
O21   C65   S    
O18   C59   S    
C69   H72   S    
C70   H74   S    
