data_mof_unit_18312.cif
_audit_creation_date              2013-03-05T15:58:55-0500
_audit_creation_method            fapswitch 2.2
_symmetry_space_group_name_H-M    P1
_symmetry_Int_Tables_number       1
_space_group_crystal_system       triclinic
_cell_length_a                    10.630913
_cell_length_b                    12.595187
_cell_length_c                    13.091274
_cell_angle_alpha                 82.149118
_cell_angle_beta                  90.360411
_cell_angle_gamma                 102.518427
_cell_volume                      1694.69471829

loop_
_atom_site_label
_atom_site_type_symbol
_atom_site_description
_atom_site_fract_x
_atom_site_fract_y
_atom_site_fract_z
_atom_type_partial_charge
O1    O     O_R   0.468120 0.366740 0.627160 -0.575820
O2    O     O_R   0.510770 0.544830 0.662520 -0.594618
C1    C     C_R   0.487124 0.438207 0.691713 0.930974
O3    O     O_R   0.663880 0.410950 0.482330 -0.632390
O4    O     O_R   0.706530 0.589040 0.517700 -0.635371
C2    C     C_R   0.741814 0.499909 0.501242 0.827431
Zn1   Zn    Zn3+2 0.471520 0.381090 0.476390 0.984783
Zn2   Zn    Zn3+2 0.528480 0.618910 0.523610 0.955297
O5    O     O_R   0.489230 0.455170 0.337480 -0.617919
O6    O     O_R   0.531880 0.633260 0.372840 -0.635099
O7    O     O_R   0.293470 0.410960 0.482300 -0.600692
O8    O     O_R   0.336120 0.589050 0.517670 -0.640099
C3    C     C_R   0.516315 0.561307 0.308668 0.876114
C4    C     C_R   0.257969 0.498787 0.501494 0.879566
C5    C     C_3   0.898170 0.381397 0.495162 -0.375308
H1    H     H_    0.854116 0.351536 0.424035 0.194688
H2    H     H_    0.850942 0.322937 0.562590 0.197270
C6    C     C_3   0.040860 0.381298 0.491853 -0.338867
H3    H     H_    0.062572 0.318155 0.553267 0.248823
H4    H     H_    0.065278 0.357318 0.416804 0.185144
H5    H     H_    0.906088 0.554515 0.336401 0.182152
C7    C     C_3   0.948013 0.579324 0.409959 -0.372208
C8    C     C_3   0.936186 0.535095 0.604767 -0.471071
C9    C     C_3   0.878354 0.499163 0.502785 0.111888
H6    H     H_    0.923148 0.619081 0.612339 0.164294
C10   C     C_3   0.120971 0.497499 0.503309 0.025899
C11   C     C_3   0.092352 0.578763 0.410379 -0.478158
C12   C     C_3   0.081496 0.535676 0.605094 0.186079
H7    H     H_    0.134229 0.622386 0.605827 0.129021
H8    H     H_    0.935324 0.664129 0.413975 0.197352
H9    H     H_    0.148852 0.663369 0.414928 0.185833
C13   C     C_R   0.690422 0.706358 0.063999 0.311006
H10   H     H_    0.682292 0.746759 0.218451 0.199616
H11   H     H_    0.785560 0.692769 0.874151 0.191237
C14   C     C_R   0.544830 0.598025 0.199910 -0.115468
C15   C     C_R   0.395048 0.296192 0.841937 0.321910
C16   C     C_R   0.374314 0.269123 0.948160 -0.110314
C17   C     C_R   0.424362 0.344679 0.013810 -0.230984
C18   C     C_R   0.504553 0.447265 0.974959 0.116653
C19   C     C_R   0.545574 0.465605 0.871144 0.073968
C20   C     C_R   0.546861 0.531663 0.036214 0.073129
C21   C     C_R   0.646400 0.624318 0.999714 0.038491
C22   C     C_R   0.702788 0.629259 0.902360 -0.168768
C23   C     C_R   0.652520 0.551534 0.838796 -0.182304
C24   C     C_R   0.490821 0.526114 0.132818 -0.229325
C25   C     C_R   0.642031 0.689826 0.165639 -0.250515
C26   C     C_R   0.478730 0.397394 0.802369 -0.237990
H12   H     H_    0.407950 0.462496 0.160213 0.155024
H13   H     H_    0.401975 0.319263 0.094953 0.170785
H14   H     H_    0.312830 0.191348 0.979805 0.228903
H15   H     H_    0.699712 0.558081 0.764511 0.138961
C27   C     C_R   0.330005 0.092741 0.337760 0.218871
H16   H     H_    0.294273 0.878622 0.314202 0.208057
N1    N     N_R   0.433240 0.222190 0.444680 -0.120127
C28   C     C_R   0.652915 0.800079 0.629413 0.031982
C29   C     C_R   0.684637 0.904907 0.657090 -0.185178
C30   C     C_R   0.626917 0.986304 0.607455 -0.160234
C31   C     C_R   0.537051 0.963018 0.528926 0.041524
C32   C     C_R   0.508827 0.854894 0.503380 0.243052
C33   C     C_R   0.475097 0.042378 0.474617 -0.040220
C34   C     C_R   0.389464 0.013401 0.393541 0.053492
C35   C     C_R   0.362801 0.905459 0.371785 -0.200666
C36   C     C_R   0.422147 0.828297 0.425293 -0.221612
C37   C     C_R   0.494353 0.149984 0.498000 -0.009570
C38   C     C_R   0.352754 0.197121 0.366946 -0.068180
N2    N     N_R   0.566070 0.776970 0.554790 -0.131249
H17   H     H_    0.698097 0.736742 0.667080 0.131244
H18   H     H_    0.655756 0.066293 0.631526 0.152280
H19   H     H_    0.754044 0.923156 0.716572 0.204645
H20   H     H_    0.398386 0.748092 0.403283 0.209471
N3    N     N_R   0.785023 0.804682 0.028674 0.210403
O9    O     O_R   0.771763 0.862235 0.940415 -0.382191
O10   O     O_R   0.870257 0.847311 0.091892 -0.335233
N4    N     N_R   0.328726 0.220758 0.776452 0.218964
O11   O     O_R   0.331452 0.117214 0.796352 -0.359460
O12   O     O_R   0.245552 0.250296 0.711425 -0.321098
H21   H     H_    0.309537 0.260189 0.325710 0.159181
N5    N     N_R   0.250695 0.070537 0.250526 0.195904
O13   O     O_R   0.293340 0.028838 0.175586 -0.371768
O14   O     O_R   0.148819 0.111812 0.236148 -0.369059
H22   H     H_    0.556792 0.179443 0.557812 0.135426
H23   H     H_    0.120925 0.554706 0.336611 0.190611
H24   H     H_    0.883788 0.479377 0.671656 0.196497
N6    N     N_R   0.115593 0.469447 0.698145 0.213624
O15   O     O_R   0.206648 0.513161 0.756244 -0.374883
O16   O     O_R   0.049088 0.370611 0.728445 -0.353501

loop_
_geom_bond_atom_site_label_1
_geom_bond_atom_site_label_2
_geom_bond_distance
_ccdc_geom_bond_type
C5    C6    1.518096 S    
C28   C29   1.387223 A    
Zn2   N2    2.040746 S    
C12   N6    1.469370 S    
C20   C21   1.424315 A    
C6    C10   1.551725 S    
C18   C20   1.412940 A    
N1    C38   1.351703 A    
C15   N4    1.435010 S    
Zn1   O7    2.012175 S    
C10   C11   1.552544 S    
C35   C36   1.381135 A    
N4    O12   1.300592 A    
C15   C16   1.392965 A    
N6    O16   1.301532 A    
C3    C14   1.448346 S    
C27   C34   1.414244 A    
C32   N2    1.363776 A    
O4    C2    1.302710 A    
O7    C4    1.298983 A    
N5    O14   1.301326 A    
C31   C33   1.422585 A    
C5    H1    1.114294 S    
C29   C30   1.391229 A    
C15   C26   1.420673 A    
Zn1   O5    1.917712 S    
C6    H3    1.111188 S    
O5    C3    1.307287 A    
C8    C9    1.548990 S    
H5    C7    1.113567 S    
H10   C25   1.083547 S    
C13   C25   1.401778 A    
O3    Zn1   2.000486 S    
C27   N5    1.437420 S    
C13   N3    1.438207 S    
C38   H21   1.082332 S    
N4    O11   1.301155 A    
C11   H9    1.113242 S    
N6    O15   1.301058 A    
O3    C2    1.293795 A    
C18   C19   1.403075 A    
C17   H13   1.079253 S    
N5    O13   1.301323 A    
C31   C32   1.415096 A    
C19   C26   1.411497 A    
C33   C34   1.427629 A    
O1    C1    1.300799 A    
C22   C23   1.388008 A    
C16   C17   1.387625 A    
H16   C35   1.081293 S    
C36   H20   1.065510 S    
Zn2   O8    2.000486 S    
C2    C9    1.453611 S    
C8    C12   1.543187 S    
C4    C10   1.453297 S    
C8    H24   1.112819 S    
C23   H15   1.081903 S    
C5    C9    1.559049 S    
O8    C4    1.296799 A    
C7    C11   1.535967 S    
C7    C9    1.548065 S    
C21   C22   1.399747 A    
C30   H18   1.076989 S    
C14   C24   1.380953 A    
C28   N2    1.356943 A    
N3    O10   1.302046 A    
C24   H12   1.079932 S    
C5    H2    1.114085 S    
C12   H7    1.115566 S    
C20   C24   1.387976 A    
C7    H8    1.113454 S    
O1    Zn1   1.957130 S    
C32   C36   1.397937 A    
C11   H23   1.113652 S    
O2    Zn2   1.917712 S    
H11   C22   1.081108 S    
O6    C3    1.302183 A    
O4    Zn2   2.012176 S    
C28   H17   1.079779 S    
C10   C12   1.566022 S    
C33   C37   1.401709 A    
O2    C1    1.314293 A    
N3    O9    1.301445 A    
C16   H14   1.083250 S    
C30   C31   1.415682 A    
C17   C18   1.415402 A    
N1    C37   1.346644 A    
C1    C26   1.465963 S    
C6    H4    1.114523 S    
C8    H6    1.113732 S    
C34   C35   1.395549 A    
C37   H22   1.075848 S    
C19   C23   1.410930 A    
Zn2   O6    1.957128 S    
C29   H19   1.082489 S    
C13   C21   1.420551 A    
Zn1   N1    2.053098 S    
C14   C25   1.397194 A    
C27   C38   1.389646 A    
