data_mof_unit_58351.cif
_audit_creation_date              2013-03-05T15:48:53-0500
_audit_creation_method            fapswitch 2.2
_symmetry_space_group_name_H-M    P1
_symmetry_Int_Tables_number       1
_space_group_crystal_system       triclinic
_cell_length_a                    15.892369
_cell_length_b                    13.022196
_cell_length_c                    11.784653
_cell_angle_alpha                 99.830825
_cell_angle_beta                  93.300859
_cell_angle_gamma                 91.761153
_cell_volume                      2397.0362325

loop_
_atom_site_label
_atom_site_type_symbol
_atom_site_description
_atom_site_fract_x
_atom_site_fract_y
_atom_site_fract_z
_atom_type_partial_charge
O1    O     O_R   0.504390 0.354460 0.582000 -0.504827
O2    O     O_R   0.493940 0.341410 0.386200 -0.609053
C1    C     C_R   0.500496 0.299452 0.478755 0.868506
O3    O     O_R   0.384660 0.506540 0.597940 -0.544426
O4    O     O_R   0.374210 0.493480 0.402140 -0.579357
C2    C     C_R   0.340513 0.499667 0.500543 0.814528
Cu1   Cu    Cu3+1 0.506190 0.507730 0.615930 1.110631
Cu2   Cu    Cu3+1 0.493810 0.492270 0.384070 0.994212
O5    O     O_R   0.506060 0.658590 0.613800 -0.563900
O6    O     O_R   0.495610 0.645540 0.418000 -0.577530
O7    O     O_R   0.625790 0.506520 0.597860 -0.517377
O8    O     O_R   0.615340 0.493460 0.402060 -0.575887
C3    C     C_R   0.500504 0.700538 0.521358 0.808875
C4    C     C_R   0.659475 0.499987 0.499390 0.834867
C5    C     C_3   0.047543 0.391282 0.541878 0.413660
C6    C     C_3   0.044374 0.493360 0.365487 0.422473
C7    C     C_3   0.944233 0.494166 0.370497 0.011403
H1    H     H_    0.919611 0.331817 0.466069 0.163706
H2    H     H_    0.917260 0.417637 0.324327 0.139624
C8    C     C_1   0.748749 0.499378 0.498270 -0.013077
C9    C     C_3   0.083016 0.490756 0.493405 -0.223896
C10   C     C_3   0.947092 0.394029 0.535580 -0.066834
C11   C     C_3   0.916553 0.498298 0.497943 -0.195846
C12   C     C_3   0.960489 0.592970 0.583297 0.222274
C13   C     C_3   0.057434 0.592458 0.572228 -0.495229
C14   C     C_1   0.824128 0.499018 0.498168 0.177988
C15   C     C_1   0.175622 0.494434 0.498327 0.176951
C16   C     C_1   0.251147 0.497463 0.500881 -0.001083
H3    H     H_    0.090331 0.602319 0.659233 0.232151
H4    H     H_    0.082463 0.661652 0.540631 0.262421
H5    H     H_    0.950537 0.581578 0.672709 0.210475
C17   C     C_R   0.503238 0.813839 0.533546 -0.061502
C18   C     C_R   0.500272 0.185856 0.466842 -0.188290
C19   C     C_R   0.457049 0.016106 0.352662 0.272046
C20   C     C_R   0.464406 0.125016 0.365031 -0.240885
C21   C     C_R   0.532054 0.138399 0.558206 0.292179
C22   C     C_R   0.521339 0.030254 0.550141 0.013129
C23   C     C_R   0.484262 0.968755 0.447044 0.062830
C24   C     C_R   0.475230 0.860616 0.440824 -0.217321
C25   C     C_R   0.536876 0.875313 0.635755 -0.145123
C26   C     C_R   0.547270 0.982111 0.643503 -0.101689
H6    H     H_    0.445879 0.811871 0.364390 0.171448
H7    H     H_    0.556678 0.841129 0.709535 0.211470
H8    H     H_    0.575778 0.026050 0.723340 0.202856
H9    H     H_    0.442117 0.163553 0.295389 0.180469
N1    N     N_R   0.515490 0.519350 0.790130 -0.298662
N2    N     N_R   0.484510 0.480650 0.209890 -0.207049
C27   C     C_R   0.407834 0.414044 0.028186 0.160279
C28   C     C_R   0.419359 0.422574 0.148885 -0.026927
C29   C     C_R   0.541909 0.531739 0.154433 0.433850
C30   C     C_R   0.534116 0.524230 0.032040 -0.132817
C31   C     C_R   0.464726 0.468526 0.967494 -0.072506
C32   C     C_R   0.455550 0.469496 0.845352 0.462465
C33   C     C_R   0.585078 0.567996 0.854109 0.482097
C34   C     C_R   0.594426 0.571192 0.973298 -0.307000
H10   H     H_    0.650654 0.610259 0.018670 0.202058
H11   H     H_    0.375794 0.381335 0.194234 0.166619
N3    N     N_R   0.081306 0.394200 0.663160 0.170896
O9    O     O_R   0.055885 0.460909 0.748240 -0.295829
O10   O     O_R   0.131663 0.323361 0.688852 -0.197542
N4    N     N_R   0.911219 0.368390 0.640704 0.193187
O11   O     O_R   0.867563 0.433746 0.707383 -0.257786
O12   O     O_R   0.919376 0.274996 0.664234 -0.201526
N5    N     N_R   0.923759 0.693840 0.573018 0.193948
O13   O     O_R   0.849796 0.713632 0.611517 -0.268823
O14   O     O_R   0.967676 0.769717 0.543035 -0.227013
N6    N     N_2   0.423757 0.953074 0.246851 -0.425849
H12   H     H_    0.463272 0.896466 0.211747 0.244062
C35   C     C_3   0.376264 0.000074 0.161930 -0.592041
H13   H     H_    0.345821 0.937689 0.094774 0.246565
H14   H     H_    0.418996 0.048664 0.119401 0.204237
H15   H     H_    0.325831 0.047783 0.202924 0.257737
N7    N     N_R   0.578242 0.199298 0.656668 0.131681
O15   O     O_R   0.650050 0.245480 0.644191 -0.301624
O16   O     O_R   0.545356 0.215909 0.756415 -0.356572
N8    N     N_R   0.381203 0.422510 0.780896 0.163397
O17   O     O_R   0.381863 0.328180 0.722973 -0.300376
O18   O     O_R   0.309731 0.467947 0.794028 -0.308783
N9    N     N_R   0.075231 0.293416 0.471415 0.154508
O19   O     O_R   0.155320 0.276148 0.465956 -0.262728
O20   O     O_R   0.022240 0.216300 0.429028 -0.270606
N10   N     N_R   0.651750 0.614668 0.801656 0.151722
O21   O     O_R   0.641270 0.703717 0.768510 -0.359003
O22   O     O_R   0.728054 0.583050 0.814480 -0.259681
N11   N     N_2   0.340303 0.347919 0.970115 -0.354874
H16   H     H_    0.283664 0.361534 0.007500 0.302365
C36   C     C_3   0.358207 0.238266 0.951410 -0.508773
H17   H     H_    0.305567 0.193010 0.897405 0.263805
H18   H     H_    0.364903 0.209931 0.035123 0.172852
H19   H     H_    0.417134 0.224724 0.905749 0.264392
N12   N     N_2   0.609316 0.592267 0.220978 -0.387256
H20   H     H_    0.668736 0.567166 0.202634 0.269912
C37   C     C_3   0.602627 0.704528 0.237265 -0.573501
H21   H     H_    0.644027 0.738622 0.179425 0.223347
H22   H     H_    0.623636 0.738664 0.327604 0.253173
H23   H     H_    0.536733 0.726552 0.219868 0.199681
N13   N     N_R   0.079247 0.586618 0.323824 0.160964
O23   O     O_R   0.147785 0.580259 0.267991 -0.276236
O24   O     O_R   0.046726 0.677717 0.347519 -0.244079
N14   N     N_R   0.067075 0.400193 0.282989 0.141631
O25   O     O_R   0.145303 0.373610 0.279312 -0.284030
O26   O     O_R   0.017243 0.365167 0.192070 -0.250893
N15   N     N_R   0.904853 0.569227 0.305205 0.190868
O27   O     O_R   0.857459 0.642134 0.352490 -0.274291
O28   O     O_R   0.911002 0.556135 0.194053 -0.225660

loop_
_geom_bond_atom_site_label_1
_geom_bond_atom_site_label_2
_geom_bond_distance
_ccdc_geom_bond_type
C34   H10   1.080452 S    
C37   H21   1.109799 S    
N7    O15   1.301150 A    
C3    C17   1.456833 S    
C36   H17   1.110195 S    
N13   O23   1.302181 A    
Cu1   Cu2   2.700556 S    
N2    C28   1.356965 A    
N11   H16   1.031787 S    
Cu1   O7    1.925011 S    
C7    C11   1.581796 S    
C21   C22   1.399642 A    
N8    O18   1.301731 A    
O1    Cu1   1.966474 S    
C23   C24   1.400060 A    
O7    C4    1.296559 A    
C6    N13   1.488841 S    
C11   C14   1.469326 S    
C1    C18   1.461737 S    
N3    O10   1.302299 A    
C18   C21   1.407147 A    
C28   H11   1.082180 S    
N4    O12   1.301356 A    
C19   C20   1.401290 A    
C17   C24   1.396816 A    
C35   H14   1.110781 S    
O5    C3    1.299267 A    
C7    H2    1.111176 S    
C5    C10   1.595642 S    
C5    N9    1.490798 S    
C6    C7    1.596255 S    
C11   C12   1.569055 S    
N2    C29   1.371753 A    
C9    C15   1.468523 S    
C37   H22   1.109423 S    
C19   C23   1.414046 A    
N7    O16   1.300981 A    
N4    O11   1.301489 A    
O3    Cu1   1.930123 S    
N13   O24   1.301396 A    
C24   H6    1.081671 S    
N11   C36   1.446787 S    
C13   H3    1.109179 S    
C2    C16   1.419896 S    
N6    H12   1.031095 S    
Cu1   N1    2.028964 S    
C4    C8    1.419836 S    
N8    O17   1.300108 A    
O3    C2    1.298465 A    
N12   H20   1.031346 S    
N9    O20   1.302098 A    
C6    N14   1.487217 S    
N3    O9    1.301510 A    
C30   C31   1.409497 A    
O1    C1    1.299356 A    
N5    O14   1.301355 A    
C35   H15   1.111075 S    
C22   C23   1.421616 A    
N12   C37   1.449595 S    
C27   C31   1.428547 A    
Cu2   O8    1.930122 S    
C26   H8    1.081207 S    
N1    C33   1.375007 A    
N14   O26   1.302476 A    
C29   C30   1.426819 A    
N15   O28   1.301512 A    
C12   C13   1.553784 S    
Cu2   O6    1.966472 S    
C25   C26   1.382228 A    
O8    C4    1.298161 A    
C37   H23   1.111199 S    
N10   O22   1.301428 A    
C36   H18   1.111463 S    
C5    N3    1.491320 S    
C32   N8    1.428607 S    
C20   H9    1.081188 S    
C33   N10   1.427687 S    
C31   C32   1.440636 A    
C13   H4    1.103806 S    
Cu1   O5    1.969031 S    
C9    C13   1.561609 S    
C33   C34   1.397264 A    
C27   C28   1.408497 A    
H1    C10   1.108384 S    
C27   N11   1.420916 S    
O2    Cu2   1.969031 S    
O6    C3    1.300145 A    
C19   N6    1.434006 S    
O4    Cu2   1.925012 S    
C6    C9    1.600896 S    
C25   H7    1.078164 S    
O2    C1    1.301150 A    
C7    N15   1.475843 S    
C12   H5    1.108338 S    
N5    O13   1.301554 A    
C10   N4    1.477197 S    
O4    C2    1.296269 A    
C8    C14   1.198175 T    
N1    C32   1.389264 A    
N14   O25   1.301859 A    
C18   C20   1.400362 A    
C30   C34   1.398859 A    
C17   C25   1.395615 A    
C22   C26   1.404501 A    
C35   H13   1.110217 S    
Cu2   N2    2.028729 S    
C21   N7    1.437361 S    
N9    O19   1.302630 A    
C29   N12   1.422713 S    
C5    C9    1.602183 S    
C12   N5    1.474509 S    
N10   O21   1.297715 A    
C36   H19   1.110594 S    
N15   O27   1.300317 A    
C10   C11   1.580291 S    
N6    C35   1.447887 S    
C15   C16   1.198171 T    
