data_mof_unit_9897.cif
_audit_creation_date              2012-10-26T19:46:26-0400
_audit_creation_method            fapswitch 2.2
_symmetry_space_group_name_H-M    P1
_symmetry_Int_Tables_number       1
_space_group_crystal_system       triclinic
_cell_length_a                    10.953371
_cell_length_b                    9.699551
_cell_length_c                    15.189328
_cell_angle_alpha                 90.433611
_cell_angle_beta                  95.855533
_cell_angle_gamma                 90.403697
_cell_volume                      1605.24078868

loop_
_atom_site_label
_atom_site_type_symbol
_atom_type_description
_atom_site_fract_x
_atom_site_fract_y
_atom_site_fract_z
_atom_type_partial_charge
C1    C     C_R   0.263790 0.498224 0.506842 0.507695
C2    C     C_R   0.941215 0.614394 0.487545 -0.011290
C3    C     C_R   0.935705 0.363874 0.496429 -0.036038
C4    C     C_R   0.064519 0.613306 0.522109 -0.005689
C5    C     C_R   0.496299 0.623544 0.096224 -0.138642
C6    C     C_R   0.444333 0.391305 0.903673 -0.095336
C7    C     C_R   0.535840 0.618366 0.907851 -0.132441
C8    C     C_R   0.553540 0.383987 0.096619 -0.095996
C9    C     C_R   0.521466 0.630203 0.187631 -0.008804
C10   C     C_R   0.428132 0.394985 0.810835 -0.037275
C11   C     C_R   0.512032 0.628477 0.816665 -0.000598
C12   C     C_R   0.737098 0.498821 0.494615 0.511688
C13   C     C_R   0.570360 0.386177 0.189472 -0.034233
C14   C     C_R   0.537615 0.505589 0.236182 -0.021391
C15   C     C_R   0.474354 0.508891 0.765795 -0.028165
C16   C     C_R   0.512617 0.501151 0.049848 -0.003692
C17   C     C_R   0.500792 0.501372 0.952284 -0.004665
C18   C     C_R   0.872020 0.491909 0.489484 -0.068781
C19   C     C_R   0.130490 0.490678 0.515522 -0.063038
C20   C     C_3   0.396994 0.120295 0.340737 -0.199168
C21   C     C_3   0.280947 0.208480 0.320601 -0.288692
C22   C     C_3   0.254499 0.233642 0.221371 -0.454520
C23   C     C_R   0.514131 0.500730 0.331575 0.515522
C24   C     C_3   0.719533 0.885891 0.569496 -0.181305
C25   C     C_3   0.756947 0.792050 0.649338 -0.273489
C26   C     C_3   0.833486 0.864458 0.726224 -0.444962
C27   C     C_3   0.596178 0.121271 0.660895 -0.190909
C28   C     C_3   0.714545 0.207041 0.682750 -0.299234
C29   C     C_3   0.734817 0.244821 0.780983 -0.450896
C30   C     C_3   0.285019 0.870336 0.413579 -0.185609
C31   C     C_3   0.276776 0.779266 0.329513 -0.283723
C32   C     C_3   0.156144 0.796675 0.270942 -0.452297
C33   C     C_2   0.548277 0.770253 0.225011 0.240315
C34   C     C_R   0.490129 0.501688 0.669204 0.507547
C35   C     C_2   0.349460 0.288824 0.762994 0.229186
C36   C     C_2   0.513121 0.770527 0.781823 0.234998
C37   C     C_2   0.639384 0.272720 0.235181 0.220591
C38   C     C_2   0.125376 0.225352 0.511610 0.246560
C39   C     C_2   0.896051 0.727877 0.428340 0.230828
C40   C     C_2   0.872996 0.227119 0.491388 0.247364
C41   C     C_2   0.115983 0.727547 0.580936 0.254967
C42   C     C_R   0.429735 0.070911 0.435607 0.137624
C43   C     C_R   0.586557 0.929472 0.552261 0.133436
C44   C     C_R   0.567466 0.072616 0.565332 0.138888
C45   C     C_R   0.412079 0.926576 0.448073 0.133704
C46   C     C_R   0.064749 0.363047 0.507138 -0.039620
Cu1   Cu    Cu3+1 0.500000 0.640660 0.500000 0.971049
Cu2   Cu    Cu3+1 0.500000 0.359340 0.500000 0.962994
H1    H     H_    0.470941 0.717309 0.060847 0.105181
H2    H     H_    0.478094 0.166451 0.316918 0.198201
H3    H     H_    0.384942 0.029981 0.295750 0.111367
H4    H     H_    0.910017 0.924763 0.702670 0.219374
H5    H     H_    0.776402 0.933145 0.762877 0.130109
H6    H     H_    0.873202 0.785947 0.773472 0.151138
H7    H     H_    0.815003 0.707699 0.627689 0.184230
H8    H     H_    0.676912 0.744147 0.674233 0.190713
H9    H     H_    0.742479 0.841363 0.507537 0.202315
H10   H     H_    0.780863 0.976482 0.573516 0.134057
H11   H     H_    0.661778 0.314234 0.799246 0.167910
H12   H     H_    0.408479 0.305257 0.938478 0.159363
H13   H     H_    0.735685 0.151395 0.822696 0.156837
H14   H     H_    0.824240 0.299293 0.795088 0.153483
H15   H     H_    0.795411 0.148302 0.666873 0.137818
H16   H     H_    0.712503 0.303498 0.645265 0.212886
H17   H     H_    0.514906 0.168565 0.684155 0.205484
H18   H     H_    0.604432 0.029590 0.704008 0.132877
H19   H     H_    0.078609 0.757234 0.305134 0.207300
H20   H     H_    0.140927 0.906660 0.253361 0.169840
H21   H     H_    0.159245 0.736180 0.208835 0.138399
H22   H     H_    0.351037 0.806080 0.289558 0.157410
H23   H     H_    0.575990 0.706469 0.944693 0.105168
H24   H     H_    0.284001 0.668810 0.346131 0.199805
H25   H     H_    0.240391 0.824170 0.466956 0.200169
H26   H     H_    0.222442 0.957857 0.400210 0.129368
H27   H     H_    0.504572 0.859264 0.192677 0.105694
H28   H     H_    0.310453 0.308556 0.696298 0.189322
H29   H     H_    0.582724 0.843272 0.809320 0.077755
H30   H     H_    0.678820 0.287174 0.302624 0.195595
H31   H     H_    0.096788 0.147034 0.462420 0.125893
H32   H     H_    0.812836 0.713231 0.384324 0.175072
H33   H     H_    0.898162 0.152428 0.542342 0.111565
H34   H     H_    0.577907 0.293256 0.060372 0.159770
H35   H     H_    0.205649 0.717664 0.617756 0.163770
H36   H     H_    0.332304 0.289025 0.195924 0.167617
H37   H     H_    0.238583 0.134325 0.184968 0.159386
H38   H     H_    0.170960 0.297656 0.208775 0.152558
H39   H     H_    0.199430 0.156868 0.342230 0.138838
H40   H     H_    0.289896 0.309837 0.353236 0.213680
N1    N     N_R   0.500000 0.852070 0.500000 -0.210730
N2    N     N_R   0.500000 0.147930 0.500000 -0.208242
O1    O     O_R   0.319640 0.618740 0.499990 -0.541659
O2    O     O_2   0.325692 0.180135 0.797843 -0.479289
O3    O     O_2   0.430390 0.811433 0.728690 -0.464438
O4    O     O_2   0.654652 0.163119 0.197835 -0.499694
O5    O     O_2   0.197472 0.193479 0.574428 -0.477728
O6    O     O_2   0.951802 0.836995 0.425819 -0.481864
O7    O     O_2   0.804242 0.192301 0.426784 -0.483919
O8    O     O_2   0.057507 0.831726 0.592104 -0.475612
O9    O     O_R   0.680360 0.381260 0.500010 -0.475478
O10   O     O_R   0.680360 0.618740 0.500010 -0.533251
O11   O     O_R   0.319640 0.381260 0.499990 -0.474620
O12   O     O_R   0.499990 0.618780 0.371460 -0.465275
O13   O     O_R   0.500010 0.381220 0.628540 -0.535565
O14   O     O_R   0.500010 0.618780 0.628540 -0.464196
O15   O     O_R   0.499990 0.381220 0.371460 -0.541740
O16   O     O_2   0.625681 0.789570 0.287554 -0.478475

loop_
_geom_bond_atom_site_label_1
_geom_bond_atom_site_label_2
_ccdc_geom_bond_type
C21   H39   S    
C8    C13   A    
C2    C18   A    
C30   C45   S    
C25   H8    S    
C43   C44   A    
C19   C46   A    
C7    C11   A    
C43   N1    A    
C8    H34   S    
C21   C22   S    
C11   C36   S    
C20   H3    S    
C10   C15   A    
C7    H23   S    
C30   C31   S    
C30   H26   S    
C23   O12   A    
C4    C41   S    
C41   H35   S    
C3    C18   A    
C22   H37   S    
Cu2   O9    S    
C12   O9    A    
C20   H2    S    
C4    C19   A    
C11   C15   A    
C2    C39   S    
C33   H27   S    
C31   H22   S    
Cu2   O15   S    
C24   H9    S    
C7    C17   A    
C38   O5    D    
C10   C35   S    
C45   N1    A    
C15   C34   S    
C13   C37   S    
C32   H20   S    
C35   O2    D    
C21   H40   S    
C8    C16   A    
Cu1   O12   S    
Cu2   N2    S    
C13   C14   A    
C9    C33   S    
Cu1   N1    S    
C5    H1    S    
C26   H6    S    
C29   H13   S    
C35   H28   S    
C1    C19   S    
C38   C46   S    
C6    H12   S    
C24   C25   S    
C40   O7    D    
C30   H25   S    
C16   C17   S    
C25   C26   S    
Cu2   O13   S    
C34   O14   A    
Cu1   O10   S    
C42   N2    A    
C42   C45   A    
C22   H36   S    
C14   C23   S    
C2    C4    A    
C9    C14   A    
C5    C9    A    
C27   H17   S    
C26   H4    S    
Cu1   Cu2   S    
C32   H19   S    
C28   H16   S    
C24   H10   S    
C31   H24   S    
C3    C40   S    
C26   H5    S    
C1    O11   A    
C44   N2    A    
C6    C17   A    
C29   H14   S    
C28   C29   S    
Cu1   O14   S    
C36   O3    D    
Cu1   O1    S    
C40   H33   S    
C31   C32   S    
C33   O16   D    
C25   H7    S    
C6    C10   A    
C20   C42   S    
C32   H21   S    
C37   H30   S    
C3    C46   A    
C34   O13   A    
C36   H29   S    
C39   H32   S    
C5    C16   A    
C27   H18   S    
Cu2   O11   S    
C37   O4    D    
C22   H38   S    
C39   O6    D    
C12   O10   A    
C28   H15   S    
C20   C21   S    
C1    O1    A    
C38   H31   S    
C12   C18   S    
C27   C28   S    
C24   C43   S    
C29   H11   S    
C41   O8    D    
C27   C44   S    
C23   O15   A    
