data_mof_unit_51408.cif
_audit_creation_date              2012-12-10T20:45:32-0500
_audit_creation_method            fapswitch 2.2
_symmetry_space_group_name_H-M    P1
_symmetry_Int_Tables_number       1
_space_group_crystal_system       triclinic
_cell_length_a                    10.821194
_cell_length_b                    10.608389
_cell_length_c                    9.883829
_cell_angle_alpha                 89.306789
_cell_angle_beta                  91.643379
_cell_angle_gamma                 89.814379
_cell_volume                      1134.06146248

loop_
_atom_site_label
_atom_site_type_symbol
_atom_type_description
_atom_site_fract_x
_atom_site_fract_y
_atom_site_fract_z
_atom_type_partial_charge
C1    C     C_R   0.499003 0.260403 0.500466 0.876071
C2    C     C_R   0.165716 0.576464 0.967818 -0.118945
C3    C     C_R   0.929423 0.533348 0.384831 -0.262351
C4    C     C_R   0.872366 0.502913 0.505785 -0.089687
C5    C     C_R   0.943230 0.470186 0.622780 -0.008070
C6    C     C_R   0.069696 0.465926 0.613897 -0.270521
C7    C     C_R   0.127004 0.496491 0.493417 -0.089741
C8    C     C_R   0.055956 0.528057 0.375993 0.007635
C9    C     C_R   0.870861 0.541618 0.846120 -0.099650
C10   C     C_R   0.847658 0.516145 0.982069 -0.136194
C11   C     C_R   0.848100 0.391721 0.030331 -0.116368
C12   C     C_R   0.259838 0.498960 0.497617 0.865410
C13   C     C_R   0.866817 0.292386 0.941580 -0.173127
C14   C     C_R   0.889061 0.317433 0.805224 -0.176819
C15   C     C_R   0.893209 0.442370 0.757339 0.165008
C16   C     C_R   0.392019 0.063790 0.532968 0.103614
C17   C     C_R   0.498393 0.128437 0.498577 -0.072353
C18   C     C_R   0.595995 0.065868 0.437814 -0.229842
C19   C     C_R   0.595617 0.935466 0.435463 -0.227217
C20   C     C_R   0.497592 0.871226 0.493920 -0.070571
C21   C     C_R   0.391977 0.935071 0.531096 0.113750
C22   C     C_3   0.316998 0.924050 0.654906 -0.501230
C23   C     C_R   0.499664 0.739479 0.498943 0.878698
C24   C     C_3   0.316846 0.067203 0.657326 -0.496488
C25   C     C_R   0.560346 0.408809 0.074158 0.217714
C26   C     C_R   0.452591 0.599531 0.069276 -0.108714
C27   C     C_R   0.453026 0.599734 0.925286 -0.143842
C28   C     C_R   0.560094 0.408613 0.932240 0.271857
C29   C     C_3   0.540011 0.269814 0.928694 -0.521455
C30   C     C_3   0.542059 0.269987 0.082604 -0.502891
C31   C     C_R   0.739956 0.500711 0.502233 0.863699
C32   C     C_R   0.131723 0.681371 0.042506 -0.233596
C33   C     C_R   0.101537 0.667016 0.178226 -0.179320
C34   C     C_R   0.105877 0.547328 0.240018 0.106042
C35   C     C_R   0.140790 0.442326 0.165065 -0.098651
C36   C     C_R   0.172310 0.456525 0.029341 0.297374
H1    H     H_    0.188056 0.589384 0.862625 0.141731
H2    H     H_    0.832326 0.372126 0.136127 0.132696
H3    H     H_    0.866123 0.196088 0.978932 0.129768
H4    H     H_    0.908516 0.240078 0.738468 0.123444
H5    H     H_    0.674002 0.117230 0.398704 0.141030
H6    H     H_    0.673670 0.885194 0.395500 0.143974
H7    H     H_    0.224164 0.883320 0.632893 0.195625
H8    H     H_    0.369067 0.880278 0.742042 0.207734
H9    H     H_    0.223846 0.109471 0.637428 0.197568
H10   H     H_    0.368516 0.104853 0.745967 0.210600
H11   H     H_    0.411700 0.677896 0.121028 0.159360
H12   H     H_    0.127344 0.773621 0.994605 0.144740
H13   H     H_    0.412542 0.678312 0.869112 0.143585
H14   H     H_    0.448747 0.245426 0.883954 0.206943
H15   H     H_    0.619169 0.218434 0.885910 0.213333
H16   H     H_    0.452626 0.243411 0.127051 0.219269
H17   H     H_    0.624141 0.220882 0.128643 0.197055
H18   H     H_    0.071902 0.748311 0.234236 0.133927
H19   H     H_    0.141074 0.349355 0.211842 0.118152
H20   H     H_    0.875145 0.559103 0.294776 0.162134
H21   H     H_    0.123668 0.438320 0.702808 0.175970
H22   H     H_    0.876204 0.638561 0.811194 0.116421
H23   H     H_    0.831880 0.593021 0.050450 0.126595
N1    N     N_R   0.499160 0.499140 0.142800 -0.112775
N2    N     N_R   0.499160 0.499180 0.857150 -0.118174
O1    O     O_R   0.500020 0.316790 0.614690 -0.619902
O2    O     O_R   0.500000 0.316760 0.385350 -0.623608
O3    O     O_R   0.316770 0.500030 0.614670 -0.634968
O4    O     O_R   0.316750 0.499990 0.385330 -0.611521
O5    O     O_R   0.500000 0.683240 0.614650 -0.624587
O6    O     O_R   0.499980 0.683210 0.385310 -0.625109
O7    O     O_R   0.683250 0.500010 0.614670 -0.610305
O8    O     O_R   0.683230 0.499970 0.385330 -0.631631
Zn1   Zn    Zn3+2 0.500010 0.500020 0.653130 0.937242
Zn2   Zn    Zn3+2 0.499990 0.499980 0.346870 0.941170
C37   C     C_3   0.210008 0.343495 0.950859 -0.992313
H24   H     H_    0.269507 0.371330 0.866173 0.257053
H25   H     H_    0.262131 0.276021 0.017328 0.235824
H26   H     H_    0.127122 0.294825 0.909752 0.252724

loop_
_geom_bond_atom_site_label_1
_geom_bond_atom_site_label_2
_ccdc_geom_bond_type
N2    Zn1   S    
C16   C21   A    
C35   C36   A    
C1    O1    A    
C7    C8    A    
C25   C28   A    
C26   C27   A    
C24   H9    S    
C23   O5    A    
C28   C29   S    
C18   C19   A    
C5    C6    A    
C12   O3    A    
C33   H18   S    
O1    Zn1   S    
C2    C32   A    
C34   C35   A    
C23   O6    A    
O8    Zn2   S    
C27   N2    A    
C22   H8    S    
C19   C20   A    
C16   C17   A    
C25   N1    A    
O3    Zn1   S    
C9    C10   A    
C19   H6    S    
C28   N2    A    
C16   C24   S    
C13   C14   A    
C32   H12   S    
C6    H21   S    
C31   O7    A    
C37   H26   S    
C1    O2    A    
C17   C18   A    
C29   H14   S    
C7    C12   S    
C30   H17   S    
C5    C15   S    
C35   H19   S    
C37   H25   S    
C3    C8    A    
C18   H5    S    
C37   H24   S    
N1    Zn2   S    
O4    Zn2   S    
C11   H2    S    
C29   C30   S    
C3    H20   S    
C22   H7    S    
C20   C23   S    
C33   C34   A    
C8    C34   S    
C26   H11   S    
O2    Zn2   S    
C22   C24   S    
C3    C4    A    
C29   H15   S    
C2    C36   A    
C25   C30   S    
C30   H16   S    
C9    H22   S    
C4    C5    A    
C6    C7    A    
C12   O4    A    
C1    C17   S    
C24   H10   S    
C32   C33   A    
C10   H23   S    
C9    C15   A    
C11   C13   A    
C2    H1    S    
O5    Zn1   S    
O6    Zn2   S    
C13   H3    S    
C4    C31   S    
C10   C11   A    
C14   H4    S    
C27   H13   S    
C31   O8    A    
C20   C21   A    
O7    Zn1   S    
C14   C15   A    
C21   C22   S    
C26   N1    A    
C36   C37   S    
