data_mof_unit_31094.cif
_audit_creation_date              2012-12-10T17:28:31-0500
_audit_creation_method            fapswitch 2.2
_symmetry_space_group_name_H-M    P1
_symmetry_Int_Tables_number       1
_space_group_crystal_system       triclinic
_cell_length_a                    10.725614
_cell_length_b                    11.951368
_cell_length_c                    12.839902
_cell_angle_alpha                 93.167582
_cell_angle_beta                  91.890245
_cell_angle_gamma                 87.772973
_cell_volume                      1641.35215951

loop_
_atom_site_label
_atom_site_type_symbol
_atom_type_description
_atom_site_fract_x
_atom_site_fract_y
_atom_site_fract_z
_atom_type_partial_charge
C1    C     C_R   0.485762 0.521038 0.699349 0.892874
C2    C     C_R   0.459503 0.559877 0.131347 -0.269518
C3    C     C_R   0.469021 0.443668 0.972689 0.179936
C4    C     C_R   0.452363 0.550467 0.024050 0.183563
C5    C     C_R   0.397428 0.950988 0.389332 -0.305969
C6    C     C_R   0.603784 0.048998 0.609515 -0.323914
C7    C     C_R   0.405121 0.835256 0.401899 0.044801
C8    C     C_R   0.595652 0.164695 0.597490 0.046109
C9    C     C_R   0.542702 0.860171 0.549287 -0.050820
C10   C     C_R   0.457456 0.139901 0.450506 -0.054870
C11   C     C_R   0.537307 0.977098 0.540141 0.090365
C12   C     C_R   0.498449 0.478091 0.299257 0.893353
C13   C     C_R   0.463420 0.022909 0.459109 0.095556
C14   C     C_R   0.741027 0.501734 0.502717 0.894821
C15   C     C_R   0.261999 0.499692 0.514613 0.880802
C16   C     C_R   0.899238 0.318527 0.416339 -0.152010
C17   C     C_R   0.124473 0.691206 0.620430 -0.168418
C18   C     C_R   0.958166 0.212523 0.414739 -0.200912
C19   C     C_R   0.054816 0.781476 0.663531 -0.183434
C20   C     C_R   0.062615 0.193248 0.479875 0.002469
C21   C     C_R   0.928362 0.770733 0.679172 0.022569
C22   C     C_R   0.118850 0.284801 0.534413 -0.005412
C23   C     C_R   0.486150 0.464542 0.187580 -0.055197
C24   C     C_R   0.870673 0.670927 0.644243 -0.023094
C25   C     C_R   0.068484 0.395442 0.520973 0.020534
C26   C     C_R   0.934482 0.591966 0.576374 0.022746
C27   C     C_R   0.946976 0.407296 0.481445 0.059074
C28   C     C_R   0.065337 0.594798 0.576468 0.073253
C29   C     C_R   0.132354 0.496064 0.542543 -0.212674
C30   C     C_R   0.875745 0.503781 0.515702 -0.201261
C31   C     C_1   0.866124 0.853872 0.747344 0.134220
C32   C     C_1   0.107200 0.079043 0.492476 0.140086
C33   C     C_1   0.210036 0.263340 0.617630 0.208072
C34   C     C_R   0.464478 0.532192 0.809565 -0.038745
C35   C     C_1   0.784117 0.629221 0.714526 0.168019
C36   C     C_R   0.434374 0.646695 0.967339 -0.207842
C37   C     C_R   0.488954 0.347565 0.029129 -0.208911
C38   C     C_R   0.441198 0.637653 0.859665 -0.188602
C39   C     C_R   0.498346 0.358070 0.136881 -0.206802
C40   C     C_R   0.472190 0.435170 0.865661 -0.255399
H1    H     H_    0.916687 0.143976 0.368803 0.152125
H2    H     H_    0.224372 0.696666 0.629204 0.174011
H3    H     H_    0.447608 0.642161 0.170600 0.156186
H4    H     H_    0.487614 0.353058 0.826889 0.168988
H5    H     H_    0.516923 0.283620 0.180148 0.160372
H6    H     H_    0.432351 0.712859 0.816205 0.159322
H7    H     H_    0.420242 0.728781 0.006306 0.139972
H8    H     H_    0.501188 0.265328 0.990010 0.144296
H9    H     H_    0.102510 0.854365 0.696094 0.158526
H10   H     H_    0.400142 0.177171 0.389639 0.125221
H11   H     H_    0.599639 0.823026 0.610465 0.133291
H12   H     H_    0.646572 0.220452 0.651176 0.139059
H13   H     H_    0.354218 0.779466 0.348242 0.132089
H14   H     H_    0.340008 0.983850 0.326219 0.145331
H15   H     H_    0.660845 0.016350 0.672539 0.170332
H16   H     H_    0.814509 0.329145 0.369246 0.159154
N1    N     N_R   0.523130 0.207800 0.519340 -0.103304
N2    N     N_R   0.476870 0.792200 0.480660 -0.108855
N3    N     N_1   0.817134 0.919949 0.802898 -0.224897
N4    N     N_1   0.142034 0.987409 0.503040 -0.202971
N5    N     N_1   0.282440 0.246006 0.684188 -0.207972
N6    N     N_1   0.720982 0.596034 0.776013 -0.206904
O1    O     O_R   0.506170 0.421700 0.658830 -0.627019
O2    O     O_R   0.493830 0.578300 0.341170 -0.625416
O3    O     O_R   0.491330 0.609310 0.646410 -0.639379
O4    O     O_R   0.508670 0.390690 0.353590 -0.632873
O5    O     O_R   0.690650 0.406190 0.506220 -0.619497
O6    O     O_R   0.309350 0.593810 0.493780 -0.628861
O7    O     O_R   0.675800 0.593810 0.493800 -0.606442
O8    O     O_R   0.324200 0.406190 0.506200 -0.618424
Zn1   Zn    Zn3+2 0.509910 0.374730 0.508290 0.949807
Zn2   Zn    Zn3+2 0.490090 0.625270 0.491710 0.945318

loop_
_geom_bond_atom_site_label_1
_geom_bond_atom_site_label_2
_ccdc_geom_bond_type
C1    C34   S    
O7    Zn2   S    
C2    C4    A    
C14   O5    A    
C4    C36   A    
C15   C29   S    
O8    Zn1   S    
C8    N1    A    
C25   C27   A    
O3    Zn2   S    
C21   C31   S    
C8    H12   S    
C7    N2    A    
C1    O3    A    
O4    Zn1   S    
C9    H11   S    
O6    Zn2   S    
C2    H3    S    
C39   H5    S    
C33   N5    T    
C16   C27   A    
C16   H16   S    
C37   C39   A    
C26   C28   A    
N1    Zn1   S    
C27   C30   A    
C9    C11   A    
C12   C23   S    
N2    Zn2   S    
O1    Zn1   S    
C12   O4    A    
C14   C30   S    
C6    H15   S    
C23   C39   A    
C15   O6    A    
C1    O1    A    
C32   N4    T    
C36   C38   A    
C28   C29   A    
C17   C19   A    
C24   C26   A    
C3    C40   A    
C26   C30   A    
C35   N6    T    
C18   C20   A    
O2    Zn2   S    
C25   C29   A    
C12   O2    A    
C14   O7    A    
C34   C40   A    
C21   C24   A    
C38   H6    S    
C11   C13   A    
C7    H13   S    
C6    C11   A    
O5    Zn1   S    
C3    C4    A    
C24   C35   S    
C5    H14   S    
C40   H4    S    
C10   N1    A    
C3    C37   A    
C36   H7    S    
C16   C18   A    
C9    N2    A    
C20   C32   S    
C18   H1    S    
C31   N3    T    
C2    C23   A    
C5    C7    A    
C22   C33   S    
C19   H9    S    
C17   H2    S    
C6    C8    A    
C19   C21   A    
C34   C38   A    
C17   C28   A    
C5    C13   A    
C10   C13   A    
C15   O8    A    
C20   C22   A    
C37   H8    S    
C22   C25   A    
C10   H10   S    
