data_mof_unit_29415.cif
_audit_creation_date              2013-03-05T15:52:26-0500
_audit_creation_method            fapswitch 2.2
_symmetry_space_group_name_H-M    P1
_symmetry_Int_Tables_number       1
_space_group_crystal_system       triclinic
_cell_length_a                    27.776344
_cell_length_b                    10.886003
_cell_length_c                    9.651423
_cell_angle_alpha                 91.367187
_cell_angle_beta                  90.480315
_cell_angle_gamma                 95.383911
_cell_volume                      2904.46604369

loop_
_atom_site_label
_atom_site_type_symbol
_atom_site_description
_atom_site_fract_x
_atom_site_fract_y
_atom_site_fract_z
_atom_type_partial_charge
O1    O     O_R   0.500000 0.319640 0.618810 -0.599270
O2    O     O_R   0.500000 0.319660 0.381240 -0.553378
C1    C     C_R   0.502121 0.263023 0.498654 0.796007
O3    O     O_R   0.430260 0.500010 0.618770 -0.601678
O4    O     O_R   0.430270 0.500030 0.381200 -0.525086
C2    C     C_R   0.407582 0.500319 0.499434 0.789350
Cu1   Cu    Cu3+1 0.500000 0.499990 0.640660 0.971863
Cu2   Cu    Cu3+1 0.500000 0.500010 0.359340 0.995632
O5    O     O_R   0.500000 0.680340 0.618760 -0.547642
O6    O     O_R   0.500000 0.680360 0.381190 -0.553584
O7    O     O_R   0.569730 0.499970 0.618800 -0.559131
O8    O     O_R   0.569740 0.499990 0.381230 -0.577518
C3    C     C_R   0.497211 0.736918 0.502533 0.864131
C4    C     C_R   0.592233 0.495209 0.500255 0.850645
C5    C     C_R   0.173741 0.379383 0.500929 0.567661
O9    O     O_2   0.195762 0.274266 0.491292 -0.489144
N1    N     N_R   0.201384 0.490199 0.509544 -0.473473
C6    C     C_R   0.180854 0.599081 0.521576 0.541127
C7    C     C_R   0.278236 0.540017 0.390776 -0.141816
C8    C     C_R   0.328874 0.544760 0.386219 0.134899
C9    C     C_R   0.328652 0.453109 0.614252 -0.261078
C10   C     C_R   0.278438 0.449424 0.617405 -0.101560
C11   C     C_R   0.253092 0.492617 0.505754 0.319774
C12   C     C_R   0.101062 0.487832 0.501352 -0.097612
C13   C     C_R   0.122713 0.375320 0.499556 -0.024118
C14   C     C_R   0.092651 0.263568 0.501221 0.168808
C15   C     C_R   0.130466 0.599872 0.518449 -0.008790
C16   C     C_R   0.354425 0.499781 0.499069 -0.046947
H1    H     H_    0.347343 0.418153 0.701800 0.162398
H2    H     H_    0.259154 0.413243 0.706900 0.151801
C17   C     C_R   0.644867 0.485338 0.499793 -0.098094
C18   C     C_R   0.969905 0.375795 0.453788 -0.011548
C19   C     C_R   0.977673 0.603298 0.478224 0.014474
C20   C     C_R   0.948462 0.489142 0.469096 -0.007550
C21   C     C_R   0.939332 0.268014 0.414282 0.349778
C22   C     C_R   0.889482 0.267083 0.425381 -0.109209
C23   C     C_R   0.868223 0.375004 0.458417 -0.077442
C24   C     C_R   0.897304 0.488098 0.471261 -0.098463
C25   C     C_R   0.875102 0.599456 0.484828 -0.128552
C26   C     C_R   0.824228 0.592076 0.500531 0.653521
N2    N     N_R   0.797235 0.480476 0.491999 -0.462996
C27   C     C_R   0.817944 0.373302 0.469159 0.618415
C28   C     C_R   0.719362 0.475659 0.372012 -0.148781
C29   C     C_R   0.669409 0.478608 0.373638 -0.225497
C30   C     C_R   0.671032 0.480525 0.624405 -0.229898
C31   C     C_R   0.721229 0.477724 0.623319 0.437276
C32   C     C_R   0.745565 0.477165 0.496418 0.267092
O10   O     O_2   0.789831 0.265413 0.457040 -0.488638
C33   C     C_R   0.020641 0.375581 0.473871 0.039739
C34   C     C_R   0.049986 0.488629 0.488642 0.055581
C35   C     C_R   0.028720 0.602317 0.495597 0.094596
C36   C     C_R   0.042521 0.265603 0.493992 -0.183077
H3    H     H_    0.650074 0.475165 0.275989 0.182573
H4    H     H_    0.737894 0.473218 0.273848 0.178124
H5    H     H_    0.867162 0.182291 0.400149 0.242373
H6    H     H_    0.021138 0.179627 0.511351 0.191967
O11   O     O_2   0.209226 0.706337 0.536537 -0.530602
C37   C     C_R   0.108991 0.709774 0.537383 -0.152877
H7    H     H_    0.258124 0.574035 0.305422 0.140223
H8    H     H_    0.130626 0.796008 0.560549 0.193190
C38   C     C_R   0.954657 0.713664 0.461466 0.049928
C39   C     C_R   0.904113 0.712735 0.473554 0.386188
O12   O     O_2   0.801505 0.694370 0.524967 -0.425365
C40   C     C_R   0.059092 0.710060 0.531915 -0.159183
H9    H     H_    0.652613 0.478266 0.722363 0.174946
H10   H     H_    0.045276 0.795436 0.563224 0.173208
C41   C     C_R   0.544644 0.133916 0.729528 -0.154472
H11   H     H_    0.563272 0.224729 0.717218 0.163384
C42   C     C_R   0.548151 0.080114 0.858217 -0.144540
H12   H     H_    0.567707 0.131482 0.941824 0.139030
C43   C     C_R   0.524707 0.963033 0.879850 0.225341
C44   C     C_R   0.501865 0.896757 0.767961 -0.087247
H13   H     H_    0.482162 0.809630 0.790758 0.171873
C45   C     C_R   0.504353 0.943678 0.632352 0.076821
C46   C     C_R   0.518349 0.070290 0.619042 0.037304
C47   C     C_R   0.504727 0.129004 0.497040 -0.103975
C48   C     C_R   0.487645 0.056609 0.380298 0.156125
H14   H     H_    0.475546 0.875219 0.291539 0.185445
C49   C     C_R   0.485600 0.928996 0.385077 -0.261978
C50   C     C_R   0.494019 0.870852 0.509282 -0.140509
C51   C     C_R   0.580795 0.622471 0.146375 0.194924
C52   C     C_R   0.625311 0.630866 0.080422 -0.313620
H15   H     H_    0.657772 0.668864 0.135138 0.195147
C53   C     C_R   0.626655 0.620145 0.938986 -0.218505
H16   H     H_    0.660358 0.650758 0.889096 0.227582
C54   C     C_R   0.583331 0.611024 0.865123 0.382763
C55   C     C_R   0.539700 0.558175 0.927890 0.051056
C56   C     C_R   0.539206 0.560114 0.077314 0.114599
N3    N     N_R   0.500460 0.501210 0.147910 -0.183351
C57   C     C_R   0.462514 0.443839 0.070566 0.257271
H17   H     H_    0.432581 0.399024 0.864587 0.135024
C58   C     C_R   0.462783 0.444895 0.922906 -0.086603
N4    N     N_R   0.500480 0.501290 0.852040 -0.198187
N5    N     N_3   0.981667 0.823617 0.414582 -0.570748
H18   H     H_    0.977559 0.896038 0.485372 0.271880
H19   H     H_    0.967871 0.846051 0.318246 0.298337
Cl1   Cl    Cl    0.878831 0.855919 0.459999 -0.484091
Cl2   Cl    Cl    0.752957 0.475360 0.781464 -0.561435
N6    N     N_3   0.471492 0.111691 0.257076 -0.588771
H20   H     H_    0.436367 0.073176 0.233326 0.216168
H21   H     H_    0.493917 0.090345 0.175526 0.233517
N7    N     N_3   0.524832 0.908258 0.013467 -0.619169
H22   H     H_    0.547984 0.962647 0.081078 0.208022
H23   H     H_    0.540079 0.824621 0.001771 0.241061
N8    N     N_3   0.421716 0.383261 0.139236 -0.512851
H24   H     H_    0.394616 0.351255 0.067853 0.182434
H25   H     H_    0.433165 0.305719 0.186019 0.247261
N9    N     N_3   0.576874 0.707279 0.259997 -0.491042
H26   H     H_    0.607044 0.706990 0.325634 0.228658
H27   H     H_    0.578129 0.796117 0.220820 0.205204
Cl3   Cl    Cl    0.586902 0.726883 0.740995 -0.621943
N10   N     N_3   0.112297 0.147286 0.515699 -0.503757
H28   H     H_    0.100473 0.090179 0.431119 0.242009
H29   H     H_    0.098231 0.106440 0.605535 0.214501
Cl4   Cl    Cl    0.959080 0.140874 0.320418 -0.602734
N11   N     N_3   0.354268 0.597504 0.269384 -0.539180
H30   H     H_    0.329935 0.618760 0.192286 0.215173
H31   H     H_    0.372714 0.681117 0.303244 0.213103

loop_
_geom_bond_atom_site_label_1
_geom_bond_atom_site_label_2
_geom_bond_distance
_ccdc_geom_bond_type
C55   C56   1.441997 A    
N2    C27   1.362523 A    
C21   C22   1.388794 A    
C12   C15   1.408221 A    
C4    C17   1.475985 S    
C28   C29   1.391097 A    
N10   H29   1.045758 S    
C51   C52   1.391822 A    
Cu1   Cu2   2.715144 S    
C30   C31   1.397613 A    
N11   H30   1.045551 S    
Cu1   O7    1.950079 S    
N8    H25   1.041016 S    
N1    C11   1.434821 S    
C26   O12   1.347539 S    
C22   C23   1.394997 A    
C53   C54   1.387815 A    
O1    Cu1   1.969575 S    
O4    C2    1.308276 A    
N7    H23   1.043696 S    
O7    C4    1.310594 A    
C5    C13   1.413842 A    
C37   H8    1.083624 S    
C5    O9    1.348865 S    
N9    H26   1.046546 S    
C5    N1    1.368232 A    
C23   C27   1.399697 A    
C42   C43   1.396899 A    
O5    C3    1.297747 A    
C6    O11   1.350015 S    
N7    H22   1.045452 S    
C29   H3    1.078941 S    
C2    C16   1.475932 S    
C7    C8    1.403728 A    
N11   H31   1.045591 S    
C21   Cl4   1.768658 S    
C38   C39   1.408860 A    
C31   Cl2   1.758003 S    
C51   N9    1.428037 S    
C45   C50   1.424219 A    
C9    C10   1.392154 A    
C37   C40   1.386869 A    
C42   H12   1.083057 S    
O3    Cu1   1.946871 S    
N10   H28   1.045791 S    
N1    C6    1.365632 A    
C48   C49   1.386909 A    
C12   C34   1.423821 A    
Cu1   N4    2.039753 S    
C17   C29   1.404127 A    
C6    C15   1.400516 A    
C41   H11   1.081571 S    
C18   C21   1.424578 A    
C53   H16   1.084418 S    
C12   C13   1.414043 A    
C44   C45   1.416148 A    
C45   C46   1.405735 A    
C25   C26   1.417445 A    
C8    N11   1.437707 S    
H14   C49   1.084241 S    
C20   C24   1.420297 A    
C8    C16   1.416831 A    
C7    H7    1.083276 S    
C13   C14   1.409960 A    
C9    H1    1.083218 S    
O6    C3    1.316314 A    
O1    C1    1.304624 A    
C18   C20   1.424698 A    
C48   N6    1.432056 S    
C7    C11   1.399347 A    
C46   C47   1.418448 A    
C23   C24   1.409944 A    
C14   C36   1.395880 A    
C39   Cl1   1.775790 S    
C28   H4    1.082966 S    
C57   C58   1.425532 A    
N6    H20   1.046479 S    
Cu2   O8    1.946866 S    
C33   C36   1.409263 A    
C34   C35   1.420911 A    
N2    C32   1.433301 S    
C27   O10   1.350062 S    
C47   C48   1.412164 A    
N5    H19   1.045652 S    
C1    C47   1.467210 S    
O3    C2    1.308356 A    
C26   N2    1.366790 A    
N6    H21   1.043119 S    
C43   N7    1.433752 S    
O8    C4    1.307528 A    
C52   H15   1.083767 S    
C52   C53   1.368386 A    
C30   H9    1.078439 S    
C41   C46   1.416702 A    
C14   N10   1.434029 S    
H17   C58   1.081654 S    
C54   C55   1.436947 A    
Cu1   O5    1.979643 S    
C25   C39   1.415362 A    
C31   C32   1.404034 A    
C10   H2    1.082831 S    
C38   N5    1.436422 S    
C9    C16   1.406598 A    
O2    Cu2   1.979644 S    
C35   C40   1.414193 A    
C57   N8    1.432322 S    
C44   H13   1.077992 S    
C15   C37   1.394960 A    
O4    Cu2   1.950082 S    
N9    H27   1.044414 S    
C19   C35   1.427461 A    
N8    H24   1.045597 S    
C54   Cl3   1.756822 S    
C43   C44   1.398093 A    
C22   H5    1.083987 S    
C24   C25   1.414580 A    
C19   C38   1.424768 A    
C55   N4    1.394466 A    
C58   N4    1.361059 A    
C19   C20   1.419425 A    
O2    C1    1.306453 A    
N5    H18   1.045867 S    
C18   C33   1.421160 A    
C3    C50   1.468918 S    
C51   C56   1.434546 A    
C49   C50   1.397002 A    
C56   N3    1.391871 A    
Cu2   O6    1.969575 S    
C33   C34   1.414433 A    
C17   C30   1.404583 A    
C10   C11   1.396968 A    
Cu2   N3    2.041093 S    
C41   C42   1.392326 A    
N3    C57   1.378126 A    
C28   C32   1.397789 A    
C36   H6    1.077799 S    
C40   H10   1.076025 S    
