data_mof_unit_22326.cif
_audit_creation_date              2013-03-05T15:50:47-0500
_audit_creation_method            fapswitch 2.2
_symmetry_space_group_name_H-M    P1
_symmetry_Int_Tables_number       1
_space_group_crystal_system       triclinic
_cell_length_a                    14.289277
_cell_length_b                    14.788855
_cell_length_c                    33.161003
_cell_angle_alpha                 97.917793
_cell_angle_beta                  90.316757
_cell_angle_gamma                 118.872495
_cell_volume                      6057.06980221

loop_
_atom_site_label
_atom_site_type_symbol
_atom_site_description
_atom_site_fract_x
_atom_site_fract_y
_atom_site_fract_z
_atom_type_partial_charge
O1    O     O_R   0.318160 0.824460 0.443680 -0.480659
O2    O     O_R   0.525040 0.857250 0.449830 -0.450818
C1    C     C_R   0.618360 0.908247 0.437408 0.581194
O3    O     O_R   0.684760 0.998800 0.456360 -0.460539
O4    O     O_R   0.647540 0.166310 0.470260 -0.500793
C2    C     C_R   0.595281 0.207667 0.457315 0.557681
O5    O     O_R   0.500960 0.181750 0.467450 -0.475272
O6    O     O_R   0.331100 0.981120 0.457080 -0.503373
C3    C     C_R   0.294845 0.892409 0.434469 0.543884
O7    O     O_R   0.315560 0.821140 0.532010 -0.495954
O8    O     O_R   0.522630 0.854180 0.531710 -0.478365
C4    C     C_R   0.615082 0.904230 0.550795 0.580707
O9    O     O_R   0.682160 0.995480 0.544690 -0.464792
O10   O     O_R   0.645130 0.163230 0.552140 -0.459690
C5    C     C_R   0.591055 0.201870 0.570871 0.580172
O11   O     O_R   0.498360 0.178430 0.555780 -0.442918
O12   O     O_R   0.328690 0.978040 0.538950 -0.493581
C6    C     C_R   0.288255 0.886583 0.548252 0.547945
Cr1   Cr    Cr6+3 0.424820 0.846020 0.489780 1.138430
Cr2   Cr    Cr6+3 0.657880 0.078580 0.505700 1.164983
Cr3   Cr    Cr6+3 0.417280 0.075360 0.504550 1.128629
O13   O     O_3   0.499990 0.999990 0.500010 -0.304504
C7    C     C_R   0.733360 0.436536 0.103285 -0.047957
C8    C     C_R   0.638629 0.403800 0.124123 0.164515
C9    C     C_R   0.642174 0.392996 0.165113 -0.120790
C10   C     C_R   0.735426 0.407062 0.185082 -0.045017
C11   C     C_R   0.825834 0.426156 0.163565 0.230412
C12   C     C_R   0.824730 0.439789 0.122437 0.159699
C13   C     C_R   0.679577 0.293069 0.239510 0.074009
C14   C     C_R   0.671521 0.286608 0.281056 -0.102080
C15   C     C_R   0.717492 0.376548 0.310887 0.002508
C16   C     C_R   0.774612 0.476922 0.299480 0.077594
C17   C     C_R   0.779309 0.483539 0.257738 -0.079547
C18   C     C_R   0.733193 0.393295 0.228005 0.013395
C19   C     C_R   0.625928 0.376692 0.375771 0.069366
C20   C     C_R   0.596549 0.336058 0.412891 0.023076
C21   C     C_R   0.723327 0.269809 0.405019 -0.127380
C22   C     C_R   0.752946 0.310800 0.369310 -0.113104
C23   C     C_R   0.701309 0.359132 0.353420 0.014711
C24   C     C_R   0.640673 0.275663 0.425808 -0.020901
H1    H     H_    0.811727 0.298583 0.352424 0.160496
H2    H     H_    0.629236 0.210452 0.290614 0.160170
H3    H     H_    0.570827 0.371124 0.181505 0.183101
H4    H     H_    0.819940 0.559420 0.247930 0.173846
H5    H     H_    0.760436 0.226549 0.414620 0.179959
H6    H     H_    0.197000 0.742132 0.099506 0.202465
H7    H     H_    0.177753 0.717938 0.301943 0.182949
H8    H     H_    0.223737 0.723357 0.373637 0.205426
C25   C     C_R   0.241073 0.876687 0.393821 -0.027402
C26   C     C_R   0.229331 0.958308 0.381527 -0.097777
C27   C     C_R   0.201901 0.955776 0.340475 0.209841
C28   C     C_R   0.186749 0.869576 0.311376 0.016919
C29   C     C_R   0.190104 0.784645 0.324099 -0.115805
C30   C     C_R   0.216462 0.787805 0.365029 -0.102965
C31   C     C_R   0.206535 0.812322 0.161939 0.234476
C32   C     C_R   0.175727 0.791911 0.119912 -0.061152
C33   C     C_R   0.086664 0.895984 0.130643 -0.117097
C34   C     C_R   0.115014 0.915448 0.172493 -0.124138
C35   C     C_R   0.170529 0.870356 0.188510 0.020754
C36   C     C_1   0.176724 0.872672 0.232003 0.100234
C37   C     C_1   0.180077 0.871499 0.268210 0.102108
C38   C     C_R   0.111908 0.829585 0.104316 -0.024465
H9    H     H_    0.245959 0.026429 0.403649 0.187826
H10   H     H_    0.087484 0.960276 0.192684 0.180172
H11   H     H_    0.036722 0.925123 0.119461 0.194111
H12   H     H_    0.828621 0.989691 0.195222 0.184301
H13   H     H_    0.822875 0.977431 0.325949 0.184805
C39   C     C_R   0.642407 0.871800 0.396435 -0.006296
C40   C     C_R   0.559378 0.786863 0.369385 0.172818
C41   C     C_R   0.569021 0.779942 0.327151 -0.088040
C42   C     C_R   0.661427 0.851976 0.311697 -0.046864
C43   C     C_R   0.748904 0.926124 0.338259 -0.098248
C44   C     C_R   0.741774 0.935135 0.380608 0.166794
C45   C     C_R   0.769017 0.923525 0.174055 -0.097388
C46   C     C_R   0.782720 0.916194 0.132102 0.155082
C47   C     C_R   0.609427 0.755508 0.119795 0.165528
C48   C     C_R   0.597947 0.765136 0.161879 -0.075169
C49   C     C_R   0.679593 0.845830 0.188942 -0.046174
C50   C     C_1   0.672110 0.848268 0.232162 0.038009
C51   C     C_1   0.667021 0.849476 0.268405 0.034346
C52   C     C_R   0.707789 0.825311 0.105031 -0.013395
H14   H     H_    0.525567 0.709034 0.173637 0.201373
H15   H     H_    0.504073 0.718323 0.306230 0.182027
H16   H     H_    0.846494 0.392227 0.905771 0.195817
H17   H     H_    0.791619 0.276726 0.693633 0.208404
C53   C     C_R   0.626133 0.256883 0.614098 -0.018236
C54   C     C_R   0.557656 0.285130 0.637037 0.141800
C55   C     C_R   0.569035 0.301611 0.680283 0.027057
C56   C     C_R   0.650159 0.291527 0.700169 -0.060158
C57   C     C_R   0.725514 0.277336 0.677697 -0.125690
C58   C     C_R   0.716909 0.263670 0.634968 0.137330
C59   C     C_R   0.759625 0.328553 0.846669 0.166434
C60   C     C_R   0.770008 0.363647 0.888782 -0.148779
C61   C     C_R   0.584138 0.324770 0.886977 0.165714
C62   C     C_R   0.573654 0.293363 0.844248 0.157735
C63   C     C_R   0.663219 0.301182 0.823988 -0.030911
C64   C     C_1   0.659419 0.294827 0.780127 0.136756
C65   C     C_1   0.656116 0.293175 0.743713 0.109762
C66   C     C_R   0.685770 0.368486 0.908803 -0.068061
C67   C     C_R   0.061930 0.750362 0.906868 -0.060572
C68   C     C_R   0.080431 0.842022 0.892635 -0.105442
C69   C     C_R   0.095913 0.852019 0.851596 0.168049
C70   C     C_R   0.089311 0.766693 0.823994 -0.022204
C71   C     C_R   0.076895 0.676471 0.838747 0.169695
C72   C     C_R   0.065398 0.670145 0.880199 -0.104441
C73   C     C_R   0.172161 0.758889 0.759161 -0.029916
C74   C     C_R   0.180430 0.767004 0.717851 0.063842
C75   C     C_R   0.107988 0.788497 0.697082 0.040812
C76   C     C_R   0.025506 0.797069 0.717701 0.264569
C77   C     C_R   0.019166 0.787968 0.759157 -0.036868
C78   C     C_R   0.093352 0.770941 0.779972 0.020851
C79   C     C_R   0.178434 0.915670 0.648427 0.222695
C80   C     C_R   0.222515 0.938818 0.611331 -0.084192
C81   C     C_R   0.155275 0.754756 0.586494 -0.102173
C82   C     C_R   0.106458 0.728433 0.622743 0.046979
C83   C     C_R   0.125298 0.810272 0.655023 0.046253
C84   C     C_R   0.217973 0.859602 0.581691 -0.032022
H18   H     H_    0.080478 0.905388 0.913397 0.191304
H19   H     H_    0.050293 0.598508 0.890775 0.194237
H20   H     H_    0.229235 0.745837 0.775620 0.172823
H21   H     H_    0.956693 0.794752 0.775429 0.161566
H22   H     H_    0.269295 0.019906 0.607361 0.197381
H23   H     H_    0.147939 0.693557 0.562447 0.185916
C85   C     C_R   0.697622 0.715462 0.902393 -0.008426
C86   C     C_R   0.631629 0.618560 0.878052 -0.114821
C87   C     C_R   0.607376 0.613275 0.836647 -0.108843
C88   C     C_R   0.649061 0.704740 0.819039 -0.014350
C89   C     C_R   0.716502 0.803118 0.843293 0.040566
C90   C     C_R   0.738855 0.806970 0.884726 -0.099103
C91   C     C_R   0.562233 0.747832 0.765955 -0.047495
C92   C     C_R   0.560720 0.770359 0.726720 -0.091368
C93   C     C_R   0.613543 0.740617 0.696614 0.036390
C94   C     C_R   0.660854 0.680786 0.705363 -0.024872
C95   C     C_R   0.664926 0.660619 0.745120 -0.043697
C96   C     C_R   0.619409 0.698086 0.775846 0.047046
C97   C     C_R   0.598873 0.715375 0.620246 -0.089099
C98   C     C_R   0.602627 0.754482 0.583549 0.042695
C99   C     C_R   0.672377 0.929242 0.623052 -0.104836
C100  C     C_R   0.668198 0.889407 0.658927 -0.065239
C101  C     C_R   0.627918 0.781933 0.657891 0.013933
C102  C     C_R   0.635832 0.862405 0.585407 0.015119
H24   H     H_    0.601194 0.546957 0.890828 0.170671
H25   H     H_    0.791974 0.882191 0.902974 0.196105
H26   H     H_    0.693100 0.942212 0.687787 0.158765
H27   H     H_    0.523103 0.815885 0.720381 0.142073
H28   H     H_    0.526927 0.777187 0.789479 0.142821
H29   H     H_    0.555972 0.537826 0.818332 0.176169
H30   H     H_    0.701573 0.656890 0.682400 0.171124
H31   H     H_    0.710159 0.622917 0.752555 0.146882
H32   H     H_    0.570802 0.632748 0.619701 0.180279
H33   H     H_    0.697228 0.011587 0.625056 0.171124
O14   O     O_R   0.828710 0.851830 0.052170 -0.452439
O15   O     O_R   0.005980 0.823990 0.047210 -0.490719
C103  C     C_R   0.052666 0.781586 0.063723 0.547194
O16   O     O_R   0.031900 0.688850 0.050170 -0.467262
O17   O     O_R   0.830940 0.518420 0.048680 -0.457045
C104  C     C_R   0.742616 0.483173 0.065483 0.567543
O18   O     O_R   0.668160 0.499860 0.053480 -0.441835
O19   O     O_R   0.689170 0.693840 0.050110 -0.458515
C105  C     C_R   0.740929 0.790530 0.065881 0.576873
O20   O     O_R   0.803860 0.812940 0.962540 -0.491212
O21   O     O_R   0.982950 0.787950 0.964120 -0.511799
C106  C     C_R   0.020592 0.731376 0.947044 0.541889
O22   O     O_R   0.007050 0.649970 0.960540 -0.496839
O23   O     O_R   0.807910 0.482370 0.965590 -0.506142
C107  C     C_R   0.711380 0.435699 0.949484 0.556234
O24   O     O_R   0.643310 0.460980 0.963840 -0.450367
O25   O     O_R   0.666140 0.657800 0.967020 -0.459735
C108  C     C_R   0.734506 0.721163 0.944713 0.531195
Cr4   Cr    Cr6+3 0.903360 0.812540 0.006510 1.109185
Cr5   Cr    Cr6+3 0.914630 0.587050 0.006280 1.130279
Cr6   Cr    Cr6+3 0.673560 0.582680 0.008540 1.192454
O26   O     O_3   0.830520 0.660760 0.007110 -0.321276
N1    N     N_R   0.537697 0.378546 0.103987 0.118136
O27   O     O_R   0.470037 0.398831 0.123908 -0.247336
O28   O     O_R   0.505396 0.318692 0.068494 -0.234183
C109  C     C_2   0.518348 0.354050 0.437188 0.633249
O29   O     O_2   0.539462 0.387107 0.473827 -0.423848
O30   O     O_R   0.420774 0.333081 0.418216 -0.609722
H34   H     H_    0.374570 0.348568 0.437991 0.378477
N2    N     N_R   0.916653 0.426697 0.182685 0.126950
O31   O     O_R   0.966467 0.490482 0.216294 -0.314299
O32   O     O_R   0.952050 0.365592 0.165732 -0.173780
N3    N     N_R   0.269173 0.769627 0.177104 0.097194
O33   O     O_R   0.271641 0.690510 0.155462 -0.234442
O34   O     O_R   0.332188 0.815449 0.210563 -0.309187
N4    N     N_R   0.917205 0.458041 0.100666 0.123088
O35   O     O_R   0.011562 0.534213 0.115079 -0.256747
O36   O     O_R   0.908588 0.392373 0.068507 -0.236657
N5    N     N_R   0.194411 0.042607 0.328811 0.097283
O37   O     O_R   0.243588 0.134233 0.351621 -0.251283
O38   O     O_R   0.131074 0.028904 0.297487 -0.308381
N6    N     N_R   0.871733 0.001716 0.117681 0.098784
O39   O     O_R   0.961141 0.057683 0.140700 -0.301453
O40   O     O_R   0.856249 0.037287 0.085969 -0.226191
N7    N     N_R   0.836022 0.008048 0.406993 0.101302
O41   O     O_R   0.860217 0.980594 0.439444 -0.256052
O42   O     O_R   0.906006 0.094971 0.395541 -0.292825
N8    N     N_R   0.465806 0.706778 0.384090 0.103894
O43   O     O_R   0.476278 0.664782 0.414605 -0.262468
O44   O     O_R   0.373993 0.661847 0.362470 -0.327413
N9    N     N_R   0.520754 0.675398 0.092492 0.109644
O45   O     O_R   0.499932 0.694391 0.057326 -0.266944
O46   O     O_R   0.451608 0.589639 0.104936 -0.218527
N10   N     N_R   0.848450 0.324573 0.827524 0.125974
O47   O     O_R   0.942034 0.367350 0.847718 -0.238325
O48   O     O_R   0.833591 0.266641 0.792239 -0.276256
N11   N     N_R   0.801724 0.258638 0.613430 0.094645
O49   O     O_R   0.853917 0.216727 0.627863 -0.285941
O50   O     O_R   0.839987 0.312944 0.584003 -0.252735
N12   N     N_R   0.480845 0.302876 0.616442 0.106687
O51   O     O_R   0.513959 0.378694 0.595091 -0.259643
O52   O     O_R   0.379356 0.234269 0.613571 -0.240168
N13   N     N_R   0.472208 0.253050 0.821312 0.124835
O53   O     O_R   0.431754 0.163561 0.797114 -0.232156
O54   O     O_R   0.428625 0.312095 0.819716 -0.241620
N14   N     N_R   0.491465 0.308637 0.908264 0.128487
O55   O     O_R   0.438991 0.356963 0.901141 -0.233721
O56   O     O_R   0.466545 0.254419 0.938066 -0.238111
C110  C     C_2   0.498118 0.331208 0.704747 0.644213
O57   O     O_2   0.401803 0.287509 0.695145 -0.349753
O58   O     O_R   0.541845 0.409018 0.739154 -0.718753
H35   H     H_    0.485971 0.423307 0.752787 0.364832
C111  C     C_2   0.041848 0.615855 0.627011 0.622102
O59   O     O_2   0.051741 0.549365 0.604027 -0.429405
O60   O     O_R   0.967989 0.585108 0.656638 -0.663018
H36   H     H_    0.929005 0.506650 0.656233 0.372395
C112  C     C_2   0.266485 0.753428 0.697757 0.571833
O61   O     O_2   0.318766 0.809753 0.673402 -0.526672
O62   O     O_R   0.288343 0.675950 0.707287 -0.650101
H37   H     H_    0.344643 0.670248 0.690354 0.350173
N15   N     N_R   0.117401 0.948597 0.838465 0.095971
O63   O     O_R   0.076390 0.003832 0.856313 -0.251928
O64   O     O_R   0.187745 0.987915 0.812174 -0.205137
N16   N     N_R   0.949714 0.817080 0.697318 0.087388
O65   O     O_R   0.916145 0.778132 0.659100 -0.316118
O66   O     O_R   0.908523 0.869081 0.717666 -0.275537
N17   N     N_R   0.195410 0.000720 0.679875 0.104858
O67   O     O_R   0.188850 0.079988 0.670279 -0.193300
O68   O     O_R   0.232745 0.007100 0.716648 -0.240302
N18   N     N_R   0.069767 0.588287 0.811760 0.091015
O69   O     O_R   0.003286 0.547680 0.779111 -0.288814
O70   O     O_R   0.122363 0.542284 0.821813 -0.224246
C113  C     C_2   0.631575 0.194337 0.209295 0.596379
O71   O     O_2   0.561988 0.112907 0.219050 -0.480112
O72   O     O_R   0.666953 0.193021 0.170097 -0.653166
H38   H     H_    0.628446 0.120995 0.152815 0.368397
C114  C     C_2   0.572872 0.681840 0.544067 0.611033
O73   O     O_2   0.516045 0.587634 0.543162 -0.427955
O74   O     O_R   0.612339 0.720359 0.508019 -0.648561
H39   H     H_    0.588047 0.662863 0.483461 0.387430
C115  C     C_2   0.768066 0.902943 0.826338 0.595482
O75   O     O_2   0.788681 0.985166 0.848123 -0.442126
O76   O     O_R   0.795946 0.904044 0.786013 -0.646196
H40   H     H_    0.830390 0.976714 0.778339 0.388483
C116  C     C_2   0.830590 0.575277 0.329687 0.594898
O77   O     O_2   0.847062 0.572577 0.365608 -0.480979
O78   O     O_R   0.866784 0.672117 0.316752 -0.695259
H41   H     H_    0.904608 0.733253 0.339847 0.361042
C117  C     C_2   0.578301 0.436402 0.360147 0.637880
O79   O     O_2   0.577632 0.508818 0.382707 -0.429282
O80   O     O_R   0.535093 0.410433 0.319615 -0.665866
H42   H     H_    0.506214 0.457437 0.312605 0.364741

loop_
_geom_bond_atom_site_label_1
_geom_bond_atom_site_label_2
_geom_bond_distance
_ccdc_geom_bond_type
O23   Cr5   1.914325 S    
C48   C49   1.392639 A    
C54   C55   1.416077 A    
O14   C105  1.274216 A    
N5    O37   1.301636 A    
C31   C35   1.414494 A    
C91   H28   1.083551 S    
C75   C76   1.414928 A    
C62   C63   1.410915 A    
C67   C68   1.400618 A    
C67   C72   1.400050 A    
C31   C32   1.405776 A    
C8    N1    1.437321 S    
C89   C90   1.396100 A    
C9    H3    1.084237 S    
C110  O58   1.397296 S    
C64   C65   1.204616 T    
C57   C58   1.399610 A    
C33   C38   1.402116 A    
O23   C107  1.278721 A    
C29   C30   1.395036 A    
C4    C102  1.468623 S    
H8    C30   1.082142 S    
Cr5   O26   1.972531 S    
O8    Cr1   1.915899 S    
C10   C11   1.403981 A    
O76   H40   1.013855 S    
N9    O46   1.301385 A    
C68   H18   1.083442 S    
C61   C66   1.415496 A    
C59   C60   1.401897 A    
O17   C104  1.275742 A    
C1    C39   1.495649 S    
C88   C96   1.467964 S    
N18   O69   1.301465 A    
C21   C24   1.403196 A    
O2    C1    1.279486 A    
C53   C58   1.420132 A    
C77   H21   1.084007 S    
O4    C2    1.275084 A    
C47   N9    1.439070 S    
C73   C74   1.392237 A    
C25   C30   1.402568 A    
H12   C45   1.083942 S    
N2    O31   1.300680 A    
C59   C63   1.411872 A    
C113  O71   1.223970 D    
C70   C78   1.470057 S    
H13   C43   1.084066 S    
C115  O75   1.223511 D    
N1    O27   1.301402 A    
C110  O57   1.221755 D    
C59   N10   1.445090 S    
C70   C71   1.415386 A    
Cr6   O26   1.970064 S    
C77   C78   1.400414 A    
C10   C18   1.463749 S    
C104  O18   1.275625 A    
C80   H22   1.082861 S    
C106  O22   1.269460 A    
N3    O34   1.301369 A    
N11   O49   1.301412 A    
C109  O30   1.398210 S    
C116  O78   1.399619 S    
O15   Cr4   1.917244 S    
N16   O65   1.301272 A    
C41   C42   1.392996 A    
C93   C94   1.403686 A    
C60   C66   1.404899 A    
C31   N3    1.442555 S    
C97   C101  1.400274 A    
O80   H42   1.013936 S    
H7    C29   1.083949 S    
C66   C107  1.488511 S    
O20   C108  1.283464 A    
C55   C56   1.409411 A    
N10   O48   1.301359 A    
C86   C87   1.396579 A    
O2    Cr1   1.919731 S    
N8    O43   1.301265 A    
O15   C103  1.277780 A    
C52   C105  1.494106 S    
Cr3   O13   1.972264 S    
C116  O77   1.222700 D    
C69   N15   1.439835 S    
C26   H9    1.082974 S    
N16   O66   1.300664 A    
C69   C70   1.415938 A    
C112  O62   1.398065 S    
C71   C72   1.395823 A    
C114  O74   1.398690 S    
C58   N11   1.437515 S    
C73   C78   1.394528 A    
N2    O32   1.301188 A    
C34   H10   1.083998 S    
C100  C101  1.399992 A    
N17   O68   1.301147 A    
O1    Cr1   2.032774 S    
N4    O36   1.301269 A    
C45   C46   1.402689 A    
C85   C108  1.473315 S    
C27   C28   1.412570 A    
C68   C69   1.396419 A    
O10   Cr2   1.914212 S    
C82   C111  1.492050 S    
C20   C24   1.423028 A    
Cr1   O13   1.968475 S    
C17   C18   1.403039 A    
C8    C9    1.393783 A    
C22   H1    1.084227 S    
C117  O80   1.398157 S    
O19   Cr6   1.915900 S    
C12   N4    1.435238 S    
O4    Cr2   1.920827 S    
C98   C114  1.488056 S    
N13   O53   1.301169 A    
C46   C52   1.423349 A    
C111  O59   1.223426 D    
C26   C27   1.405058 A    
C39   C44   1.424124 A    
N10   O47   1.301272 A    
C95   H31   1.083322 S    
O11   Cr3   2.027598 S    
C13   C18   1.411331 A    
C61   N14   1.435418 S    
O12   Cr3   1.919380 S    
C1    O3    1.273993 A    
C38   C103  1.475234 S    
C111  O60   1.398916 S    
C36   C37   1.204168 T    
N18   O70   1.300895 A    
C19   C20   1.420738 A    
C21   C22   1.379986 A    
C19   C23   1.415252 A    
C11   N2    1.437245 S    
N12   O51   1.300933 A    
C13   C14   1.395662 A    
O16   Cr5   2.031223 S    
C94   C95   1.398106 A    
O14   Cr4   2.035215 S    
C100  H26   1.083680 S    
C91   C92   1.389380 A    
O19   C105  1.278121 A    
O21   Cr4   1.917782 S    
O25   Cr6   1.916941 S    
O7    Cr1   2.036009 S    
C87   H29   1.081788 S    
O1    C3    1.273126 A    
C63   C64   1.443523 S    
C16   C116  1.491672 S    
C43   C44   1.401238 A    
N6    O40   1.301462 A    
O12   C6    1.273017 A    
O6    C3    1.272827 A    
C3    C25   1.480202 S    
C61   C62   1.412449 A    
O60   H36   1.014001 S    
C94   H30   1.082876 S    
C89   C115  1.490376 S    
C7    C12   1.425505 A    
C47   C48   1.401841 A    
C41   H15   1.083977 S    
C6    C84   1.464460 S    
N8    O44   1.301227 A    
C103  O16   1.267538 A    
C2    O5    1.272001 A    
C27   N5    1.441932 S    
C109  O29   1.223140 D    
C5    C53   1.498272 S    
C80   C84   1.396898 A    
C81   H23   1.083795 S    
C46   N6    1.437330 S    
N7    O42   1.301526 A    
O25   C108  1.301750 A    
N12   O52   1.300958 A    
C91   C96   1.400091 A    
Cr2   O13   1.969549 S    
C92   C93   1.402793 A    
C25   C26   1.407755 A    
C79   N17   1.438619 S    
C107  O24   1.272697 A    
C2    C24   1.480079 S    
C50   C51   1.202662 T    
C34   C35   1.399956 A    
C86   H24   1.082062 S    
C93   C101  1.470478 S    
O20   Cr4   2.033496 S    
C74   C75   1.420243 A    
C21   H5    1.083388 S    
C88   C89   1.416808 A    
C76   N16   1.440109 S    
C79   C83   1.416619 A    
C114  O73   1.223499 D    
C53   C54   1.423377 A    
C115  O76   1.397418 S    
O21   C106  1.271764 A    
C15   C23   1.468101 S    
O62   H37   1.013434 S    
C98   C102  1.420405 A    
O72   H38   1.013956 S    
N5    O38   1.301370 A    
O17   Cr5   1.917486 S    
O9    Cr2   2.036414 S    
C73   H20   1.084623 S    
N15   O64   1.301349 A    
C49   C50   1.434568 S    
C17   H4    1.084271 S    
C54   N12   1.435012 S    
C19   C117  1.487911 S    
C39   C40   1.424299 A    
C15   C16   1.414503 A    
C72   H19   1.083658 S    
C20   C109  1.485482 S    
C33   H11   1.081922 S    
N7    O41   1.301609 A    
C99   C102  1.400883 A    
O6    Cr3   1.911419 S    
C47   C52   1.423539 A    
C42   C51   1.434656 S    
H17   C57   1.084254 S    
C74   C112  1.485583 S    
C81   C82   1.399645 A    
O24   Cr6   2.032225 S    
C90   H25   1.083435 S    
C99   H33   1.083210 S    
N14   O56   1.301108 A    
C79   C80   1.394104 A    
C95   C96   1.402892 A    
C56   C65   1.442147 S    
C28   C37   1.439180 S    
C16   C17   1.400753 A    
C75   C83   1.469939 S    
O78   H41   1.014321 S    
C9    C10   1.393535 A    
N13   O54   1.300265 A    
N4    O35   1.301182 A    
N11   O50   1.301539 A    
O5    Cr3   2.037539 S    
C76   C77   1.398834 A    
C117  O79   1.223074 D    
C14   C15   1.402072 A    
O18   Cr6   2.034663 S    
C33   C34   1.394293 A    
C22   C23   1.393454 A    
C48   H14   1.083959 S    
O7    C6    1.265852 A    
C87   C88   1.403130 A    
C5    O11   1.275333 A    
C7    C104  1.488795 S    
N14   O55   1.300320 A    
N17   O67   1.301102 A    
N15   O63   1.301501 A    
C13   C113  1.492824 S    
C113  O72   1.398310 S    
C85   C90   1.404987 A    
C92   H27   1.083334 S    
C67   C106  1.467775 S    
C32   C38   1.405125 A    
H16   C60   1.082584 S    
C40   C41   1.402580 A    
N1    O28   1.301622 A    
O74   H39   1.013773 S    
C81   C84   1.400122 A    
C99   C100  1.387720 A    
C7    C8    1.419101 A    
C112  O61   1.222817 D    
O30   H34   1.013807 S    
O3    Cr2   2.032085 S    
C55   C110  1.488697 S    
C35   C36   1.439170 S    
C42   C43   1.392389 A    
C4    O9    1.268490 A    
C97   H32   1.083932 S    
N9    O45   1.301699 A    
N6    O39   1.301492 A    
C45   C49   1.393586 A    
C44   N7    1.437564 S    
H6    C32   1.083247 S    
C11   C12   1.406960 A    
C40   N8    1.437113 S    
C62   N13   1.436490 S    
O10   C5    1.281936 A    
C14   H2    1.085040 S    
O22   Cr5   2.033412 S    
N3    O33   1.301592 A    
C82   C83   1.417162 A    
C56   C57   1.393850 A    
O58   H35   1.013455 S    
C97   C98   1.408138 A    
C71   N18   1.435687 S    
O8    C4    1.269258 A    
C28   C29   1.400653 A    
C85   C86   1.400815 A    
Cr4   O26   1.969390 S    
