data_mof_unit_27803.cif
_audit_creation_date              2012-12-11T14:08:25-0500
_audit_creation_method            fapswitch 2.2
_symmetry_space_group_name_H-M    P1
_symmetry_Int_Tables_number       1
_space_group_crystal_system       triclinic
_cell_length_a                    28.128931
_cell_length_b                    7.195529
_cell_length_c                    17.195491
_cell_angle_alpha                 90.000273
_cell_angle_beta                  102.237359
_cell_angle_gamma                 90.001428
_cell_volume                      3401.32876662

loop_
_atom_site_label
_atom_site_type_symbol
_atom_type_description
_atom_site_fract_x
_atom_site_fract_y
_atom_site_fract_z
_atom_type_partial_charge
O1    O     O_R   0.000700 0.436510 0.857920 -0.532505
O2    O     O_R   0.999300 0.563490 0.142080 -0.532217
O3    O     O_R   0.999300 0.936510 0.642080 -0.532508
O4    O     O_R   0.000700 0.063490 0.357920 -0.532213
O5    O     O_R   0.930080 0.766380 0.721890 -0.542105
O6    O     O_R   0.069920 0.233620 0.278110 -0.541056
O7    O     O_R   0.069920 0.266380 0.778110 -0.542114
O8    O     O_R   0.930080 0.733620 0.221890 -0.541090
C1    C     C_R   0.910402 0.597654 0.710219 0.695744
C2    C     C_R   0.089370 0.402242 0.293019 0.695593
C3    C     C_R   0.089597 0.097657 0.789778 0.695744
C4    C     C_R   0.910629 0.902239 0.206987 0.695628
O9    O     O_R   0.996180 0.766230 0.862310 -0.543274
O10   O     O_R   0.003820 0.233770 0.137690 -0.544238
O11   O     O_R   0.003820 0.266230 0.637690 -0.543276
O12   O     O_R   0.996180 0.733770 0.362310 -0.544241
O13   O     O_R   0.065870 0.936460 0.783500 -0.538383
O14   O     O_R   0.934130 0.063540 0.216500 -0.538029
O15   O     O_R   0.934130 0.436460 0.716500 -0.538376
O16   O     O_R   0.065870 0.563540 0.283500 -0.537988
C5    C     C_R   0.998483 0.596436 0.894480 0.760267
C6    C     C_R   0.001497 0.403559 0.105515 0.760052
C7    C     C_R   0.001517 0.096435 0.605520 0.760263
C8    C     C_R   0.998503 0.903560 0.394485 0.760070
O17   O     O_3   0.022790 0.603020 0.723980 -0.377724
O18   O     O_3   0.977210 0.396980 0.276020 -0.377043
O19   O     O_3   0.977210 0.103020 0.776020 -0.377716
O20   O     O_3   0.022790 0.896980 0.223980 -0.377007
V1    V     V_3+5 0.995770 0.877900 0.754830 1.408355
V2    V     V_3+5 0.004230 0.122100 0.245170 1.411021
V3    V     V_3+5 0.004230 0.377900 0.745170 1.408349
V4    V     V_3+5 0.995770 0.622100 0.254830 1.410985
C9    C     C_2   0.001725 0.082623 0.519586 -0.330672
C10   C     C_2   0.998326 0.917364 0.480430 -0.332444
C11   C     C_2   0.998275 0.582623 0.980414 -0.330674
C12   C     C_2   0.001674 0.417364 0.019570 -0.332426
H1    H     H_    0.004512 0.211441 0.487923 0.153258
H2    H     H_    0.995546 0.788545 0.512095 0.153667
H3    H     H_    0.995488 0.711440 0.012077 0.153262
H4    H     H_    0.004454 0.288546 0.987904 0.153667
C13   C     C_R   0.679702 0.837375 0.022173 0.591372
C14   C     C_R   0.322868 0.154707 0.937839 0.580864
C15   C     C_R   0.320292 0.337304 0.477824 0.591438
C16   C     C_R   0.677120 0.654735 0.562142 0.580898
O21   O     O_2   0.703967 0.696871 0.996089 -0.519215
O22   O     O_2   0.296781 0.235428 0.986057 -0.519852
O23   O     O_2   0.296039 0.196614 0.503816 -0.519100
O24   O     O_2   0.703203 0.735502 0.513922 -0.519795
N1    N     N_R   0.703987 0.957615 0.079047 -0.554808
N2    N     N_R   0.299424 0.070571 0.868779 -0.557242
N3    N     N_R   0.295994 0.457695 0.421029 -0.554896
N4    N     N_R   0.700569 0.570572 0.631200 -0.557257
C17   C     C_R   0.679748 0.101737 0.105819 0.601515
C18   C     C_R   0.325354 0.984918 0.819736 0.595833
C19   C     C_R   0.320214 0.602005 0.394341 0.601640
C20   C     C_R   0.674641 0.484908 0.680250 0.595857
C21   C     C_R   0.787109 0.087789 0.102958 -0.085156
C22   C     C_R   0.219474 0.911479 0.842256 -0.085327
C23   C     C_R   0.212843 0.587487 0.397447 -0.085120
C24   C     C_R   0.780519 0.411483 0.657681 -0.085311
C25   C     C_R   0.836895 0.075967 0.135625 -0.195593
C26   C     C_R   0.168498 0.917996 0.823978 -0.196176
C27   C     C_R   0.163056 0.575652 0.364772 -0.195545
C28   C     C_R   0.831496 0.418000 0.675966 -0.196129
C29   C     C_R   0.826167 0.761796 0.179229 -0.199065
C30   C     C_R   0.171635 0.253529 0.815094 -0.193866
C31   C     C_R   0.173864 0.262118 0.320467 -0.198970
C32   C     C_R   0.828363 0.753512 0.684925 -0.193833
C33   C     C_R   0.775974 0.774961 0.147418 -0.077544
C34   C     C_R   0.222479 0.246598 0.833196 -0.080733
C35   C     C_R   0.224055 0.275294 0.352306 -0.077511
C36   C     C_R   0.777519 0.746582 0.666815 -0.080710
C37   C     C_R   0.755951 0.938649 0.109221 0.356868
C38   C     C_R   0.246865 0.075816 0.847211 0.372839
C39   C     C_R   0.244035 0.438673 0.390851 0.356862
C40   C     C_R   0.753129 0.575810 0.652761 0.372820
C41   C     C_R   0.604675 0.011179 0.015586 -0.035190
C42   C     C_R   0.401192 0.068853 0.909756 -0.046104
C43   C     C_R   0.395308 0.511238 0.484466 -0.035114
C44   C     C_R   0.598798 0.568851 0.590239 -0.046105
C45   C     C_R   0.629594 0.861587 0.989577 -0.033196
C46   C     C_R   0.374001 0.156620 0.959263 -0.032085
C47   C     C_R   0.370398 0.361551 0.510432 -0.033203
C48   C     C_R   0.625985 0.656636 0.540725 -0.032120
C49   C     C_R   0.603849 0.739637 0.932030 -0.125504
C50   C     C_R   0.398381 0.241312 0.029785 -0.114855
C51   C     C_R   0.396149 0.239546 0.567945 -0.125571
C52   C     C_R   0.601601 0.741332 0.470205 -0.114766
C53   C     C_R   0.629981 0.132146 0.074113 -0.044255
C54   C     C_R   0.376733 0.981684 0.839605 -0.055826
C55   C     C_R   0.369990 0.632336 0.426006 -0.044308
C56   C     C_R   0.623262 0.481669 0.660388 -0.055821
C57   C     C_R   0.857203 0.913171 0.174457 -0.054088
C58   C     C_R   0.143819 0.089367 0.810347 -0.053433
C59   C     C_R   0.142791 0.413181 0.325579 -0.054120
C60   C     C_R   0.856179 0.589361 0.689640 -0.053451
H5    H     H_    0.840538 0.634091 0.208343 0.142884
H6    H     H_    0.154230 0.388121 0.804716 0.134753
H7    H     H_    0.159523 0.134684 0.291054 0.142947
H8    H     H_    0.845770 0.888097 0.695336 0.134767
H9    H     H_    0.752621 0.658494 0.153350 0.157950
H10   H     H_    0.243026 0.374720 0.836570 0.129028
H11   H     H_    0.247440 0.159103 0.346121 0.157978
H12   H     H_    0.756974 0.874699 0.663470 0.129034
H13   H     H_    0.621516 0.619641 0.912664 0.175439
H14   H     H_    0.378464 0.304309 0.070407 0.177246
H15   H     H_    0.378487 0.119501 0.587286 0.175441
H16   H     H_    0.621515 0.804337 0.429576 0.177268
C61   C     C_R   0.479871 0.962300 0.885373 -0.000254
C62   C     C_R   0.528693 0.178008 0.016200 -0.010079
C63   C     C_R   0.520122 0.462283 0.614633 -0.000257
C64   C     C_R   0.471293 0.678069 0.483846 -0.010117
C65   C     C_R   0.477031 0.168554 0.998522 0.049330
C66   C     C_R   0.529709 0.925053 0.920345 0.108453
C67   C     C_R   0.522955 0.668579 0.501495 0.049329
C68   C     C_R   0.470283 0.425034 0.579664 0.108450
C69   C     C_R   0.452792 0.067056 0.930969 0.030368
C70   C     C_R   0.554337 0.038724 0.983713 0.083290
C71   C     C_R   0.547198 0.567057 0.569037 0.030337
C72   C     C_R   0.445650 0.538755 0.516321 0.083408
C73   C     C_R   0.455233 0.896945 0.808814 -0.028654
C74   C     C_R   0.555923 0.314504 0.067196 -0.038103
C75   C     C_R   0.544763 0.396917 0.691188 -0.028662
C76   C     C_R   0.444061 0.814642 0.432903 -0.038153
C77   C     C_R   0.403970 0.901089 0.788994 -0.167619
C78   C     C_R   0.605725 0.285523 0.097562 -0.159330
C79   C     C_R   0.596027 0.401062 0.711004 -0.167604
C80   C     C_R   0.394247 0.785745 0.402584 -0.159302
O25   O     O_2   0.301622 0.904917 0.751552 -0.516889
O26   O     O_2   0.703650 0.215171 0.163592 -0.523804
O27   O     O_2   0.698376 0.404907 0.748437 -0.516844
O28   O     O_2   0.296279 0.715705 0.336698 -0.523765
C81   C     C_R   0.554727 0.770161 0.898536 -0.075968
C82   C     C_R   0.448969 0.245682 0.049415 -0.114676
C83   C     C_R   0.445270 0.270099 0.601450 -0.076095
C84   C     C_R   0.551012 0.745703 0.450591 -0.114546
H17   H     H_    0.148512 0.788613 0.820717 0.134562
H18   H     H_    0.859568 0.194446 0.129520 0.136071
H19   H     H_    0.851480 0.288627 0.679198 0.134560
H20   H     H_    0.140346 0.693844 0.371152 0.136019
H21   H     H_    0.385109 0.847402 0.731890 0.201940
H22   H     H_    0.626088 0.387738 0.137558 0.194952
H23   H     H_    0.614891 0.347367 0.768107 0.201951
H24   H     H_    0.373880 0.888026 0.362635 0.194983
H25   H     H_    0.536108 0.667916 0.857117 0.142542
H26   H     H_    0.465785 0.304784 0.106375 0.140394
H27   H     H_    0.463893 0.167842 0.642856 0.142560
H28   H     H_    0.534188 0.804826 0.393640 0.140393
H29   H     H_    0.237682 0.778507 0.853360 0.128093
H30   H     H_    0.772608 0.214498 0.073058 0.147978
H31   H     H_    0.762310 0.278518 0.646547 0.128092
H32   H     H_    0.227319 0.713943 0.427617 0.148018
C85   C     C_2   0.480687 0.851872 0.743136 0.747460
O29   O     O_2   0.458987 0.768946 0.684148 -0.553668
O30   O     O_R   0.527963 0.914899 0.745300 -0.652310
H33   H     H_    0.540346 0.878448 0.696178 0.302510
C86   C     C_2   0.535693 0.499914 0.080994 0.745756
O31   O     O_2   0.551985 0.585594 0.142330 -0.552410
O32   O     O_R   0.499031 0.579444 0.022713 -0.663494
H34   H     H_    0.488267 0.705271 0.039189 0.297242
C87   C     C_2   0.519310 0.351851 0.756867 0.747549
O33   O     O_2   0.541013 0.268973 0.815865 -0.553656
O34   O     O_R   0.472030 0.414835 0.754694 -0.652294
H35   H     H_    0.459644 0.378364 0.803811 0.302507
C88   C     C_2   0.464303 0.000045 0.419126 0.745917
O35   O     O_2   0.447959 0.085896 0.357890 -0.552491
O36   O     O_R   0.501025 0.079405 0.477335 -0.663530
H36   H     H_    0.511790 0.205242 0.460879 0.297276

loop_
_geom_bond_atom_site_label_1
_geom_bond_atom_site_label_2
_ccdc_geom_bond_type
O17   V3    S    
C47   C51   A    
N1    C17   A    
C22   C26   A    
C88   O35   D    
O19   V1    S    
O13   V1    S    
C27   H20   S    
O1    C5    A    
O3    C7    A    
O34   H35   S    
C14   C46   A    
C44   C48   A    
O4    V2    S    
O15   V3    S    
C62   C70   A    
C87   O33   D    
C61   C69   A    
C68   C83   A    
C23   H32   S    
C42   C54   A    
O7    C3    A    
C41   C53   A    
C32   C60   A    
C73   C85   S    
C63   C71   A    
N3    C39   S    
C18   C54   A    
N2    C38   S    
C52   H16   S    
C25   C57   A    
C25   H18   S    
C31   C35   A    
C67   C84   A    
C27   C59   A    
O1    V3    S    
C15   C47   A    
O2    V4    S    
C14   O22   S    
C21   C37   A    
O3    V1    S    
C34   C38   A    
C19   C55   A    
C73   C77   A    
C1    O15   A    
C86   O31   D    
C11   C12   D    
C2    O16   A    
C7    C9    S    
O2    C6    A    
C33   C37   A    
C63   C68   A    
O14   V2    S    
C85   O30   S    
C43   C55   A    
C22   H29   S    
C31   H7    S    
C76   C80   A    
C16   N4    A    
O11   C7    A    
C44   C71   A    
O12   C8    A    
C21   H30   S    
C31   C59   A    
C50   H14   S    
O10   V2    S    
C49   H13   S    
C13   N1    A    
C87   O34   S    
C50   C82   A    
C45   C49   A    
O5    V1    S    
C53   C78   A    
C82   H26   S    
O7    V3    S    
C55   C80   A    
C63   C75   A    
O8    V4    S    
C51   C83   A    
C12   H4    S    
C42   C69   A    
C52   C84   A    
C41   C70   A    
C77   H21   S    
O36   H36   S    
C64   C72   A    
O18   V4    S    
C36   H12   S    
N4    C40   S    
C46   C50   A    
O11   V3    S    
C24   C40   A    
C8    C10   S    
C68   C72   A    
C32   C36   A    
C24   H31   S    
C74   C78   A    
C11   H3    S    
C32   H8    S    
O5    C1    A    
C54   C77   A    
C42   C46   A    
C75   C79   A    
O32   H34   S    
C1    C60   S    
C41   C45   A    
O8    C4    A    
C13   C45   A    
C43   C72   A    
C9    C10   D    
O9    C5    A    
C36   C40   A    
C79   H23   S    
C21   C25   A    
C44   C56   A    
C80   H24   S    
C62   C65   A    
C28   C60   A    
C66   C70   A    
C61   C66   A    
C14   N2    A    
C65   C69   A    
C3    C58   S    
O6    V2    S    
C67   C71   A    
C65   C82   A    
C26   C58   A    
C17   C53   A    
N1    C37   S    
C4    C57   S    
C81   H25   S    
C56   C79   A    
C23   C39   A    
C22   C38   A    
O16   V4    S    
O9    V1    S    
C18   O25   S    
C35   H11   S    
C3    O13   A    
C10   H2    S    
C23   C27   A    
C75   C87   S    
C48   C52   A    
C17   O26   S    
C16   C48   A    
O6    C2    A    
C86   O32   S    
C34   H10   S    
C64   C76   A    
C5    C11   S    
C33   H9    S    
O12   V4    S    
C6    C12   S    
C83   H27   S    
C30   C58   A    
C24   C28   A    
O10   C6    A    
O20   V2    S    
C30   H6    S    
C29   H5    S    
N2    C18   A    
C62   C74   A    
C35   C39   A    
C15   N3    A    
C30   C34   A    
C2    C59   S    
O4    C8    A    
C29   C33   A    
C29   C57   A    
C66   C81   A    
C78   H22   S    
N3    C19   A    
C26   H17   S    
C9    H1    S    
C20   O27   S    
C76   C88   S    
C43   C47   A    
N4    C20   A    
C20   C56   A    
C51   H15   S    
C88   O36   S    
C19   O28   S    
C84   H28   S    
C4    O14   A    
O30   H33   S    
C13   O21   S    
C61   C73   A    
C85   O29   D    
C15   O23   S    
C64   C67   A    
C74   C86   S    
C16   O24   S    
C49   C81   A    
C28   H19   S    
