data_mof_unit_14624.cif
_audit_creation_date              2012-12-10T20:41:03-0500
_audit_creation_method            fapswitch 2.2
_symmetry_space_group_name_H-M    P1
_symmetry_Int_Tables_number       1
_space_group_crystal_system       triclinic
_cell_length_a                    27.742278
_cell_length_b                    10.671713
_cell_length_c                    9.846085
_cell_angle_alpha                 89.984856
_cell_angle_beta                  90.106821
_cell_angle_gamma                 90.054838
_cell_volume                      2915.00207615

loop_
_atom_site_label
_atom_site_type_symbol
_atom_type_description
_atom_site_fract_x
_atom_site_fract_y
_atom_site_fract_z
_atom_type_partial_charge
C1    C     C_R   0.501357 0.259924 0.500073 0.904850
C2    C     C_R   0.974676 0.391126 0.522199 0.043822
C3    C     C_R   0.974243 0.620892 0.493488 0.074264
C4    C     C_R   0.406030 0.500310 0.500050 0.885216
C5    C     C_R   0.949227 0.505540 0.507131 0.069388
C6    C     C_R   0.948104 0.279977 0.545521 -0.216638
C7    C     C_R   0.898131 0.280475 0.546696 -0.133994
C8    C     C_R   0.872826 0.391633 0.525111 -0.020831
C9    C     C_R   0.898190 0.504557 0.505447 -0.054495
C10   C     C_R   0.872414 0.616469 0.483964 -0.021649
C11   C     C_R   0.822019 0.613313 0.482434 0.506090
C12   C     C_R   0.277280 0.473302 0.385239 -0.088569
C13   C     C_R   0.822423 0.392885 0.523538 0.505168
C14   C     C_R   0.722161 0.510343 0.378464 -0.101261
C15   C     C_R   0.672084 0.509493 0.377701 -0.213946
C16   C     C_R   0.501430 0.740065 0.500022 0.881448
C17   C     C_R   0.671958 0.492103 0.623909 -0.212983
C18   C     C_R   0.722019 0.492583 0.624232 -0.102413
C19   C     C_R   0.747040 0.501813 0.501636 0.322538
C20   C     C_R   0.025632 0.391504 0.514212 0.066310
C21   C     C_R   0.050715 0.507635 0.509184 0.070386
C22   C     C_R   0.025198 0.622435 0.504053 0.003251
C23   C     C_R   0.253027 0.506263 0.504257 0.297353
C24   C     C_R   0.052488 0.279185 0.509414 -0.217504
C25   C     C_R   0.101895 0.737470 0.513935 0.508245
C26   C     C_R   0.947269 0.730887 0.467737 -0.213261
C27   C     C_R   0.897317 0.728504 0.463561 -0.139747
C28   C     C_R   0.593990 0.500076 0.500138 0.864420
C29   C     C_R   0.051449 0.735572 0.511435 -0.330563
C30   C     C_R   0.506713 0.063880 0.623626 0.048387
C31   C     C_R   0.508735 0.128560 0.501041 -0.077959
C32   C     C_R   0.519591 0.064862 0.380363 -0.193135
C33   C     C_R   0.519622 0.935305 0.380342 -0.187395
C34   C     C_R   0.101787 0.508682 0.509010 -0.129967
C35   C     C_R   0.508852 0.871435 0.501037 -0.133422
C36   C     C_R   0.507067 0.935921 0.623738 0.037932
C37   C     C_3   0.470497 0.929533 0.735768 0.300743
C38   C     C_3   0.470436 0.071926 0.735604 -0.537101
C39   C     C_R   0.477249 0.406565 0.071296 0.118109
C40   C     C_R   0.177606 0.396071 0.505918 0.507854
C41   C     C_R   0.526322 0.585038 0.072155 -0.114460
C42   C     C_R   0.526425 0.584827 0.928039 -0.055345
C43   C     C_R   0.477051 0.406868 0.928379 0.119856
C44   C     C_3   0.424668 0.375966 0.920971 -0.544704
C45   C     C_R   0.127317 0.394439 0.507375 0.002280
C46   C     C_3   0.424620 0.376711 0.075453 0.247468
C47   C     C_R   0.178173 0.619684 0.508374 0.547124
C48   C     C_R   0.278731 0.537238 0.621707 -0.089830
C49   C     C_R   0.328778 0.535177 0.620305 -0.211268
C50   C     C_R   0.327344 0.471348 0.383548 -0.186319
C51   C     C_R   0.102347 0.280900 0.506245 -0.121814
C52   C     C_R   0.127417 0.623383 0.510169 -0.082705
C53   C     C_R   0.353410 0.502236 0.501084 -0.050127
C54   C     C_R   0.646649 0.500475 0.500541 -0.036989
H1    H     H_    0.345495 0.444422 0.291125 0.173452
H2    H     H_    0.485784 0.114957 0.829032 0.209463
H3    H     H_    0.546779 0.655226 0.126734 0.144350
H4    H     H_    0.547054 0.654638 0.873611 0.157693
H5    H     H_    0.402963 0.453243 0.876559 0.196643
H6    H     H_    0.417967 0.282475 0.875144 0.212901
H7    H     H_    0.402606 0.453135 0.119848 0.144007
H8    H     H_    0.121281 0.192187 0.502644 0.197755
H9    H     H_    0.653381 0.516253 0.281311 0.161285
H10   H     H_    0.741707 0.517382 0.283654 0.138630
H11   H     H_    0.879395 0.192891 0.564579 0.191290
H12   H     H_    0.963682 0.820258 0.446380 0.143964
H13   H     H_    0.964832 0.191023 0.566629 0.140972
H14   H     H_    0.036062 0.187809 0.504254 0.135556
H15   H     H_    0.348110 0.560358 0.711935 0.157859
H16   H     H_    0.259847 0.562602 0.713831 0.144786
H17   H     H_    0.103331 0.920739 0.521450 0.319625
H18   H     H_    0.878280 0.815281 0.443979 0.192578
H19   H     H_    0.033533 0.824690 0.519546 0.133733
H20   H     H_    0.521455 0.912677 0.873863 0.333503
H21   H     H_    0.437560 0.196448 0.095236 0.342650
H22   H     H_    0.653170 0.484993 0.719940 0.162095
H23   H     H_    0.741452 0.486151 0.719481 0.138579
H24   H     H_    0.524767 0.114042 0.285208 0.169218
H25   H     H_    0.524808 0.886230 0.285172 0.172497
H26   H     H_    0.435674 0.886648 0.704271 0.141137
H27   H     H_    0.257258 0.449102 0.294431 0.146635
H28   H     H_    0.435595 0.112572 0.701186 0.185106
N1    N     N_R   0.201685 0.507399 0.506166 -0.373068
N2    N     N_R   0.798340 0.502659 0.502336 -0.358934
N3    N     N_R   0.499670 0.499140 0.142800 -0.125010
N4    N     N_R   0.499670 0.499180 0.857150 -0.098044
O1    O     O_R   0.500010 0.316790 0.614690 -0.613765
O2    O     O_R   0.571250 0.500000 0.614690 -0.628127
O3    O     O_R   0.571240 0.499960 0.385340 -0.627494
O4    O     O_2   0.202451 0.287318 0.505022 -0.530387
O5    O     O_3   0.126535 0.850120 0.520679 -0.688171
O6    O     O_3   0.488867 0.877304 0.856580 -0.746466
O7    O     O_3   0.414750 0.258858 0.133504 -0.722685
O8    O     O_2   0.797570 0.285450 0.542216 -0.549611
O9    O     O_2   0.204126 0.726686 0.507523 -0.462315
O10   O     O_2   0.796771 0.719801 0.462219 -0.550186
O11   O     O_R   0.500000 0.316760 0.385350 -0.607363
O12   O     O_R   0.428760 0.500040 0.614660 -0.621668
O13   O     O_R   0.428750 0.500000 0.385310 -0.611664
O14   O     O_R   0.500000 0.683240 0.614650 -0.600978
O15   O     O_R   0.499990 0.683210 0.385310 -0.623210
Zn1   Zn    Zn3+2 0.500000 0.500020 0.653130 0.969152
Zn2   Zn    Zn3+2 0.500000 0.499980 0.346870 0.969922

loop_
_geom_bond_atom_site_label_1
_geom_bond_atom_site_label_2
_ccdc_geom_bond_type
C10   C27   A    
C1    O1    A    
O13   Zn2   S    
C8    C13   A    
C22   C29   A    
C4    O12   A    
C4    C53   S    
C41   C42   A    
C35   C36   A    
C42   H4    S    
C7    C8    A    
C13   N2    A    
C26   C27   A    
C23   N1    S    
C36   C37   S    
C16   C35   S    
C30   C31   A    
C29   H19   S    
C45   C51   A    
C44   H5    S    
C1    C31   S    
C30   C38   S    
C18   C19   A    
H20   O6    S    
C11   O10   S    
C20   C24   A    
C8    C9    A    
C28   O2    A    
C17   H22   S    
C28   O3    A    
C42   N4    A    
C47   N1    A    
C9    C10   A    
N3    Zn2   S    
C24   C51   A    
O15   Zn2   S    
C49   H15   S    
C21   C22   A    
C38   H28   S    
C40   N1    A    
C2    C6    A    
C51   H8    S    
C44   C46   S    
C6    C7    A    
C25   C29   A    
C40   C45   A    
C37   H26   S    
C25   O5    S    
C50   C53   A    
C46   H7    S    
C2    C20   A    
C26   H12   S    
C15   C54   A    
C1    O11   A    
C28   C54   S    
C33   H25   S    
C39   C43   A    
C21   C34   A    
O12   Zn1   S    
C43   C44   S    
C5    C9    A    
C37   C38   S    
C7    H11   S    
O1    Zn1   S    
C12   C50   A    
C31   C32   A    
C12   C23   A    
C14   H10   S    
O14   Zn1   S    
C17   C18   A    
C38   H2    S    
C34   C45   A    
O11   Zn2   S    
C39   C46   S    
C48   C49   A    
C2    C5    A    
C39   N3    A    
C19   N2    S    
N4    Zn1   S    
H21   O7    S    
C6    H13   S    
C15   H9    S    
C23   C48   A    
C37   O6    S    
C43   N4    A    
C14   C19   A    
C3    C26   A    
C16   O14   A    
C48   H16   S    
C3    C5    A    
O2    Zn1   S    
C47   C52   A    
C11   N2    A    
C41   N3    A    
C34   C52   A    
C50   H1    S    
C30   C36   A    
C13   O8    S    
C32   C33   A    
C25   C52   A    
C41   H3    S    
C46   O7    S    
C44   H6    S    
C18   H23   S    
C49   C53   A    
C33   C35   A    
C12   H27   S    
C10   C11   A    
C24   H14   S    
C32   H24   S    
C16   O15   A    
H17   O5    S    
C20   C21   A    
C4    O13   A    
C47   O9    S    
C14   C15   A    
C3    C22   A    
C40   O4    S    
C17   C54   A    
O3    Zn2   S    
C27   H18   S    
