data_mof_unit_64763.cif
_audit_creation_date              2012-12-10T18:12:38-0500
_audit_creation_method            fapswitch 2.2
_symmetry_space_group_name_H-M    P1
_symmetry_Int_Tables_number       1
_space_group_crystal_system       triclinic
_cell_length_a                    39.361818
_cell_length_b                    32.251541
_cell_length_c                    21.974195
_cell_angle_alpha                 89.998483
_cell_angle_beta                  124.995945
_cell_angle_gamma                 89.980897
_cell_volume                      22852.0199006

loop_
_atom_site_label
_atom_site_type_symbol
_atom_type_description
_atom_site_fract_x
_atom_site_fract_y
_atom_site_fract_z
_atom_type_partial_charge
C1    C     C_R   0.420449 0.500016 0.420274 0.817359
C2    C     C_R   0.579550 0.499995 0.579610 0.815816
C3    C     C_R   0.920452 0.000012 0.420317 0.816487
C4    C     C_R   0.079546 0.999994 0.579662 0.818896
C5    C     C_R   0.272606 0.538286 0.282709 0.184707
C6    C     C_R   0.727234 0.537374 0.709890 0.173481
C7    C     C_R   0.772630 0.038020 0.284235 0.183518
C8    C     C_R   0.226694 0.017781 0.675334 0.175534
C9    C     C_R   0.293511 0.500602 0.291463 -0.018202
C10   C     C_R   0.706410 0.499981 0.703272 -0.014503
C11   C     C_R   0.793566 0.000083 0.294837 -0.018648
C12   C     C_R   0.206417 0.999334 0.704964 -0.013900
C13   C     C_R   0.270545 0.463630 0.258735 -0.039890
C14   C     C_R   0.729479 0.463602 0.740008 -0.041339
C15   C     C_R   0.770599 0.962961 0.263139 -0.040840
C16   C     C_R   0.230006 0.981580 0.777047 -0.043059
C17   C     C_1   0.161368 0.501219 0.163747 0.044134
C18   C     C_1   0.838635 0.501481 0.836899 0.036253
C19   C     C_1   0.661356 0.001199 0.164038 0.043924
C20   C     C_1   0.338611 0.001251 0.836126 0.033561
C21   C     C_1   0.338483 0.500165 0.337058 0.019734
C22   C     C_1   0.661475 0.499861 0.659917 0.020691
C23   C     C_1   0.838513 0.999934 0.338907 0.021115
C24   C     C_1   0.161478 0.999691 0.661091 0.022087
C25   C     C_1   0.375917 0.500072 0.375135 -0.121501
C26   C     C_1   0.624063 0.499962 0.623460 -0.123551
C27   C     C_1   0.875934 0.000021 0.375958 -0.119215
C28   C     C_1   0.124058 0.999941 0.624022 -0.124410
C29   C     C_1   0.123939 0.500552 0.125521 -0.109923
C30   C     C_1   0.876060 0.500693 0.874645 -0.111567
C31   C     C_1   0.623930 0.000558 0.125568 -0.109413
C32   C     C_1   0.376046 0.000611 0.874448 -0.112210
C33   C     C_R   0.500010 0.420488 0.000010 0.830248
C34   C     C_R   0.000008 0.920488 0.000007 0.829676
C35   C     C_R   0.499416 0.502521 0.881579 0.833472
C36   C     C_R   0.500586 0.502499 0.118420 0.841112
C37   C     C_R   0.999420 0.002558 0.881584 0.832949
C38   C     C_R   0.000592 0.002459 0.118428 0.841008
C39   C     C_R   0.499991 0.579602 0.999989 0.861434
C40   C     C_R   0.999991 0.079602 0.999988 0.861356
C41   C     C_R   0.503824 0.499987 0.621208 0.874614
C42   C     C_R   0.496178 0.499989 0.378800 0.877713
C43   C     C_R   0.003815 0.999981 0.621199 0.879414
C44   C     C_R   0.996179 0.999991 0.378802 0.873789
C45   C     C_R   0.999998 0.420599 0.999999 0.808079
C46   C     C_R   0.499999 0.920599 1.000000 0.807706
C47   C     C_R   0.079394 0.500050 0.079849 0.811383
C48   C     C_R   0.920605 0.500074 0.920166 0.815580
C49   C     C_R   0.579391 0.000060 0.079849 0.811408
C50   C     C_R   0.420601 0.000079 0.920146 0.813565
C51   C     C_R   0.000000 0.579392 0.999996 0.824360
C52   C     C_R   0.500028 0.079393 0.000026 0.822710
C53   C     C_R   0.963077 0.727950 0.975578 -0.075610
C54   C     C_R   0.036913 0.727912 0.023935 -0.076132
C55   C     C_R   0.463475 0.227942 0.977609 -0.073080
C56   C     C_R   0.536770 0.227932 0.022453 -0.076125
C57   C     C_R   0.999998 0.706193 0.999800 -0.035257
C58   C     C_R   0.500130 0.206198 0.000054 -0.035252
C59   C     C_R   0.536874 0.271864 0.023110 -0.077498
C60   C     C_R   0.463351 0.271869 0.977017 -0.076870
C61   C     C_R   0.037028 0.771843 0.024613 -0.077633
C62   C     C_R   0.962987 0.771880 0.975051 -0.077289
C63   C     C_R   0.500107 0.293642 0.000082 -0.038390
C64   C     C_R   0.000017 0.793637 0.999895 -0.038261
C65   C     C_1   0.999999 0.661216 0.999889 0.073967
C66   C     C_1   0.500129 0.161219 0.000080 0.074572
C67   C     C_1   0.500080 0.338640 0.000067 0.063459
C68   C     C_1   0.000027 0.838637 0.999963 0.063054
C69   C     C_1   0.500042 0.376030 0.000036 -0.070440
C70   C     C_1   0.000023 0.876027 0.999995 -0.070853
C71   C     C_2   0.527304 0.528287 0.811376 -0.104934
C72   C     C_2   0.472731 0.528227 0.188615 -0.105106
C73   C     C_2   0.027458 0.028173 0.811518 -0.103373
C74   C     C_2   0.972868 0.028284 0.188749 -0.106291
C75   C     C_1   0.999999 0.623835 0.999963 -0.073804
C76   C     C_1   0.500090 0.123838 0.000072 -0.074405
C77   C     C_R   0.975400 0.271813 0.933032 -0.159720
C78   C     C_R   0.024498 0.271794 0.066970 -0.159208
C79   C     C_R   0.475667 0.771813 0.932974 -0.160542
C80   C     C_R   0.524244 0.771794 0.067030 -0.160028
C81   C     C_R   0.999956 0.293681 0.999997 0.143775
C82   C     C_R   0.499962 0.793681 0.999999 0.144270
C83   C     C_R   0.524233 0.728359 0.067035 -0.154607
C84   C     C_R   0.475659 0.728378 0.932979 -0.157155
C85   C     C_R   0.024488 0.228359 0.066976 -0.153692
C86   C     C_R   0.975393 0.228378 0.933039 -0.156703
C87   C     C_R   0.499943 0.706493 0.000010 0.142995
C88   C     C_R   0.999938 0.206493 0.000010 0.142455
C89   C     C_1   0.999971 0.338474 0.999991 -0.049206
C90   C     C_1   0.499976 0.838473 0.999993 -0.050062
C91   C     C_1   0.499953 0.661706 0.000009 -0.041587
C92   C     C_1   0.999950 0.161707 0.000010 -0.040934
C93   C     C_1   0.499969 0.624232 0.000002 -0.107666
C94   C     C_1   0.999968 0.124232 0.000002 -0.107338
C95   C     C_1   0.999985 0.375953 0.999991 -0.146644
C96   C     C_1   0.499988 0.875954 0.999994 -0.147178
C97   C     C_2   0.496432 0.509590 0.812260 -0.292489
C98   C     C_2   0.503577 0.509490 0.187747 -0.288326
C99   C     C_2   0.996456 0.009703 0.812289 -0.293001
C100  C     C_2   0.003611 0.009372 0.187790 -0.286403
C101  C     C_2   0.524765 0.531861 0.741499 0.267876
C102  C     C_2   0.475288 0.531853 0.258535 0.260159
C103  C     C_2   0.024950 0.031735 0.741667 0.265615
C104  C     C_2   0.975438 0.031920 0.258673 0.262089
C105  C     C_2   0.511745 0.499054 0.694830 -0.332054
C106  C     C_2   0.488288 0.499050 0.305216 -0.329970
C107  C     C_2   0.011677 0.999020 0.694770 -0.325809
C108  C     C_2   0.988265 0.999062 0.305204 -0.333421
C109  C     C_R   0.227160 0.465069 0.218510 -0.225712
C110  C     C_R   0.772919 0.465591 0.783737 -0.223494
C111  C     C_R   0.727144 0.964736 0.220988 -0.226070
C112  C     C_R   0.273414 0.983197 0.818413 -0.221172
C113  C     C_R   0.206235 0.502074 0.209279 -0.006871
C114  C     C_R   0.793763 0.502478 0.792026 -0.008246
C115  C     C_R   0.706221 0.001969 0.210136 -0.007667
C116  C     C_R   0.293719 0.002017 0.790397 -0.010500
C117  C     C_R   0.228706 0.539196 0.241068 -0.026870
C118  C     C_R   0.771170 0.539020 0.755753 -0.032962
C119  C     C_R   0.728713 0.039103 0.241586 -0.026410
C120  C     C_R   0.270594 0.019988 0.718701 -0.038290
Cu1   Cu    Cu3+1 0.500000 0.541020 0.500000 0.944899
Cu2   Cu    Cu3+1 0.000000 0.041020 0.500000 0.947993
Cu3   Cu    Cu3+1 0.500000 0.458980 0.500000 1.042520
Cu4   Cu    Cu3+1 0.000000 0.958980 0.500000 1.036773
Cu5   Cu    Cu3+1 0.541020 0.500000 0.040980 1.065709
Cu6   Cu    Cu3+1 0.458980 0.500000 0.959020 1.054684
Cu7   Cu    Cu3+1 0.041020 1.000000 0.040980 1.066404
Cu8   Cu    Cu3+1 0.958980 0.000000 0.959020 1.054613
Cu9   Cu    Cu3+1 0.000010 0.500040 0.061000 1.022010
Cu10  Cu    Cu3+1 0.999990 0.500040 0.939000 1.010310
Cu11  Cu    Cu3+1 0.500010 0.000040 0.061000 1.016331
Cu12  Cu    Cu3+1 0.499990 0.000040 0.939000 1.018369
H1    H     H_    0.456745 0.711881 0.880781 0.148141
H2    H     H_    0.543146 0.711847 0.119237 0.149331
H3    H     H_    0.956277 0.211880 0.880888 0.148395
H4    H     H_    0.043603 0.211847 0.119131 0.150163
H5    H     H_    0.956286 0.288323 0.880876 0.146657
H6    H     H_    0.043621 0.288290 0.119120 0.147927
H7    H     H_    0.456755 0.788323 0.880771 0.146349
H8    H     H_    0.543165 0.788289 0.119228 0.147123
H9    H     H_    0.507331 0.469303 0.712623 0.140691
H10   H     H_    0.492702 0.469286 0.287454 0.141181
H11   H     H_    0.007024 0.969315 0.712343 0.141191
H12   H     H_    0.992530 0.969267 0.287316 0.139532
H13   H     H_    0.209144 0.437125 0.192673 0.197353
H14   H     H_    0.791020 0.437951 0.811586 0.197566
H15   H     H_    0.709073 0.936706 0.196208 0.198996
H16   H     H_    0.291924 0.969338 0.873268 0.200055
O1    O     O_R   0.440150 0.534640 0.440170 -0.602722
O2    O     O_R   0.559850 0.534640 0.559830 -0.603669
O3    O     O_R   0.940150 0.034640 0.440170 -0.603246
O4    O     O_R   0.059850 0.034640 0.559830 -0.599547
O5    O     O_R   0.059850 0.500040 0.111340 -0.566522
O6    O     O_R   0.940150 0.500040 0.888660 -0.576428
O7    O     O_R   0.559850 0.000040 0.111340 -0.566991
O8    O     O_R   0.440150 0.000040 0.888660 -0.566379
O9    O     O_R   0.059840 0.499970 0.008270 -0.578067
O10   O     O_R   0.940160 0.499970 0.991730 -0.569999
O11   O     O_R   0.559840 0.999970 0.008270 -0.577582
O12   O     O_R   0.440160 0.999970 0.991730 -0.577466
O13   O     O_R   0.000010 0.559880 0.051460 -0.568344
O14   O     O_R   0.999990 0.559880 0.948540 -0.571668
O15   O     O_R   0.500010 0.059880 0.051460 -0.570885
O16   O     O_R   0.499990 0.059880 0.948540 -0.568492
O17   O     O_R   0.440150 0.465360 0.440130 -0.552948
O18   O     O_R   0.559850 0.465360 0.559870 -0.550228
O19   O     O_R   0.940150 0.965360 0.440130 -0.550088
O20   O     O_R   0.059850 0.965360 0.559870 -0.560244
O21   O     O_R   0.500010 0.534640 0.589030 -0.582596
O22   O     O_R   0.499990 0.534640 0.410970 -0.583779
O23   O     O_R   0.000010 0.034640 0.589030 -0.583455
O24   O     O_R   0.999990 0.034640 0.410970 -0.582504
O25   O     O_R   0.500010 0.465360 0.588990 -0.577628
O26   O     O_R   0.499990 0.465360 0.411010 -0.574998
O27   O     O_R   0.000010 0.965360 0.588990 -0.574107
O28   O     O_R   0.999990 0.965360 0.411010 -0.579893
O29   O     O_R   0.534640 0.440150 0.034560 -0.566392
O30   O     O_R   0.465360 0.440150 0.965440 -0.565308
O31   O     O_R   0.034640 0.940150 0.034560 -0.566225
O32   O     O_R   0.965360 0.940150 0.965440 -0.565236
O33   O     O_R   0.534630 0.500000 0.945560 -0.565221
O34   O     O_R   0.465370 0.500000 0.054440 -0.566502
O35   O     O_R   0.034630 1.000000 0.945560 -0.564935
O36   O     O_R   0.965370 1.000000 0.054440 -0.567039
O37   O     O_R   0.465350 0.500000 0.876310 -0.563923
O38   O     O_R   0.534650 0.500000 0.123690 -0.564503
O39   O     O_R   0.965350 1.000000 0.876310 -0.563703
O40   O     O_R   0.034650 1.000000 0.123690 -0.564384
O41   O     O_R   0.534640 0.559850 0.034640 -0.564085
O42   O     O_R   0.465360 0.559850 0.965360 -0.576383
O43   O     O_R   0.034640 0.059850 0.034640 -0.563771
O44   O     O_R   0.965360 0.059850 0.965360 -0.576407
O45   O     O_R   0.000000 0.440190 0.051560 -0.576829
O46   O     O_R   1.000000 0.440190 0.948440 -0.577372
O47   O     O_R   0.500000 0.940190 0.051560 -0.577116
O48   O     O_R   0.500000 0.940190 0.948440 -0.577243
C121  C     C_2   0.563456 0.548670 0.877946 0.926474
O49   O     O_2   0.558411 0.571631 0.916448 -0.591867
O50   O     O_R   0.603113 0.542920 0.894461 -0.753783
H17   H     H_    0.625148 0.558868 0.940214 0.338221
C122  C     C_2   0.436927 0.548925 0.121953 0.927714
O51   O     O_2   0.401970 0.544092 0.106377 -0.580383
O52   O     O_R   0.443414 0.575236 0.078937 -0.760647
H18   H     H_    0.416695 0.587786 0.035596 0.336456
C123  C     C_2   0.063778 0.048275 0.878225 0.926890
O53   O     O_2   0.058916 0.071359 0.916820 -0.591642
O54   O     O_R   0.103395 0.042117 0.894771 -0.750106
H19   H     H_    0.125563 0.057903 0.940628 0.338945
C124  C     C_2   0.937185 0.049176 0.122187 0.927276
O55   O     O_2   0.902198 0.044543 0.106567 -0.581736
O56   O     O_R   0.943827 0.075434 0.079313 -0.760313
H20   H     H_    0.917181 0.088129 0.036030 0.336687
C125  C     C_2   0.924864 0.704553 0.952890 0.908888
O57   O     O_2   0.905310 0.714006 0.978436 -0.553293
O58   O     O_R   0.911388 0.671709 0.902517 -0.743154
H21   H     H_    0.885184 0.658242 0.891680 0.362981
C126  C     C_2   0.075051 0.704486 0.046140 0.912684
O59   O     O_2   0.094509 0.714093 0.020483 -0.552579
O60   O     O_R   0.088551 0.671422 0.096112 -0.752181
H22   H     H_    0.114623 0.657896 0.106413 0.344209
C127  C     C_2   0.425613 0.204532 0.956893 0.906878
O61   O     O_2   0.406905 0.214039 0.984042 -0.558138
O62   O     O_R   0.411511 0.171599 0.906565 -0.738174
H23   H     H_    0.385676 0.158077 0.897259 0.350131
C128  C     C_2   0.574597 0.204520 0.042861 0.913481
O63   O     O_2   0.593243 0.214156 0.015659 -0.552404
O64   O     O_R   0.588730 0.171432 0.092912 -0.752406
H24   H     H_    0.614502 0.157916 0.101904 0.344345
C129  C     C_2   0.455344 0.499903 0.741912 0.863967
O65   O     O_2   0.437421 0.467716 0.736701 -0.564397
O66   O     O_R   0.436818 0.528072 0.682791 -0.757389
H25   H     H_    0.409077 0.517962 0.638456 0.334767
C130  C     C_2   0.544640 0.499660 0.258068 0.863647
O67   O     O_2   0.562487 0.467422 0.263173 -0.564695
O68   O     O_R   0.563238 0.527759 0.317275 -0.756277
H26   H     H_    0.590955 0.517553 0.361581 0.334706
C131  C     C_2   0.955291 0.000335 0.741869 0.863834
O69   O     O_2   0.937136 0.968270 0.736372 -0.563226
O70   O     O_R   0.936971 0.028663 0.682996 -0.757278
H27   H     H_    0.909156 0.018765 0.638574 0.335606
C132  C     C_2   0.044611 0.999243 0.258045 0.861810
O71   O     O_2   0.062254 0.966912 0.262841 -0.569957
O72   O     O_R   0.063392 0.027158 0.317536 -0.755133
H28   H     H_    0.091031 0.016735 0.361758 0.328702
N1    N     N_2   0.535893 0.570501 0.725869 -0.410654
H29   H     H_    0.511990 0.587213 0.682094 0.279867
C133  C     C_3   0.575127 0.572051 0.734048 -0.588466
H30   H     H_    0.569766 0.577799 0.679363 0.221147
H31   H     H_    0.592986 0.542734 0.757467 0.237386
H32   H     H_    0.594007 0.597894 0.771934 0.239810
N2    N     N_2   0.464061 0.570477 0.274042 -0.412419
H33   H     H_    0.487834 0.587126 0.318102 0.280528
C134  C     C_3   0.424582 0.572063 0.264946 -0.582681
H34   H     H_    0.429599 0.576854 0.319571 0.220831
H35   H     H_    0.406351 0.543128 0.239663 0.236831
H36   H     H_    0.406230 0.598506 0.228246 0.242321
N3    N     N_2   0.036490 0.070231 0.726391 -0.414169
H37   H     H_    0.012765 0.087166 0.682743 0.279587
C135  C     C_3   0.075734 0.071320 0.734569 -0.576741
H38   H     H_    0.070425 0.077068 0.679927 0.221486
H39   H     H_    0.093282 0.041819 0.757734 0.243778
H40   H     H_    0.094894 0.096980 0.772672 0.239097
N4    N     N_2   0.964427 0.070621 0.274358 -0.411160
H41   H     H_    0.988288 0.087149 0.318498 0.281330
C136  C     C_3   0.924940 0.072458 0.265204 -0.584636
H42   H     H_    0.929956 0.077243 0.319831 0.220974
H43   H     H_    0.906543 0.043628 0.239758 0.234353
H44   H     H_    0.906756 0.099000 0.228625 0.242923
C137  C     C_2   0.290356 0.422898 0.264948 0.876796
O73   O     O_2   0.325785 0.421118 0.281692 -0.574424
O74   O     O_R   0.267898 0.386207 0.250096 -0.757718
H45   H     H_    0.284405 0.360592 0.255652 0.349450
C138  C     C_2   0.709748 0.422914 0.734391 0.873360
O75   O     O_2   0.673497 0.416137 0.684245 -0.573164
O76   O     O_R   0.733181 0.391742 0.786416 -0.757077
H46   H     H_    0.716622 0.365499 0.776792 0.349724
C139  C     C_2   0.790385 0.921723 0.272357 0.875587
O77   O     O_2   0.827334 0.916247 0.319861 -0.573955
O78   O     O_R   0.766259 0.888580 0.226723 -0.758624
H47   H     H_    0.782941 0.862193 0.238277 0.349487
C140  C     C_2   0.210874 0.961018 0.811460 0.871510
O79   O     O_2   0.174676 0.949765 0.773499 -0.580936
O80   O     O_R   0.234811 0.953859 0.888125 -0.755067
H48   H     H_    0.218629 0.939582 0.905055 0.351521
C141  C     C_2   0.206609 0.578966 0.230503 0.865541
O81   O     O_2   0.219366 0.611338 0.221486 -0.542317
O82   O     O_R   0.171340 0.579481 0.231301 -0.759807
H49   H     H_    0.159246 0.608311 0.223740 0.347483
C142  C     C_2   0.793125 0.579121 0.767517 0.887222
O83   O     O_2   0.824608 0.587422 0.828409 -0.596159
O84   O     O_R   0.777769 0.607614 0.709425 -0.733605
H50   H     H_    0.795390 0.633572 0.724684 0.347467
C143  C     C_2   0.706621 0.079076 0.229529 0.866488
O85   O     O_2   0.719647 0.111132 0.220142 -0.542196
O86   O     O_R   0.671041 0.080145 0.229337 -0.759981
H51   H     H_    0.658982 0.109060 0.220807 0.348309
C144  C     C_2   0.291938 0.042224 0.689924 0.887625
O87   O     O_2   0.323184 0.062578 0.732147 -0.578859
O88   O     O_R   0.276265 0.040289 0.614584 -0.735288
H52   H     H_    0.293459 0.056807 0.602184 0.345467
N5    N     N_2   0.295631 0.575371 0.316915 -0.392844
H53   H     H_    0.321106 0.579174 0.315268 0.261275
C145  C     C_3   0.304824 0.583281 0.389729 -0.601197
H54   H     H_    0.325702 0.558836 0.429438 0.212334
H55   H     H_    0.275812 0.584141 0.387172 0.237952
H56   H     H_    0.320480 0.613788 0.410214 0.235412
N6    N     N_2   0.704085 0.574042 0.673353 -0.399549
H57   H     H_    0.681467 0.580508 0.681927 0.252292
C146  C     C_3   0.688735 0.576776 0.595786 -0.553200
H58   H     H_    0.664408 0.553060 0.562579 0.200165
H59   H     H_    0.714346 0.572202 0.588943 0.256639
H60   H     H_    0.675071 0.607946 0.574122 0.230269
N7    N     N_2   0.795625 0.075238 0.317489 -0.393327
H61   H     H_    0.821131 0.078734 0.315851 0.260570
C147  C     C_3   0.804716 0.083908 0.390010 -0.598961
H62   H     H_    0.825586 0.059699 0.430398 0.213576
H63   H     H_    0.775654 0.085066 0.387266 0.237717
H64   H     H_    0.820339 0.114477 0.409730 0.235184
N8    N     N_2   0.203007 0.036141 0.603252 -0.398692
H65   H     H_    0.180186 0.056070 0.594871 0.254525
C148  C     C_3   0.187833 0.007092 0.542627 -0.555048
H66   H     H_    0.163825 0.986512 0.537956 0.199564
H67   H     H_    0.213610 0.987790 0.551114 0.259001
H68   H     H_    0.173795 0.024442 0.489729 0.228535
C149  C     C_2   0.424306 0.295029 0.949686 0.904759
O89   O     O_2   0.424327 0.323982 0.985651 -0.567647
O90   O     O_R   0.387522 0.283545 0.882714 -0.727249
H69   H     H_    0.363117 0.301466 0.870099 0.350668
C150  C     C_2   0.575910 0.295016 0.050471 0.904613
O91   O     O_2   0.575866 0.324044 0.014609 -0.567742
O92   O     O_R   0.612715 0.283436 0.117352 -0.726844
H70   H     H_    0.637114 0.301357 0.129996 0.351714
C151  C     C_2   0.923732 0.795056 0.945968 0.904166
O93   O     O_2   0.923110 0.824007 0.981266 -0.567951
O94   O     O_R   0.887487 0.783589 0.878118 -0.729884
H71   H     H_    0.862870 0.801515 0.864331 0.350449
C152  C     C_2   0.076293 0.794975 0.053727 0.904218
O95   O     O_2   0.076906 0.824007 0.018560 -0.567315
O96   O     O_R   0.112560 0.783367 0.121453 -0.727515
H72   H     H_    0.137183 0.801273 0.135275 0.351450

loop_
_geom_bond_atom_site_label_1
_geom_bond_atom_site_label_2
_ccdc_geom_bond_type
C79   H7    S    
C87   C91   S    
C122  O52   S    
O62   H23   S    
C152  O95   D    
C145  H55   S    
Cu4   O27   S    
C151  O93   D    
C41   C105  S    
C86   C88   A    
O74   H45   S    
C144  O88   S    
C121  O50   S    
C9    C13   A    
C62   C64   A    
C42   O22   A    
Cu4   O20   S    
C43   O27   A    
C12   C16   A    
Cu8   O32   S    
C33   C69   S    
C146  H59   S    
C19   C31   T    
O50   H17   S    
N1    H29   S    
C34   O31   A    
C80   C83   A    
C106  H10   S    
C125  O58   S    
C109  H13   S    
C84   H1    S    
C7    C119  A    
N4    H41   S    
C38   C100  S    
C74   C100  D    
C74   C124  S    
C50   O12   A    
N5    H53   S    
C41   O21   A    
C4    O20   A    
O58   H21   S    
C44   O24   A    
C129  O65   D    
C145  H54   S    
C40   O44   A    
C66   C76   T    
C92   C94   T    
C2    C26   S    
C42   C106  S    
C137  O74   S    
C42   O26   A    
C41   O25   A    
C107  H11   S    
C108  H12   S    
Cu3   O26   S    
C134  H35   S    
C133  H32   S    
C67   C69   T    
C45   O46   A    
N4    C136  S    
C49   O7    A    
Cu6   O37   S    
Cu11  O47   S    
C135  H39   S    
C46   O48   A    
C54   C61   A    
C35   O33   A    
C59   C63   A    
C56   C59   A    
C141  O82   S    
C9    C21   S    
C37   O39   A    
C38   O40   A    
C11   C23   S    
Cu1   O1    S    
Cu6   O30   S    
Cu1   Cu3   S    
C52   O15   A    
O94   H71   S    
C73   C103  S    
C46   C96   S    
C148  H66   S    
N3    C135  S    
C103  C107  D    
N6    C146  S    
C5    N5    S    
C2    O2    A    
N8    C148  S    
Cu8   O39   S    
C17   C113  S    
C2    O18   A    
C71   C97   D    
C143  O85   D    
C21   C25   T    
C29   C47   S    
Cu10  O9    S    
C64   C68   S    
C30   C48   S    
C35   C97   S    
C79   C84   A    
C39   O41   A    
N7    C147  S    
C37   O35   A    
C38   O36   A    
C51   O14   A    
N3    H37   S    
C149  O90   S    
C13   C109  A    
C118  C142  S    
C1    O17   A    
C130  O67   D    
C110  C114  A    
Cu10  O14   S    
Cu1   O22   S    
C139  O77   D    
C150  O92   S    
C11   C15   A    
Cu9   O10   S    
C128  O63   D    
C123  O54   S    
C4    O4    A    
Cu12  O11   S    
C8    N8    S    
C33   O29   A    
C102  N2    S    
C80   C82   A    
C10   C14   A    
C43   O23   A    
C126  O59   D    
Cu7   O43   S    
C116  C120  A    
Cu8   O44   S    
Cu2   O4    S    
C5    C9    A    
C127  O61   D    
C13   C137  S    
C8    C12   A    
C148  H68   S    
C88   C92   S    
C124  O55   D    
Cu9   O13   S    
Cu10  O6    S    
C136  H43   S    
C113  C117  A    
C78   C85   A    
C115  C119  A    
Cu2   Cu4   S    
C45   C95   S    
C112  C116  A    
C74   C104  S    
Cu9   Cu10  S    
C47   O9    A    
C85   C88   A    
C14   C110  A    
C48   O6    A    
C124  O56   S    
C147  H64   S    
C53   C125  S    
C24   C28   T    
C40   C94   S    
C52   C76   S    
C79   C82   A    
C90   C96   T    
Cu4   O28   S    
C6    N6    S    
C140  O80   S    
C59   C150  S    
C122  O51   D    
Cu7   O31   S    
C139  O78   S    
O86   H51   S    
Cu9   O5    S    
C72   C102  S    
C128  O64   S    
C56   C58   A    
C121  O49   D    
Cu12  O8    S    
C120  C144  S    
C85   H4    S    
C86   H3    S    
Cu2   O23   S    
O80   H48   S    
C49   O11   A    
C36   C98   S    
C55   C60   A    
C117  C141  S    
C54   C57   A    
N5    C145  S    
C83   C87   A    
C17   C29   T    
C119  C143  S    
C34   O32   A    
O70   H27   S    
C101  N1    S    
N2    H33   S    
C125  O57   D    
C10   C22   S    
C56   C128  S    
C77   H5    S    
C20   C32   T    
O72   H28   S    
C144  O87   D    
C16   C140  S    
C39   C93   S    
C83   H2    S    
C73   C123  S    
C152  O96   S    
Cu3   O18   S    
O68   H26   S    
C1    O1    A    
C34   C70   S    
C81   C89   S    
C133  H31   S    
C71   C101  S    
C147  H62   S    
C137  O73   D    
C31   C49   S    
Cu3   O25   S    
C145  H56   S    
C151  O94   S    
C45   O45   A    
Cu5   O33   S    
O54   H19   S    
C44   O28   A    
C15   C139  S    
O60   H22   S    
C53   C57   A    
C123  O53   D    
N6    H57   S    
C89   C95   T    
C61   C64   A    
O88   H52   S    
Cu12  O16   S    
C141  O81   D    
C111  H15   S    
C91   C93   T    
Cu4   O19   S    
C111  C115  A    
C62   C151  S    
O96   H72   S    
C77   C81   A    
Cu7   O40   S    
C43   C107  S    
C52   O16   A    
N1    C133  S    
Cu5   Cu6   S    
C36   O34   A    
Cu7   Cu8   S    
C104  C108  D    
C16   C112  A    
C54   C126  S    
C12   C24   S    
C3    O19   A    
C57   C65   S    
Cu10  O46   S    
C6    C10   A    
C47   O5    A    
C82   C90   S    
C134  H36   S    
Cu11  O7    S    
O78   H47   S    
O90   H69   S    
C129  O66   S    
C80   H8    S    
C78   C81   A    
N7    H61   S    
C134  H34   S    
C40   O43   A    
C48   O10   A    
C3    C27   S    
C51   O13   A    
C149  O89   D    
N8    H65   S    
C99   C131  S    
C143  O86   S    
C22   C26   T    
C55   C58   A    
C100  C132  S    
Cu1   O21   S    
O52   H18   S    
Cu7   O35   S    
C150  O91   D    
Cu8   O36   S    
C84   C87   A    
O92   H70   S    
C135  H40   S    
C18   C114  S    
C46   O47   A    
C72   C98   D    
C146  H58   S    
C7    C11   A    
C60   C63   A    
C51   C75   S    
C132  O71   D    
C105  H9    S    
N2    C134  S    
Cu1   O2    S    
Cu6   O42   S    
O64   H24   S    
C138  O76   S    
C58   C66   S    
C97   C129  S    
O56   H20   S    
C50   O8    A    
C148  H67   S    
C18   C30   T    
C104  N4    S    
C23   C27   T    
C136  H42   S    
C109  C113  A    
C55   C127  S    
O84   H50   S    
C61   C152  S    
C1    C25   S    
C103  N3    S    
C60   C149  S    
C78   H6    S    
C4    C28   S    
C71   C121  S    
C44   C108  S    
C101  C105  D    
C63   C67   S    
C147  H63   S    
C15   C111  A    
C20   C116  S    
C39   O42   A    
C140  O79   D    
C7    N7    S    
C112  H16   S    
C5    C117  A    
Cu5   O38   S    
C132  O72   S    
C53   C62   A    
C19   C115  S    
C35   O37   A    
C138  O75   D    
C130  O68   S    
C32   C50   S    
C114  C118  A    
O76   H46   S    
C77   C86   A    
Cu2   O24   S    
C131  O70   S    
O82   H49   S    
Cu5   O29   S    
Cu6   O34   S    
C135  H38   S    
C37   C99   S    
C8    C120  A    
C142  O83   D    
C146  H60   S    
C73   C99   D    
C33   O30   A    
Cu9   O45   S    
C133  H30   S    
C126  O60   S    
C3    O3    A    
C65   C75   T    
Cu2   O3    S    
C127  O62   S    
C110  H14   S    
C14   C138  S    
C98   C130  S    
C142  O84   S    
C102  C106  D    
C36   O38   A    
Cu11  O12   S    
C136  H44   S    
Cu3   O17   S    
C68   C70   T    
Cu11  O15   S    
O66   H25   S    
Cu12  O48   S    
Cu5   O41   S    
C131  O69   D    
C6    C118  A    
Cu11  Cu12  S    
C72   C122  S    
