data_mof_unit_58705.cif
_audit_creation_date              2012-12-10T17:45:23-0500
_audit_creation_method            fapswitch 2.2
_symmetry_space_group_name_H-M    P1
_symmetry_Int_Tables_number       1
_space_group_crystal_system       triclinic
_cell_length_a                    17.810777
_cell_length_b                    17.783283
_cell_length_c                    17.857083
_cell_angle_alpha                 115.238694
_cell_angle_beta                  92.784421
_cell_angle_gamma                 69.753373
_cell_volume                      4767.15758418

loop_
_atom_site_label
_atom_site_type_symbol
_atom_type_description
_atom_site_fract_x
_atom_site_fract_y
_atom_site_fract_z
_atom_type_partial_charge
C1    C     C_R   0.463297 0.462988 0.287840 0.593144
C2    C     C_R   0.910681 0.615588 0.566476 -0.105916
C3    C     C_R   0.951239 0.667742 0.619274 0.416304
C4    C     C_R   0.536601 0.535086 0.712122 0.501956
C5    C     C_R   0.034942 0.640601 0.604543 0.005548
C6    C     C_R   0.077376 0.562337 0.531744 -0.090814
C7    C     C_R   0.077233 0.689783 0.661613 0.439556
C8    C     C_R   0.161087 0.660741 0.648824 0.258085
C9    C     C_R   0.161989 0.531572 0.523121 -0.182938
C10   C     C_R   0.552610 0.549028 0.798140 -0.041676
C11   C     C_R   0.445796 0.447793 0.203211 0.033555
C12   C     C_R   0.836443 0.359918 0.343097 -0.124418
C13   C     C_R   0.618700 0.603887 0.921398 0.384326
C14   C     C_R   0.609322 0.587375 0.838336 0.289511
C15   C     C_R   0.510428 0.522337 0.840275 -0.209004
C16   C     C_R   0.463958 0.730421 0.554485 0.598070
C17   C     C_R   0.520577 0.536162 0.923224 -0.058725
C18   C     C_R   0.575420 0.578119 0.963701 -0.056769
C19   C     C_R   0.478204 0.509213 0.966981 -0.010426
C20   C     C_R   0.497592 0.517025 0.047751 0.053712
C21   C     C_R   0.545457 0.568318 0.089077 0.422158
C22   C     C_R   0.584910 0.596227 0.046824 -0.055478
C23   C     C_R   0.834165 0.487644 0.469802 -0.106341
C24   C     C_R   0.414868 0.478273 0.934510 -0.124892
C25   C     C_R   0.373066 0.454709 0.979195 -0.122806
C26   C     C_R   0.396421 0.454759 0.054714 -0.052610
C27   C     C_R   0.462863 0.479772 0.086900 0.040683
C28   C     C_R   0.535941 0.269062 0.445507 0.499899
C29   C     C_R   0.353272 0.430886 0.098916 -0.130312
C30   C     C_R   0.376142 0.429651 0.174307 0.192298
C31   C     C_R   0.491992 0.465690 0.156600 0.383353
C32   C     C_R   0.554983 0.173953 0.424108 0.007071
C33   C     C_R   0.449647 0.824431 0.580408 -0.026971
C34   C     C_R   0.911787 0.478315 0.444222 -0.028911
C35   C     C_R   0.629839 0.016377 0.340856 -0.105731
C36   C     C_R   0.609482 0.104803 0.354241 0.259693
C37   C     C_R   0.520100 0.152396 0.477172 -0.139934
C38   C     C_R   0.545011 0.064601 0.468375 0.001116
C39   C     C_R   0.597599 0.995893 0.396643 -0.069179
C40   C     C_R   0.288351 0.555596 0.554836 0.511818
C41   C     C_R   0.517630 0.042793 0.527612 -0.069249
C42   C     C_R   0.528137 0.952398 0.504196 0.011707
C43   C     C_R   0.585418 0.885398 0.434964 0.470963
C44   C     C_R   0.619332 0.907427 0.382448 -0.080962
C45   C     C_R   0.952009 0.406459 0.366949 0.016830
C46   C     C_R   0.486132 0.106281 0.611279 0.239198
C47   C     C_R   0.452608 0.084000 0.664683 0.306287
C48   C     C_R   0.453399 0.996697 0.637507 -0.098577
C49   C     C_R   0.486845 0.931799 0.554834 -0.071660
C50   C     C_R   0.423140 0.972070 0.691839 0.394684
C51   C     C_R   0.421751 0.886349 0.663729 0.218878
C52   C     C_R   0.712580 0.446665 0.445988 0.523333
C53   C     C_R   0.476802 0.848744 0.525357 0.379840
C54   C     C_R   0.796107 0.429927 0.419621 0.029281
C55   C     C_R   0.203005 0.581779 0.578088 -0.039401
C56   C     C_R   0.951388 0.536421 0.494658 -0.084678
C57   C     C_R   0.913817 0.348104 0.317080 -0.093386
C58   C     C_3   0.358960 0.333265 0.220284 0.003544
C59   C     C_3   0.342338 0.262944 0.141240 -0.265075
C60   C     C_3   0.364769 0.174136 0.145766 -0.451460
C61   C     C_3   0.728239 0.539614 0.761441 0.038691
C62   C     C_3   0.779807 0.565804 0.718078 -0.231139
C63   C     C_3   0.859035 0.488883 0.674533 -0.488031
C64   C     C_3   0.320260 0.858183 0.708690 0.015510
C65   C     C_3   0.256187 0.947814 0.765502 -0.261110
C66   C     C_3   0.172001 0.943178 0.759557 -0.450462
C67   C     C_R   0.034063 0.515422 0.471871 -0.036250
C68   C     C_3   0.340888 0.195484 0.753132 0.066206
C69   C     C_3   0.326608 0.286318 0.754829 -0.270346
C70   C     C_3   0.238905 0.348461 0.784384 -0.500102
C71   C     C_3   0.604906 0.118625 0.233091 0.016806
C72   C     C_3   0.643862 0.146451 0.179737 -0.239684
C73   C     C_3   0.599388 0.145088 0.104212 -0.462768
C74   C     C_3   0.566544 0.185367 0.675074 0.022976
C75   C     C_3   0.569192 0.279278 0.715792 -0.256100
C76   C     C_3   0.649120 0.279722 0.750428 -0.475303
C77   C     C_3   0.250153 0.669518 0.747769 0.014580
C78   C     C_R   0.069072 0.450071 0.389236 0.294592
C79   C     C_3   0.242552 0.735971 0.838945 -0.257034
C80   C     C_3   0.300500 0.693189 0.887582 -0.468734
C81   C     C_3   0.132857 0.510973 0.334299 0.018944
C82   C     C_3   0.115102 0.487022 0.243901 -0.225202
C83   C     C_3   0.118006 0.556772 0.216968 -0.471709
C84   C     C_R   0.029112 0.394677 0.339517 0.391731
F1    F     F_    0.066059 0.329536 0.263094 -0.631107
F2    F     F_    0.037743 0.766180 0.730288 -0.542616
F3    F     F_    0.566346 0.465072 0.178138 -0.557777
F4    F     F_    0.671178 0.644312 0.960234 -0.618646
F5    F     F_    0.546897 0.601839 0.172852 -0.529891
F6    F     F_    0.488914 0.792406 0.442770 -0.530474
F7    F     F_    0.617676 0.799554 0.423566 -0.543699
F8    F     F_    0.397788 0.029238 0.773450 -0.593896
F9    F     F_    0.907996 0.743276 0.686824 -0.555366
H1    H     H_    0.622046 0.634021 0.080438 0.210137
H2    H     H_    0.943534 0.293302 0.257569 0.183381
H3    H     H_    0.808011 0.314621 0.303011 0.149266
H4    H     H_    0.802283 0.538507 0.529388 0.125418
H5    H     H_    0.846411 0.640708 0.582544 0.149194
H6    H     H_    0.329298 0.336439 0.275435 0.177690
H7    H     H_    0.424634 0.312895 0.226372 0.106257
H8    H     H_    0.277411 0.286455 0.133187 0.188917
H9    H     H_    0.377937 0.252575 0.085972 0.163354
H10   H     H_    0.429521 0.148810 0.153692 0.133274
H11   H     H_    0.353321 0.124421 0.087186 0.177768
H12   H     H_    0.322707 0.435018 0.953778 0.111501
H13   H     H_    0.327789 0.182044 0.198820 0.173985
H14   H     H_    0.717445 0.479637 0.714287 0.108320
H15   H     H_    0.762103 0.522789 0.809798 0.161866
H16   H     H_    0.745956 0.585427 0.671380 0.191433
H17   H     H_    0.793030 0.623941 0.764899 0.212404
H18   H     H_    0.893206 0.467230 0.719987 0.158963
H19   H     H_    0.896499 0.510703 0.646248 0.162052
H20   H     H_    0.847212 0.431663 0.624404 0.148336
H21   H     H_    0.316926 0.806369 0.726082 0.165441
H22   H     H_    0.306647 0.837754 0.642751 0.121529
H23   H     H_    0.470650 0.489500 0.806196 0.146196
H24   H     H_    0.269698 0.967244 0.831131 0.204074
H25   H     H_    0.257238 0.999819 0.747143 0.187417
H26   H     H_    0.157398 0.923259 0.694280 0.173465
H27   H     H_    0.126933 0.009667 0.799734 0.159305
H28   H     H_    0.167991 0.894495 0.781079 0.212201
H29   H     H_    0.313439 0.206563 0.813264 0.186827
H30   H     H_    0.308914 0.158827 0.703539 0.104262
H31   H     H_    0.365884 0.317868 0.797218 0.186888
H32   H     H_    0.341959 0.277165 0.691247 0.197665
H33   H     H_    0.198496 0.318530 0.742505 0.156933
H34   H     H_    0.392860 0.475866 0.876620 0.097853
H35   H     H_    0.230621 0.412980 0.783678 0.154010
H36   H     H_    0.222191 0.361387 0.849036 0.147012
H37   H     H_    0.540823 0.164632 0.253505 0.123448
H38   H     H_    0.607017 0.049274 0.194676 0.135077
H39   H     H_    0.643697 0.214870 0.218097 0.206022
H40   H     H_    0.707449 0.100208 0.157909 0.182638
H41   H     H_    0.596885 0.077934 0.065821 0.171552
H42   H     H_    0.631498 0.161868 0.065290 0.175741
H43   H     H_    0.537269 0.195132 0.124504 0.141840
H44   H     H_    0.616551 0.141859 0.623210 0.140692
H45   H     H_    0.198123 0.467727 0.474701 0.189100
H46   H     H_    0.574837 0.159144 0.722768 0.176007
H47   H     H_    0.560587 0.306516 0.669034 0.192000
H48   H     H_    0.519291 0.323044 0.767455 0.175727
H49   H     H_    0.657849 0.255101 0.799053 0.169316
H50   H     H_    0.649146 0.348731 0.778870 0.151146
H51   H     H_    0.699914 0.236921 0.699684 0.152106
H52   H     H_    0.313653 0.644058 0.720314 0.152515
H53   H     H_    0.235634 0.612509 0.746114 0.128286
H54   H     H_    0.256102 0.793802 0.842510 0.167424
H55   H     H_    0.179740 0.760613 0.867960 0.204802
H56   H     H_    0.300156 0.415808 0.076317 0.132136
H57   H     H_    0.288448 0.634943 0.885059 0.148034
H58   H     H_    0.292553 0.742500 0.953774 0.168790
H59   H     H_    0.363747 0.671217 0.861254 0.163861
H60   H     H_    0.190904 0.522245 0.341456 0.195906
H61   H     H_    0.085953 0.575335 0.377045 0.119262
H62   H     H_    0.160201 0.421304 0.202147 0.215046
H63   H     H_    0.054354 0.482233 0.237415 0.187041
H64   H     H_    0.072535 0.623000 0.257195 0.157925
H65   H     H_    0.104607 0.537621 0.151402 0.152752
H66   H     H_    0.178873 0.561264 0.221028 0.186705
H67   H     H_    0.663163 0.854651 0.330308 0.153418
H68   H     H_    0.672141 0.963790 0.287343 0.134689
H69   H     H_    0.471922 0.205044 0.524197 0.197663
O1    O     O_3   0.500000 0.500000 0.500000 -0.458004
O2    O     O_R   0.309700 0.585900 0.509470 -0.536614
O3    O     O_R   0.674980 0.398780 0.398780 -0.528631
O4    O     O_R   0.340340 0.501790 0.578230 -0.560069
O5    O     O_R   0.674980 0.513530 0.513520 -0.548844
O6    O     O_3   0.325526 0.418941 0.222346 -0.586344
O7    O     O_3   0.654446 0.611535 0.797932 -0.494642
O8    O     O_3   0.398391 0.861934 0.720238 -0.519316
O9    O     O_3   0.424522 0.147522 0.746137 -0.491495
O10   O     O_3   0.648059 0.123140 0.302394 -0.543230
O11   O     O_3   0.491345 0.189951 0.644427 -0.591944
O12   O     O_R   0.524320 0.685780 0.578230 -0.501418
O13   O     O_3   0.199744 0.713793 0.703883 -0.565221
O14   O     O_3   0.141815 0.439288 0.353903 -0.559382
O15   O     O_R   0.567430 0.291230 0.398780 -0.513255
O16   O     O_R   0.417260 0.532000 0.348010 -0.502352
O17   O     O_R   0.490990 0.490990 0.674980 -0.572884
O18   O     O_R   0.524330 0.409580 0.302030 -0.535134
O19   O     O_R   0.567420 0.567430 0.674980 -0.495581
O20   O     O_R   0.417260 0.693460 0.509470 -0.519915
O21   O     O_R   0.490990 0.329540 0.513520 -0.558019
Zn1   Zn    Zn3+2 0.565540 0.565550 0.565540 0.998462
Zn2   Zn    Zn3+2 0.412570 0.576510 0.467300 1.000799
Zn3   Zn    Zn3+2 0.456340 0.456340 0.565550 0.894571
Zn4   Zn    Zn3+2 0.565550 0.401610 0.401610 0.974514

loop_
_geom_bond_atom_site_label_1
_geom_bond_atom_site_label_2
_ccdc_geom_bond_type
C80   H58   S    
C34   C56   A    
C41   C42   A    
C35   C36   A    
C1    C11   S    
C43   C44   A    
C6    C9    A    
C81   C82   S    
C8    O13   S    
C25   H12   S    
C7    C8    A    
O17   Zn3   S    
C21   F5    S    
C80   H57   S    
C62   H16   S    
C45   C57   A    
C26   C27   A    
C35   H68   S    
C13   C18   A    
O1    Zn3   S    
C32   C36   A    
C28   O21   A    
C40   O2    A    
C75   H47   S    
C52   O5    A    
C38   C39   A    
C52   O3    A    
C68   O9    S    
C16   O20   A    
C7    F2    S    
C16   O12   A    
C81   H60   S    
C68   H30   S    
O1    Zn4   S    
C1    O16   A    
C63   H19   S    
C61   H15   S    
C75   H48   S    
O16   Zn2   S    
C73   H42   S    
C11   C30   A    
C68   C69   S    
C62   H17   S    
C17   C18   A    
C24   H34   S    
C41   C46   A    
C9    C55   A    
C4    O19   A    
C60   H10   S    
C58   O6    S    
C28   O15   A    
C40   O4    A    
C11   C31   A    
C82   H63   S    
C70   H33   S    
C48   C50   A    
C69   H32   S    
C59   C60   S    
C77   O13   S    
C64   H22   S    
C66   H27   S    
C21   C22   A    
C78   O14   S    
C22   H1    S    
C69   C70   S    
C67   C78   A    
C71   O10   S    
C14   O7    S    
C8    C55   A    
C52   C54   S    
C72   H39   S    
C77   C79   S    
C33   C53   A    
C74   H44   S    
C66   H28   S    
C64   H21   S    
C74   C75   S    
C27   C31   A    
C59   H8    S    
C81   O14   S    
C28   C32   S    
C58   H7    S    
C84   F1    S    
C38   C41   A    
O2    Zn2   S    
C10   C14   A    
O21   Zn3   S    
O12   Zn1   S    
C5    C7    A    
C63   H18   S    
C79   H54   S    
C69   H31   S    
C58   C59   S    
C71   H38   S    
C70   H36   S    
C43   F7    S    
C81   H61   S    
C10   C15   A    
O20   Zn2   S    
C35   C39   A    
C75   C76   S    
C37   C38   A    
O18   Zn4   S    
C16   C33   S    
C9    H45   S    
C47   C48   A    
C83   H64   S    
C73   H43   S    
C29   C30   A    
C65   H25   S    
C40   C55   S    
C20   C21   A    
C62   C63   S    
C50   C51   A    
C46   O11   S    
C60   H11   S    
C3    F9    S    
C34   C45   A    
O3    Zn4   S    
C32   C37   A    
C24   C25   A    
C39   C44   A    
C74   O11   S    
C12   C57   A    
C76   H51   S    
C50   F8    S    
C48   C49   A    
C23   H4    S    
C65   C66   S    
C66   H26   S    
C44   H67   S    
C31   F3    S    
C61   O7    S    
C42   C43   A    
C82   H62   S    
C4    O17   A    
C68   H29   S    
C77   H52   S    
C60   H13   S    
C23   C54   A    
O19   Zn1   S    
C70   H35   S    
C45   C84   A    
C80   H59   S    
C46   C47   A    
C6    C67   A    
C23   C34   A    
O1    Zn1   S    
O4    Zn3   S    
C59   H9    S    
C51   O8    S    
C58   H6    S    
C72   C73   S    
C3    C5    A    
C47   O9    S    
C15   C17   A    
C79   H55   S    
C20   C27   A    
C33   C51   A    
C56   C67   A    
C74   H46   S    
C1    O18   A    
O15   Zn4   S    
O1    Zn2   S    
C64   C65   S    
C19   C20   A    
C18   C22   A    
C2    C3    A    
C25   C26   A    
C30   O6    S    
C71   C72   S    
C2    C56   A    
C71   H37   S    
C72   H40   S    
C5    C6    A    
C83   H65   S    
C49   C53   A    
C36   O10   S    
C13   F4    S    
C17   C19   A    
C19   C24   A    
C64   O8    S    
C61   C62   S    
C61   H14   S    
C42   C49   A    
C29   H56   S    
C79   C80   S    
C63   H20   S    
C76   H50   S    
C78   C84   A    
C83   H66   S    
C73   H41   S    
C2    H5    S    
C26   C29   A    
C82   C83   S    
C57   H2    S    
C53   F6    S    
C65   H24   S    
C15   H23   S    
C12   H3    S    
C13   C14   A    
C4    C10   S    
C77   H53   S    
O5    Zn1   S    
C12   C54   A    
C37   H69   S    
C76   H49   S    
