data_mof_unit_9998.cif
_audit_creation_date              2013-03-05T15:53:43-0500
_audit_creation_method            fapswitch 2.2
_symmetry_space_group_name_H-M    P1
_symmetry_Int_Tables_number       1
_space_group_crystal_system       triclinic
_cell_length_a                    12.927189
_cell_length_b                    13.236449
_cell_length_c                    27.764004
_cell_angle_alpha                 94.30699
_cell_angle_beta                  90.581332
_cell_angle_gamma                 118.869563
_cell_volume                      4142.67850366

loop_
_atom_site_label
_atom_site_type_symbol
_atom_site_description
_atom_site_fract_x
_atom_site_fract_y
_atom_site_fract_z
_atom_type_partial_charge
O1    O     O_R   0.296680 0.802170 0.437540 -0.520563
O2    O     O_R   0.525380 0.838530 0.443500 -0.498037
C1    C     C_R   0.627340 0.896946 0.426884 0.547092
O3    O     O_R   0.702130 0.995190 0.446810 -0.500627
O4    O     O_R   0.661770 0.181390 0.458760 -0.483534
C2    C     C_R   0.600818 0.222437 0.440596 0.552492
O5    O     O_R   0.499820 0.198480 0.455280 -0.460216
O6    O     O_R   0.311660 0.976250 0.449080 -0.437731
C3    C     C_R   0.266305 0.875972 0.426455 0.554768
O7    O     O_R   0.297580 0.804960 0.544440 -0.489042
O8    O     O_R   0.526220 0.841130 0.542590 -0.481734
C4    C     C_R   0.627088 0.898845 0.565085 0.553754
O9    O     O_R   0.703030 0.997990 0.553710 -0.507854
O10   O     O_R   0.662610 0.183990 0.557860 -0.504476
C5    C     C_R   0.603602 0.226576 0.578308 0.550337
O11   O     O_R   0.500730 0.201280 0.562180 -0.502977
O12   O     O_R   0.312500 0.978850 0.548170 -0.491781
C6    C     C_R   0.271817 0.879272 0.563396 0.556377
Cr1   Cr    Cr6+3 0.416430 0.829200 0.492370 1.083468
Cr2   Cr    Cr6+3 0.674630 0.087020 0.504170 1.084939
Cr3   Cr    Cr6+3 0.408920 0.083740 0.503490 1.138262
O13   O     O_3   0.499990 0.999990 0.500010 -0.279158
C7    C     C_1   0.632091 0.270230 0.394912 0.062933
C8    C     C_R   0.631426 0.223197 0.268971 -0.052545
C9    C     C_R   0.641432 0.240264 0.219783 -0.042302
C10   C     C_R   0.720800 0.446734 0.240002 -0.098061
C11   C     C_R   0.711061 0.429665 0.289225 -0.069609
C12   C     C_R   0.665688 0.317699 0.303790 0.085411
C13   C     C_R   0.685505 0.352022 0.205184 0.072571
C14   C     C_1   0.695049 0.371200 0.154716 0.015182
C15   C     C_1   0.650544 0.297326 0.354095 0.038059
C16   C     C_1   0.704380 0.396153 0.113536 0.068862
H1    H     H_    0.614563 0.166589 0.193256 0.148079
C17   C     C_R   0.137605 0.735708 0.360868 -0.129542
C18   C     C_R   0.096349 0.711048 0.312636 -0.034612
C19   C     C_R   0.046359 0.672532 0.211712 -0.084031
C20   C     C_R   0.044977 0.583980 0.238452 0.169830
C21   C     C_R   0.064527 0.602113 0.288707 0.171493
C22   C     C_R   0.025543 0.658203 0.160812 0.352016
H2    H     H_    0.141845 0.669453 0.380051 0.203099
C23   C     C_R   0.026692 0.748977 0.136307 -0.087951
C24   C     C_R   0.176523 0.934262 0.360079 0.197175
C25   C     C_R   0.132624 0.910192 0.311549 -0.024517
C26   C     C_R   0.098670 0.800027 0.287064 -0.015966
C27   C     C_R   0.130175 0.996757 0.286203 -0.074557
C28   C     C_R   0.105479 0.979863 0.236419 0.190038
C29   C     C_R   0.074218 0.870938 0.211673 -0.001629
C30   C     C_R   0.071345 0.780411 0.236863 -0.053104
C31   C     C_R   0.045825 0.851262 0.162218 -0.146158
C32   C     C_R   0.187798 0.848347 0.383142 -0.019409
C33   C     C_R   0.735216 0.956842 0.353134 -0.093385
C34   C     C_R   0.730882 0.951834 0.302852 -0.013949
C35   C     C_R   0.728942 0.931979 0.201405 -0.062634
C36   C     C_R   0.799562 0.039328 0.228022 -0.062951
C37   C     C_R   0.802236 0.050343 0.278424 0.173810
C38   C     C_R   0.735239 0.918873 0.151078 0.152787
C39   C     C_R   0.672638 0.807237 0.126067 -0.017554
C40   C     C_R   0.566044 0.764360 0.351149 -0.123175
C41   C     C_R   0.568874 0.752142 0.300839 0.010853
C42   C     C_R   0.650587 0.846499 0.276440 0.031370
C43   C     C_R   0.487357 0.649314 0.274415 -0.117104
C44   C     C_R   0.489303 0.637786 0.224261 -0.039180
C45   C     C_R   0.573355 0.729052 0.199440 0.004453
C46   C     C_R   0.651362 0.835691 0.225704 -0.025081
C47   C     C_R   0.583094 0.715089 0.149264 0.156224
C48   C     C_R   0.647724 0.867820 0.377283 -0.015338
H3    H     H_    0.424759 0.556505 0.205330 0.235407
C49   C     C_R   0.719709 0.257622 0.653648 -0.081120
C50   C     C_R   0.732935 0.281443 0.703513 0.006437
C51   C     C_R   0.742980 0.311525 0.805348 0.012528
C52   C     C_R   0.791362 0.246391 0.781289 0.247260
C53   C     C_R   0.789696 0.236345 0.730833 -0.077442
C54   C     C_R   0.752648 0.336076 0.856436 0.193214
C55   C     C_R   0.692136 0.391107 0.877719 -0.009195
C56   C     C_R   0.597368 0.349531 0.648463 -0.061422
C57   C     C_R   0.615294 0.380819 0.698330 0.048598
C58   C     C_R   0.678659 0.340697 0.726298 0.054860
C59   C     C_R   0.562869 0.442159 0.721432 0.236995
C60   C     C_R   0.566337 0.454415 0.771775 -0.085776
C61   C     C_R   0.624216 0.410221 0.799194 -0.035069
C62   C     C_R   0.683070 0.355027 0.776988 0.007706
C63   C     C_R   0.625514 0.423514 0.848874 -0.148882
C64   C     C_R   0.645744 0.284745 0.626631 0.011461
H4    H     H_    0.581104 0.468348 0.865073 0.164205
H5    H     H_    0.524911 0.500324 0.789657 0.168290
C65   C     C_1   0.224715 0.862572 0.610414 0.083370
C66   C     C_R   0.065726 0.770680 0.719321 0.193114
C67   C     C_R   0.050181 0.765923 0.769240 -0.099058
C68   C     C_R   0.257525 0.901568 0.786990 -0.041769
C69   C     C_R   0.276745 0.908668 0.737379 0.209595
C70   C     C_R   0.180022 0.843026 0.703148 0.005983
C71   C     C_R   0.145411 0.829902 0.802796 -0.028475
C72   C     C_1   0.126940 0.817262 0.853508 0.000634
C73   C     C_1   0.199132 0.852504 0.652089 0.083423
C74   C     C_1   0.102117 0.799189 0.894844 0.043440
C75   C     C_1   0.642133 0.865770 0.611454 0.042258
C76   C     C_R   0.758561 0.862751 0.728089 -0.062164
C77   C     C_R   0.761054 0.852322 0.777599 -0.094089
C78   C     C_R   0.545877 0.765780 0.776881 0.232653
C79   C     C_R   0.545398 0.778331 0.726960 -0.002597
C80   C     C_R   0.650896 0.826062 0.702727 0.029952
C81   C     C_R   0.656109 0.805275 0.802388 0.021007
C82   C     C_1   0.666650 0.798005 0.853553 0.045239
C83   C     C_1   0.648456 0.844867 0.652508 0.025240
C84   C     C_1   0.683817 0.790260 0.895498 0.063403
H6    H     H_    0.845613 0.881826 0.796771 0.147335
O14   O     O_R   0.820790 0.857990 0.068830 -0.461230
O15   O     O_R   0.016700 0.827330 0.062850 -0.499017
C85   C     C_R   0.005008 0.736758 0.083489 0.504668
O16   O     O_R   0.041970 0.673520 0.060040 -0.198999
O17   O     O_R   0.817980 0.483660 0.048840 -0.451646
C86   C     C_R   0.717186 0.441016 0.067291 0.538243
O18   O     O_R   0.637200 0.461990 0.052510 -0.455686
O19   O     O_R   0.664790 0.681920 0.057970 -0.464229
C87   C     C_R   0.718618 0.783041 0.080486 0.552742
O20   O     O_R   0.815840 0.852920 0.961840 -0.469761
O21   O     O_R   0.012100 0.822630 0.963670 -0.498710
C88   C     C_R   0.056934 0.766701 0.941393 0.549496
O22   O     O_R   0.037010 0.668460 0.953040 -0.452990
O23   O     O_R   0.813390 0.478970 0.949660 -0.456347
C89   C     C_R   0.710819 0.436072 0.928607 0.562280
O24   O     O_R   0.632250 0.456930 0.945520 -0.509827
O25   O     O_R   0.660200 0.677230 0.958780 -0.489090
C90   C     C_R   0.716303 0.776465 0.943005 0.559116
Cr4   Cr    Cr6+3 0.914010 0.832750 0.013970 1.141415
Cr5   Cr    Cr6+3 0.922310 0.578600 0.003000 1.343363
Cr6   Cr    Cr6+3 0.656280 0.574630 0.003870 1.147947
O26   O     O_3   0.830870 0.661990 0.006950 -0.373712
H7    H     H_    0.596396 0.136182 0.279875 0.128524
N1    N     N_R   0.123615 0.077559 0.211098 0.085076
O27   O     O_R   0.193766 0.107003 0.175357 -0.246694
O28   O     O_R   0.092473 0.151007 0.230027 -0.232979
H8    H     H_    0.154699 0.081134 0.304291 0.214643
N2    N     N_R   0.217157 0.047459 0.384407 0.079108
O29   O     O_R   0.160154 0.061818 0.420268 -0.304036
O30   O     O_R   0.312911 0.135493 0.371662 -0.328341
N3    N     N_R   0.807924 0.017658 0.125403 0.097195
O31   O     O_R   0.922345 0.071818 0.133098 -0.205153
O32   O     O_R   0.761380 0.042614 0.089524 -0.230395
H9    H     H_    0.801695 0.034005 0.373854 0.208808
H10   H     H_    0.853082 0.116210 0.209994 0.244876
N4    N     N_R   0.872393 0.163286 0.303781 0.084799
O33   O     O_R   0.826890 0.201226 0.337323 -0.325566
O34   O     O_R   0.973107 0.236019 0.287609 -0.173416
N5    N     N_R   0.505544 0.606428 0.122407 0.108326
O35   O     O_R   0.509470 0.513049 0.131085 -0.313786
O36   O     O_R   0.433834 0.601740 0.088014 -0.108884
H11   H     H_    0.422281 0.577413 0.292565 0.169162
H12   H     H_    0.497895 0.695502 0.369689 0.147538
N6    N     N_R   0.829892 0.314450 0.886277 0.119028
O37   O     O_R   0.790016 0.254967 0.923483 -0.230348
O38   O     O_R   0.942833 0.365643 0.879665 -0.231941
H13   H     H_    0.757035 0.206855 0.636660 0.142836
N7    N     N_R   0.829829 0.178690 0.806532 0.116238
O39   O     O_R   0.925286 0.175637 0.794346 -0.293211
O40   O     O_R   0.756756 0.101041 0.833321 -0.274251
H14   H     H_    0.825645 0.185468 0.712787 0.143880
N8    N     N_R   0.506155 0.492407 0.694638 0.062602
O41   O     O_R   0.411712 0.492535 0.710350 -0.298518
O42   O     O_R   0.558597 0.553811 0.659138 -0.325069
H15   H     H_    0.539214 0.367715 0.626844 0.185880
N9    N     N_R   0.965080 0.701107 0.686096 0.081195
O43   O     O_R   0.858450 0.668848 0.699839 -0.342683
O44   O     O_R   0.977779 0.659120 0.644053 -0.315060
H16   H     H_    0.755675 0.533702 0.229057 0.086274
H17   H     H_    0.963650 0.709854 0.782101 0.150613
H18   H     H_    0.330880 0.949883 0.813376 0.183713
N10   N     N_R   0.394814 0.982357 0.722726 0.079119
O45   O     O_R   0.434941 0.951891 0.684745 -0.371317
O46   O     O_R   0.467751 0.073503 0.750711 -0.341342
H19   H     H_    0.840732 0.900848 0.709752 0.154472
N11   N     N_R   0.435022 0.713613 0.800345 0.100440
O47   O     O_R   0.425528 0.667405 0.840927 -0.291925
O48   O     O_R   0.339780 0.703321 0.779084 -0.303279
H20   H     H_    0.462552 0.750472 0.706711 0.195487
H21   H     H_    0.738011 0.503322 0.315762 0.121971
N12   N     N_R   0.996004 0.549865 0.134148 1.002237
O49   O     O_R   0.078418 0.531416 0.115945 -1.180006
O50   O     O_R   0.078418 0.531416 0.115945 -1.180006
N13   N     N_R   0.031646 0.477477 0.215492 0.258471
O51   O     O_R   0.929519 0.384122 0.214196 -0.278435
O52   O     O_R   0.125703 0.467752 0.207763 0.026552
N14   N     N_R   0.058765 0.510471 0.315013 0.099727
O53   O     O_R   0.143863 0.484623 0.313100 -0.258325
O54   O     O_R   0.976508 0.463302 0.345469 -0.285170
H22   H     H_    0.039168 0.916509 0.143296 0.223111

loop_
_geom_bond_atom_site_label_1
_geom_bond_atom_site_label_2
_geom_bond_distance
_ccdc_geom_bond_type
C66   C67   1.404196 A    
C45   C47   1.406437 A    
C10   H16   1.083934 S    
O11   Cr3   2.069117 S    
C38   N3    1.438034 S    
C66   C70   1.418962 A    
C54   N6    1.435369 S    
C54   C55   1.409465 A    
C36   H10   1.080950 S    
C50   C58   1.404821 A    
O17   C86   1.274988 A    
C24   C32   1.411407 A    
N14   O53   1.300749 A    
O19   C87   1.277757 A    
O25   C90   1.271263 A    
C22   C23   1.418645 A    
O4    Cr2   1.900074 S    
C35   C36   1.405175 A    
O15   C85   1.310883 A    
N3    O32   1.301016 A    
O8    Cr1   1.921907 S    
C10   C11   1.398928 A    
C6    C65   1.432907 S    
C44   H3    1.081326 S    
C17   H2    1.082454 S    
C18   C21   1.402682 A    
C19   C20   1.426917 A    
C43   H11   1.083944 S    
C57   C59   1.411325 A    
N14   O54   1.300767 A    
O4    C2    1.271549 A    
C35   C46   1.412049 A    
O23   Cr5   1.945795 S    
C5    O11   1.271437 A    
C76   C77   1.393360 A    
C38   C39   1.414340 A    
C17   C18   1.391410 A    
C77   H6    1.084195 S    
O24   Cr6   2.071594 S    
C51   C62   1.427490 A    
C88   O22   1.266199 A    
C68   H18   1.083887 S    
C65   C73   1.205924 T    
C22   N12   1.433980 S    
C28   C29   1.413171 A    
C8    H7    1.083881 S    
C59   N8    1.437852 S    
O20   C90   1.265991 A    
C44   C45   1.409833 A    
C67   C71   1.397192 A    
N11   O48   1.301570 A    
C49   C50   1.386692 A    
N12   O50   1.301433 A    
Cr4   O26   1.971214 S    
Cr6   O26   1.974690 S    
C19   C30   1.425206 A    
C51   C52   1.422436 A    
O15   Cr4   1.918110 S    
C34   C42   1.411587 A    
N7    O40   1.301320 A    
C34   C37   1.412474 A    
C33   H9    1.080184 S    
N10   O46   1.301577 A    
C41   C42   1.414996 A    
C72   C74   1.204954 T    
C37   N4    1.439714 S    
C23   C85   1.472226 S    
Cr3   O13   1.967400 S    
N8    O42   1.301318 A    
C81   C82   1.440494 S    
C55   C63   1.400514 A    
C76   H19   1.083578 S    
C23   C31   1.392283 A    
C86   O18   1.265041 A    
N5    O36   1.301014 A    
N13   O52   1.301257 A    
N5    O35   1.301293 A    
N9    O44   1.301132 A    
C12   C15   1.439750 S    
C74   C88   1.432693 S    
C9    C13   1.399308 A    
C66   N9    1.443195 S    
C41   C43   1.396619 A    
C17   C32   1.394829 A    
C31   H22   1.080856 S    
C33   C34   1.391910 A    
O10   Cr2   1.950270 S    
Cr1   O13   1.971716 S    
O1    C3    1.271338 A    
C57   C58   1.423070 A    
O14   Cr4   2.057505 S    
C39   C87   1.481750 S    
C49   H13   1.084885 S    
C59   C60   1.392686 A    
O6    C3    1.271195 A    
N2    O30   1.301254 A    
C78   N11   1.444228 S    
C40   C41   1.396919 A    
C77   C81   1.403398 A    
O1    Cr1   2.043860 S    
O12   Cr3   1.907625 S    
C21   N14   1.434333 S    
C45   C46   1.413151 A    
C84   C90   1.431203 S    
C33   C48   1.401552 A    
C7    C15   1.205687 T    
C20   C21   1.397232 A    
C50   C53   1.396340 A    
N1    O28   1.299578 A    
C56   C57   1.398825 A    
C13   C14   1.438656 S    
O25   Cr6   1.898497 S    
C29   C30   1.417638 A    
C58   C62   1.402734 A    
O7    Cr1   2.047474 S    
C78   C81   1.417751 A    
C79   H20   1.083660 S    
O12   C6    1.269411 A    
C89   O24   1.260682 A    
C82   C84   1.204419 T    
C8    C9    1.398038 A    
C68   C71   1.393120 A    
C18   C26   1.408536 A    
C25   C27   1.401714 A    
O14   C87   1.274767 A    
N7    O39   1.301308 A    
C2    O5    1.265640 A    
O17   Cr5   1.912175 S    
O16   Cr5   2.062536 S    
C61   C63   1.376211 A    
N10   O45   1.301133 A    
Cr2   O13   1.974982 S    
C80   C83   1.437288 S    
C67   H17   1.084359 S    
O20   Cr4   2.030891 S    
C75   C83   1.204057 T    
C25   C26   1.417084 A    
N8    O41   1.301357 A    
N4    O34   1.299983 A    
C1    C48   1.462943 S    
C24   C25   1.408676 A    
C47   N5    1.435646 S    
C1    O3    1.264473 A    
C60   H5    1.084834 S    
N11   O47   1.300944 A    
C40   C48   1.398456 A    
N9    O43   1.301824 A    
C35   C38   1.403090 A    
C20   N13   1.432328 S    
C36   C37   1.394360 A    
Cr5   O26   1.967740 S    
C16   C86   1.432622 S    
O9    Cr2   2.016505 S    
C69   N10   1.442596 S    
O2    Cr1   1.932837 S    
O10   C5    1.264059 A    
C49   C64   1.401126 A    
C27   H8    1.081977 S    
C19   C22   1.417104 A    
C3    C32   1.469913 S    
C8    C12   1.403587 A    
C39   C47   1.418508 A    
C61   C62   1.404024 A    
O6    Cr3   1.948943 S    
C11   H21   1.083359 S    
C28   N1    1.438249 S    
C5    C64   1.454154 S    
O8    C4    1.274300 A    
C40   H12   1.084487 S    
N2    O29   1.300819 A    
O18   Cr6   2.015327 S    
C29   C31   1.389846 A    
N3    O31   1.301569 A    
C63   H4    1.085435 S    
N6    O37   1.301458 A    
C51   C54   1.421635 A    
C56   H15   1.081961 S    
C42   C46   1.405797 A    
N1    O27   1.301544 A    
C52   C53   1.396141 A    
O5    Cr3   2.023099 S    
C78   C79   1.408562 A    
C70   C73   1.445792 S    
C14   C16   1.204947 T    
O19   Cr6   1.952023 S    
C52   N7    1.434932 S    
C56   C64   1.393324 A    
C69   C70   1.422796 A    
O7    C6    1.263952 A    
C2    C7    1.434006 S    
C71   C72   1.439107 S    
C24   N2    1.434545 S    
O2    C1    1.276625 A    
N6    O38   1.301256 A    
C43   C44   1.391187 A    
C53   H14   1.084780 S    
C60   C61   1.399835 A    
O3    Cr2   2.068338 S    
O22   Cr5   2.030720 S    
C27   C28   1.392155 A    
C55   C89   1.461749 S    
C4    O9    1.268937 A    
C10   C13   1.403907 A    
N12   O49   1.301433 A    
C85   O16   1.289748 A    
C11   C12   1.399776 A    
N4    O33   1.300609 A    
O23   C89   1.276563 A    
C4    C75   1.431308 S    
C79   C80   1.400778 A    
C68   C69   1.404170 A    
O21   C88   1.272522 A    
O21   Cr4   1.935970 S    
C76   C80   1.394589 A    
N13   O51   1.299324 A    
C26   C30   1.407814 A    
C9    H1    1.083469 S    
