data_mof_unit_53752.cif
_audit_creation_date              2012-10-26T18:26:37-0400
_audit_creation_method            fapswitch 2.2
_symmetry_space_group_name_H-M    P1
_symmetry_Int_Tables_number       1
_space_group_crystal_system       triclinic
_cell_length_a                    15.861347
_cell_length_b                    8.670848
_cell_length_c                    7.505194
_cell_angle_alpha                 102.748817
_cell_angle_beta                  95.619982
_cell_angle_gamma                 92.90482
_cell_volume                      999.130935089

loop_
_atom_site_label
_atom_site_type_symbol
_atom_type_description
_atom_site_fract_x
_atom_site_fract_y
_atom_site_fract_z
_atom_type_partial_charge
C1    C     C_R   0.497349 0.199924 0.453425 0.528933
C2    C     C_3   0.982049 0.604292 0.647914 0.257296
C3    C     C_1   0.250653 0.498605 0.499571 -0.041794
C4    C     C_1   0.749347 0.501396 0.500429 -0.041794
C5    C     C_3   0.033670 0.459191 0.650038 0.277788
C6    C     C_3   0.966330 0.540812 0.349964 0.277788
C7    C     C_3   0.083819 0.499413 0.498467 -0.020426
C8    C     C_3   0.916182 0.500590 0.501534 -0.020427
C9    C     C_1   0.175222 0.498585 0.498415 -0.046463
C10   C     C_1   0.824778 0.501417 0.501586 -0.046463
C11   C     C_3   0.064275 0.151112 0.228727 -0.119576
C12   C     C_R   0.502651 0.800076 0.546575 0.528933
C13   C     C_3   0.935722 0.848888 0.771271 -0.119579
C14   C     C_3   0.883330 0.469632 0.068503 -0.057449
C15   C     C_3   0.116671 0.530370 0.931498 -0.057453
C16   C     C_3   0.358974 0.294651 0.966696 -0.028490
C17   C     C_3   0.641026 0.705349 0.033304 -0.028491
C18   C     C_R   0.340099 0.499038 0.499974 0.526920
C19   C     C_R   0.659901 0.500962 0.500026 0.526920
C20   C     C_2   0.496038 0.031940 0.427352 -0.160058
C21   C     C_2   0.503962 0.968059 0.572648 -0.160058
C22   C     C_3   0.967016 0.352479 0.503231 -0.154260
C23   C     C_3   0.032984 0.647523 0.496771 -0.154260
C24   C     C_3   0.017951 0.395710 0.352088 0.257297
Cu1   Cu    Cu3+1 0.509330 0.517380 0.684380 1.041240
Cu2   Cu    Cu3+1 0.490670 0.482620 0.315620 1.041240
H1    H     H_    0.939823 0.233569 0.509648 0.103929
H2    H     H_    0.911016 0.919023 0.894905 0.147979
H3    H     H_    0.840875 0.397954 0.133796 0.094170
H4    H     H_    0.925941 0.392390 0.986459 0.207119
H5    H     H_    0.842370 0.520929 0.971389 0.147509
H6    H     H_    0.074060 0.607617 0.013538 0.207116
H7    H     H_    0.159128 0.602043 0.866204 0.094170
H8    H     H_    0.157629 0.479074 0.028617 0.147512
H9    H     H_    0.324091 0.404426 0.988387 0.119739
H10   H     H_    0.359926 0.239955 0.086946 0.143360
H11   H     H_    0.323154 0.208595 0.848700 0.098642
H12   H     H_    0.060176 0.766435 0.490356 0.103931
H13   H     H_    0.640074 0.760045 0.913054 0.143360
H14   H     H_    0.675909 0.595574 0.011613 0.119739
H15   H     H_    0.676846 0.791405 0.151300 0.098642
H16   H     H_    0.488531 0.960532 0.287317 0.162846
H17   H     H_    0.511468 0.039468 0.712683 0.162846
H18   H     H_    0.088967 0.080964 0.105083 0.147980
H19   H     H_    0.009741 0.079181 0.259006 0.124189
H20   H     H_    0.116407 0.172134 0.343834 0.122782
H21   H     H_    0.883599 0.827863 0.656142 0.122780
H22   H     H_    0.990258 0.920831 0.741019 0.124196
N1    N     N_2   0.476600 0.456420 0.038510 0.102903
N2    N     N_2   0.523400 0.543580 0.961490 0.102904
O1    O     O_R   0.506070 0.286130 0.619780 -0.457866
O2    O     O_3   0.962143 0.706108 0.810288 -0.561734
O3    O     O_3   0.930964 0.594816 0.196589 -0.554458
O4    O     O_3   0.069036 0.405187 0.803413 -0.554457
O5    O     O_3   0.441638 0.322164 0.923004 -0.473874
O6    O     O_3   0.558362 0.677836 0.076996 -0.473874
O7    O     O_R   0.493930 0.713870 0.380220 -0.457866
O8    O     O_R   0.490300 0.256770 0.308360 -0.509152
O9    O     O_R   0.509700 0.743230 0.691640 -0.509152
O10   O     O_R   0.386960 0.514660 0.655680 -0.481388
O11   O     O_R   0.613040 0.485340 0.344320 -0.481388
O12   O     O_R   0.371190 0.485310 0.344260 -0.540358
O13   O     O_R   0.628810 0.514690 0.655740 -0.540358
O14   O     O_3   0.037857 0.293895 0.189712 -0.561732

loop_
_geom_bond_atom_site_label_1
_geom_bond_atom_site_label_2
_ccdc_geom_bond_type
C13   H22   S    
C20   H16   S    
Cu1   O1    S    
C13   H2    S    
C3    C9    T    
Cu1   O10   S    
C13   O2    S    
Cu2   O8    S    
N2    O6    S    
C16   H11   S    
C15   H8    S    
C8    C22   S    
C4    C19   S    
C14   H5    S    
C6    C24   S    
Cu2   O12   S    
C16   O5    S    
C11   H18   S    
C24   O14   S    
N1    O5    S    
C1    O8    A    
C16   H10   S    
C1    O1    A    
C17   O6    S    
C2    O2    S    
C14   H4    S    
C7    C23   S    
C12   O7    A    
C18   O10   A    
Cu2   O11   S    
C19   O11   A    
C11   O14   S    
C17   H15   S    
C22   H1    S    
C16   H9    S    
Cu1   O13   S    
Cu2   O7    S    
C22   C24   S    
C11   H19   S    
C2    C5    S    
C6    C23   S    
C6    O3    S    
C4    C10   T    
C7    C24   S    
C23   H12   S    
C15   O4    S    
C5    O4    S    
C15   H6    S    
C14   O3    S    
C20   C21   D    
C3    C18   S    
C7    C9    S    
N1    N2    D    
C17   H13   S    
Cu2   N1    S    
C2    C23   S    
C5    C7    S    
Cu1   N2    S    
C18   O12   A    
C1    C20   S    
C6    C8    S    
Cu1   O9    S    
Cu1   Cu2   S    
C21   H17   S    
C12   O9    A    
C13   H21   S    
C12   C21   S    
C15   H7    S    
C8    C10   S    
C2    C8    S    
C5    C22   S    
C19   O13   A    
C14   H3    S    
C11   H20   S    
C17   H14   S    
