data_mof_unit_32521.cif
_audit_creation_date              2012-12-10T18:06:41-0500
_audit_creation_method            fapswitch 2.2
_symmetry_space_group_name_H-M    P1
_symmetry_Int_Tables_number       1
_space_group_crystal_system       triclinic
_cell_length_a                    12.580084
_cell_length_b                    13.144623
_cell_length_c                    15.296133
_cell_angle_alpha                 82.865647
_cell_angle_beta                  99.14247
_cell_angle_gamma                 97.189399
_cell_volume                      2463.52107424

loop_
_atom_site_label
_atom_site_type_symbol
_atom_type_description
_atom_site_fract_x
_atom_site_fract_y
_atom_site_fract_z
_atom_type_partial_charge
C1    C     C_R   0.442861 0.307551 0.510654 0.858569
C2    C     C_R   0.472683 0.585742 0.097018 0.076597
C3    C     C_R   0.380915 0.636771 0.060122 0.067156
C4    C     C_R   0.552617 0.575709 0.044491 0.014888
C5    C     C_R   0.525911 0.590137 0.950663 0.018641
C6    C     C_R   0.426612 0.628881 0.913837 -0.231116
C7    C     C_R   0.358933 0.659301 0.967352 0.152210
C8    C     C_R   0.656950 0.547844 0.082127 0.132517
C9    C     C_R   0.717068 0.504205 0.030895 -0.209384
C10   C     C_R   0.681662 0.500442 0.940322 0.041847
C11   C     C_R   0.594604 0.555592 0.897702 0.098002
C12   C     C_R   0.437348 0.520408 0.335373 0.894978
C13   C     C_R   0.733995 0.444484 0.891460 -0.183248
C14   C     C_R   0.695850 0.436282 0.801789 0.128040
C15   C     C_R   0.577001 0.568311 0.803927 0.106948
C16   C     C_R   0.729959 0.924967 0.571232 0.198132
C17   C     C_R   0.597305 0.798433 0.501029 -0.090694
C18   C     C_R   0.295452 0.159418 0.489286 0.184554
C19   C     C_R   0.267199 0.054291 0.482921 -0.117859
C20   C     C_R   0.346241 0.987377 0.495870 -0.229653
C21   C     C_R   0.456505 0.023137 0.519657 0.101322
C22   C     C_R   0.483459 0.124861 0.541366 0.036049
C23   C     C_R   0.557653 0.691426 0.491870 0.871118
C24   C     C_R   0.540686 0.960209 0.523715 0.051046
C25   C     C_R   0.647628 0.991478 0.564395 0.135544
C26   C     C_R   0.668377 0.087276 0.598247 -0.216290
C27   C     C_R   0.587662 0.152700 0.586762 -0.169509
C28   C     C_R   0.520642 0.867413 0.486334 -0.248071
C29   C     C_R   0.702835 0.827424 0.540868 -0.197366
C30   C     C_R   0.405660 0.196190 0.517049 -0.135222
C31   C     C_R   0.139720 0.659039 0.606536 -0.276979
C32   C     C_R   0.755536 0.378455 0.397069 0.012257
C33   C     C_R   0.847580 0.365195 0.362793 -0.250651
C34   C     C_R   0.566207 0.489139 0.664287 0.884948
C35   C     C_R   0.945349 0.422185 0.390928 0.170391
C36   C     C_R   0.951823 0.484829 0.462029 -0.039815
C37   C     C_R   0.853753 0.500961 0.489599 0.231476
C38   C     C_R   0.048670 0.532494 0.506946 0.009973
C39   C     C_R   0.044627 0.608073 0.565161 0.188526
C40   C     C_R   0.946057 0.628394 0.584748 -0.262217
C41   C     C_R   0.852289 0.571947 0.550349 -0.157841
C42   C     C_R   0.149568 0.501932 0.503020 0.003759
C43   C     C_R   0.237614 0.630801 0.593481 0.031762
C44   C     C_R   0.408873 0.557454 0.240720 -0.123314
C45   C     C_R   0.612672 0.495733 0.757939 -0.132430
C46   C     C_R   0.311984 0.659620 0.117167 -0.172923
C47   C     C_R   0.329457 0.625912 0.208217 0.185908
C48   C     C_R   0.476202 0.535684 0.183023 -0.231693
H1    H     H_    0.800562 0.402204 0.924210 0.180249
H2    H     H_    0.762283 0.772622 0.552014 0.151682
H3    H     H_    0.747166 0.113423 0.632544 0.187668
H4    H     H_    0.443526 0.844567 0.447928 0.173088
H5    H     H_    0.318251 0.907238 0.489478 0.156466
H6    H     H_    0.183552 0.023898 0.464478 0.155781
H7    H     H_    0.607069 0.224878 0.615344 0.196073
H8    H     H_    0.312299 0.671520 0.622004 0.129737
H9    H     H_    0.941910 0.683976 0.630571 0.158809
H10   H     H_    0.138271 0.719082 0.648798 0.167564
H11   H     H_    0.159137 0.437346 0.469814 0.151624
H12   H     H_    0.678409 0.338540 0.371819 0.155103
H13   H     H_    0.840845 0.316378 0.309705 0.179832
H14   H     H_    0.779584 0.584862 0.572815 0.205619
H15   H     H_    0.792459 0.474783 0.061633 0.185617
H16   H     H_    0.246521 0.706310 0.092391 0.199282
H17   H     H_    0.532915 0.479261 0.205797 0.184248
H18   H     H_    0.397825 0.633672 0.843559 0.186509
N1    N     N_R   0.239390 0.551900 0.544730 -0.104939
N2    N     N_R   0.759950 0.448600 0.455730 -0.120520
O1    O     O_R   0.374950 0.371210 0.521360 -0.603889
O2    O     O_R   0.542050 0.338030 0.492790 -0.615406
O3    O     O_R   0.368720 0.526070 0.390200 -0.572021
O4    O     O_R   0.535820 0.492890 0.361630 -0.602399
O5    O     O_R   0.457950 0.661970 0.507210 -0.611183
O6    O     O_R   0.625050 0.628790 0.478640 -0.623817
O7    O     O_R   0.464180 0.507110 0.638370 -0.601423
O8    O     O_R   0.631280 0.473930 0.609800 -0.614142
Zn1   Zn    Zn3+2 0.388420 0.522150 0.519080 0.965588
Zn2   Zn    Zn3+2 0.611580 0.477850 0.480920 0.958767
I1    I     I_    0.217466 0.724629 0.901164 -0.379765
C49   C     C_3   0.844795 0.954135 0.613382 -0.903501
H19   H     H_    0.879236 0.025697 0.576620 0.246321
H20   H     H_    0.846154 0.966660 0.684031 0.253068
H21   H     H_    0.897704 0.892884 0.611975 0.241867
C50   C     C_3   0.206633 0.229137 0.464319 -0.843025
H22   H     H_    0.127728 0.186631 0.439536 0.235121
H23   H     H_    0.195159 0.264826 0.523731 0.248632
H24   H     H_    0.227620 0.289095 0.410220 0.261582
C51   C     C_3   0.551675 0.671517 0.753811 -0.877396
H25   H     H_    0.469494 0.665755 0.715419 0.243021
H26   H     H_    0.559067 0.732282 0.799428 0.252422
H27   H     H_    0.610724 0.697912 0.706726 0.231559
I2    I     I_    0.059140 0.428709 0.300259 -0.361585
I3    I     I_    0.774543 0.336174 0.740562 -0.399423
I4    I     I_    0.239742 0.693061 0.288906 -0.295436
I5    I     I_    0.740774 0.588600 0.207657 -0.323911

loop_
_geom_bond_atom_site_label_1
_geom_bond_atom_site_label_2
_ccdc_geom_bond_type
O2    Zn2   S    
C17   C29   A    
O1    Zn1   S    
C35   C36   A    
N1    Zn1   S    
C50   H24   S    
C4    C8    A    
C26   C27   A    
C17   C23   S    
C31   C43   A    
C31   H10   S    
C36   C37   A    
C50   H23   S    
C38   C42   A    
C3    C7    A    
C5    C6    A    
C27   H7    S    
C37   N2    A    
C18   C19   A    
O4    Zn2   S    
C11   C15   A    
C19   C20   A    
C8    C9    A    
C18   C50   S    
C18   C30   A    
C48   H17   S    
C9    C10   A    
C14   I3    S    
C44   C47   A    
C34   O7    A    
C32   N2    A    
C35   I2    S    
C12   O4    A    
C21   C22   A    
C8    I5    S    
C41   H14   S    
C23   O5    A    
C49   H21   S    
C14   C45   A    
C29   H2    S    
N2    Zn2   S    
C24   C25   A    
C49   H20   S    
C39   C40   A    
C20   H5    S    
C2    C48   A    
C16   C29   A    
C1    O1    A    
C46   H16   S    
C16   C49   S    
C2    C4    A    
C51   H27   S    
C6    H18   S    
C20   C21   A    
C34   C45   S    
C50   H22   S    
O7    Zn1   S    
C32   H12   S    
C13   H1    S    
C19   H6    S    
C43   N1    A    
C40   C41   A    
C12   O3    A    
C51   H26   S    
C22   C27   A    
C42   N1    A    
C15   C45   A    
C23   O6    A    
O3    Zn1   S    
C7    I1    S    
C16   C25   A    
C46   C47   A    
C40   H9    S    
C22   C30   A    
C9    H15   S    
C17   C28   A    
C24   C28   A    
O8    Zn2   S    
C49   H19   S    
C10   C13   A    
C42   H11   S    
C5    C11   A    
C6    C7    A    
C3    C46   A    
C1    O2    A    
C32   C33   A    
C36   C38   A    
C2    C3    A    
C25   C26   A    
C12   C44   S    
C26   H3    S    
C28   H4    S    
C38   C39   A    
C1    C30   S    
C33   C35   A    
C47   I4    S    
C31   C39   A    
C37   C41   A    
C10   C11   A    
C43   H8    S    
C4    C5    A    
C51   H25   S    
C33   H13   S    
O6    Zn2   S    
C21   C24   A    
O5    Zn1   S    
C13   C14   A    
C44   C48   A    
C34   O8    A    
C15   C51   S    
