data_mof_unit_38681.cif
_audit_creation_date              2012-12-10T19:05:52-0500
_audit_creation_method            fapswitch 2.2
_symmetry_space_group_name_H-M    P1
_symmetry_Int_Tables_number       1
_space_group_crystal_system       triclinic
_cell_length_a                    19.371817
_cell_length_b                    10.876692
_cell_length_c                    9.542611
_cell_angle_alpha                 90.646856
_cell_angle_beta                  90.0643
_cell_angle_gamma                 90.533874
_cell_volume                      2010.42349035

loop_
_atom_site_label
_atom_site_type_symbol
_atom_type_description
_atom_site_fract_x
_atom_site_fract_y
_atom_site_fract_z
_atom_type_partial_charge
C1    C     C_R   0.499898 0.262843 0.499286 0.814323
C2    C     C_R   0.291551 0.496399 0.500150 -0.028296
C3    C     C_R   0.930160 0.479748 0.506070 0.431818
C4    C     C_R   0.070322 0.484164 0.502741 0.397199
C5    C     C_R   0.815673 0.475155 0.633626 0.461919
C6    C     C_R   0.743617 0.482783 0.629553 -0.280106
C7    C     C_R   0.708332 0.490871 0.501726 -0.086320
C8    C     C_R   0.745949 0.490387 0.376532 -0.193919
C9    C     C_R   0.817739 0.485730 0.379260 -0.224702
C10   C     C_R   0.853696 0.479995 0.507189 -0.038871
C11   C     C_R   0.505114 0.064647 0.620285 0.153246
C12   C     C_R   0.367466 0.499270 0.499981 0.794257
C13   C     C_R   0.500062 0.130534 0.497319 -0.129352
C14   C     C_R   0.496018 0.063295 0.370412 -0.223570
C15   C     C_R   0.496257 0.934295 0.371218 -0.211318
C16   C     C_R   0.501019 0.870450 0.499118 -0.080066
C17   C     C_R   0.505869 0.940664 0.621267 0.032076
C18   C     C_3   0.513009 0.935532 0.776682 -0.556108
C19   C     C_3   0.511468 0.078054 0.775999 0.554504
C20   C     C_R   0.559398 0.523030 0.074228 0.254049
C21   C     C_R   0.443077 0.464811 0.073692 -0.100538
C22   C     C_R   0.443044 0.464958 0.925061 -0.053947
C23   C     C_R   0.500553 0.737499 0.500420 0.816013
C24   C     C_R   0.559624 0.521632 0.926743 0.231159
C25   C     C_3   0.602961 0.635074 0.922079 -0.500456
C26   C     C_3   0.601919 0.637781 0.080906 -0.488976
C27   C     C_R   0.632514 0.497820 0.500159 0.805701
C28   C     C_R   0.255286 0.497236 0.627403 -0.180263
C29   C     C_R   0.183434 0.493107 0.628068 -0.155146
C30   C     C_R   0.146387 0.487956 0.501477 0.062333
C31   C     C_R   0.182696 0.487138 0.374119 -0.153440
C32   C     C_R   0.254641 0.491382 0.373467 -0.187918
Cu1   Cu    Cu3+1 0.500000 0.499980 0.640670 0.952289
Cu2   Cu    Cu3+1 0.500000 0.500020 0.359330 0.935802
H1    H     H_    0.282335 0.500960 0.726763 0.142585
H2    H     H_    0.492587 0.885372 0.271962 0.157903
H3    H     H_    0.467428 0.890958 0.826163 0.205338
H4    H     H_    0.563760 0.899345 0.808521 0.171557
H5    H     H_    0.396708 0.437220 0.128146 0.141366
H6    H     H_    0.396633 0.437566 0.869732 0.147775
H7    H     H_    0.655064 0.618079 0.878120 0.197712
H8    H     H_    0.574786 0.711544 0.874272 0.213630
H9    H     H_    0.653553 0.622738 0.127834 0.192393
H10   H     H_    0.157029 0.493865 0.728019 0.152690
H11   H     H_    0.573226 0.717194 0.125420 0.209060
H12   H     H_    0.155637 0.483320 0.274795 0.152639
H13   H     H_    0.281256 0.490406 0.273728 0.141792
H14   H     H_    0.715477 0.482069 0.727373 0.154364
H15   H     H_    0.720061 0.494260 0.276220 0.153406
H16   H     H_    0.845069 0.487908 0.280453 0.170210
H17   H     H_    0.492659 0.109755 0.271119 0.154943
N1    N     N_R   0.033897 0.477187 0.381311 -0.240383
N2    N     N_R   0.965229 0.475067 0.382987 -0.248856
N3    N     N_R   0.966760 0.486564 0.627224 -0.166309
N4    N     N_R   0.035357 0.488603 0.625714 -0.245305
N5    N     N_R   0.500440 0.500930 0.147930 -0.185023
N6    N     N_R   0.500440 0.500890 0.852020 -0.187578
O1    O     O_R   0.500000 0.319640 0.618810 -0.560495
O2    O     O_R   0.500010 0.319680 0.381230 -0.590834
O3    O     O_R   0.400140 0.499970 0.618830 -0.587474
O4    O     O_R   0.400150 0.500010 0.381250 -0.590411
O5    O     O_R   0.499990 0.680320 0.618770 -0.573298
O6    O     O_R   0.500000 0.680360 0.381190 -0.585701
O7    O     O_R   0.599850 0.499990 0.618750 -0.587293
O8    O     O_R   0.599860 0.500030 0.381170 -0.585184
O9    O     O_3   0.449497 0.127577 0.831214 -0.566538
C33   C     C_3   0.448390 0.123183 0.979283 0.045494
H18   H     H_    0.480387 0.199483 0.023846 0.146496
H19   H     H_    0.467516 0.034173 0.019961 0.130358
C34   C     C_3   0.374630 0.139674 0.029956 -0.773173
H20   H     H_    0.341649 0.062808 0.990223 0.251524
H21   H     H_    0.373354 0.140445 0.146306 0.202820
H22   H     H_    0.353798 0.227944 0.991660 0.236859
C35   C     C_3   0.578736 0.144876 0.827127 -0.432621
C36   C     C_3   0.642475 0.125062 0.734777 -0.874472
H23   H     H_    0.653370 0.025714 0.720997 0.255167
H24   H     H_    0.635192 0.167465 0.630605 0.248186
H25   H     H_    0.688026 0.169756 0.785253 0.239311
H26   H     H_    0.569280 0.245269 0.834665 0.228136
H27   H     H_    0.591207 0.113107 0.934419 0.177742
O10   O     O_3   0.848715 0.471948 0.762079 -0.565795
C37   C     C_3   0.841226 0.353023 0.818307 0.052598
H28   H     H_    0.860365 0.281556 0.743562 0.143698
H29   H     H_    0.786320 0.333115 0.844705 0.128838
C38   C     C_3   0.883459 0.345583 0.952324 -0.720518
H30   H     H_    0.865239 0.415131 0.029538 0.240448
H31   H     H_    0.877697 0.252687 0.998202 0.193624
H32   H     H_    0.938868 0.363012 0.929370 0.263224

loop_
_geom_bond_atom_site_label_1
_geom_bond_atom_site_label_2
_ccdc_geom_bond_type
C8    C9    A    
Cu2   N5    S    
Cu1   O1    S    
C11   C13   A    
C20   N5    A    
C2    C12   S    
C22   N6    A    
O10   C37   S    
C7    C8    A    
C38   H30   S    
C11   C19   S    
C6    H14   S    
C4    N1    A    
C28   C29   A    
C18   H3    S    
C1    O2    A    
C5    C6    A    
C3    N3    A    
C16   C17   A    
C15   C16   A    
C7    C27   S    
C19   O9    S    
C2    C32   A    
C18   C19   S    
C26   H11   S    
C23   O5    A    
C14   H17   S    
C28   H1    S    
C24   N6    A    
C31   H12   S    
C34   H20   S    
C9    C10   A    
C23   O6    A    
O9    C33   S    
C35   H27   S    
C13   C14   A    
Cu2   O8    S    
C26   H9    S    
Cu1   Cu2   S    
C38   H31   S    
C35   C36   S    
C33   H18   S    
C20   C24   A    
C24   C25   S    
C25   H7    S    
Cu1   O5    S    
C25   C26   S    
Cu2   O4    S    
C33   H19   S    
C36   H23   S    
C29   C30   A    
C27   O8    A    
C5    O10   S    
C31   C32   A    
C21   H5    S    
C22   H6    S    
C34   H22   S    
C17   C18   S    
C36   H24   S    
C16   C23   S    
C37   H29   S    
C35   H26   S    
C4    N4    A    
Cu2   O2    S    
C32   H13   S    
C1    C13   S    
C15   H2    S    
N1    N2    A    
C38   H32   S    
N3    N4    A    
C11   C17   A    
Cu1   N6    S    
C19   C35   S    
C9    H16   S    
C25   H8    S    
C21   N5    A    
C34   H21   S    
C6    C7    A    
Cu1   O3    S    
C37   C38   S    
C33   C34   S    
C18   H4    S    
C5    C10   A    
C29   H10   S    
C3    C10   S    
C1    O1    A    
C12   O4    A    
C3    N2    A    
C30   C31   A    
C20   C26   S    
Cu1   O7    S    
Cu2   O6    S    
C36   H25   S    
C27   O7    A    
C12   O3    A    
C37   H28   S    
C14   C15   A    
C2    C28   A    
C21   C22   A    
C8    H15   S    
C4    C30   S    
