data_mof_unit_6790.cif
_audit_creation_date              2012-12-10T16:42:30-0500
_audit_creation_method            fapswitch 2.2
_symmetry_space_group_name_H-M    P1
_symmetry_Int_Tables_number       1
_space_group_crystal_system       triclinic
_cell_length_a                    7.548582
_cell_length_b                    8.687448
_cell_length_c                    10.820809
_cell_angle_alpha                 87.670015
_cell_angle_beta                  73.583478
_cell_angle_gamma                 102.73363
_cell_volume                      659.904913967

loop_
_atom_site_label
_atom_site_type_symbol
_atom_type_description
_atom_site_fract_x
_atom_site_fract_y
_atom_site_fract_z
_atom_type_partial_charge
C1    C     C_R   0.452011 0.200012 0.506084 0.853615
C2    C     C_R   0.547916 0.799965 0.494072 0.877722
C3    C     C_R   0.424663 0.488252 0.743783 0.828499
C4    C     C_R   0.571776 0.497540 0.257126 0.830641
C5    C     C_2   0.390470 0.478114 0.885103 0.018967
C6    C     C_2   0.593661 0.475776 0.118874 -0.012990
C7    C     C_2   0.456126 0.372463 0.946164 0.203853
C8    C     C_2   0.449315 0.379465 0.083769 0.202322
C9    C     C_2   0.424998 0.031477 0.516952 -0.377428
C10   C     C_2   0.574802 0.968494 0.483340 -0.371403
Cu1   Cu    Cu3+1 0.688910 0.517800 0.485820 0.932415
Cu2   Cu    Cu3+1 0.311090 0.482200 0.514180 0.927314
H1    H     H_    0.280901 0.959189 0.556201 0.164849
H2    H     H_    0.718826 0.040758 0.444019 0.162715
N1    N     N_2   0.027170 0.455360 0.535550 -0.053012
N2    N     N_2   0.972830 0.544640 0.464450 -0.056190
O1    O     O_R   0.622710 0.286400 0.490790 -0.595795
O2    O     O_R   0.377290 0.713600 0.509210 -0.589789
O3    O     O_R   0.303660 0.256330 0.514730 -0.597903
O4    O     O_R   0.696340 0.743670 0.485270 -0.591773
O5    O     O_R   0.600900 0.509520 0.671740 -0.583898
O6    O     O_R   0.399100 0.490480 0.328260 -0.598761
O7    O     O_R   0.281840 0.479450 0.695690 -0.573352
O8    O     O_R   0.718160 0.520550 0.304310 -0.576418
C11   C     C_3   0.276518 0.269693 0.180428 -0.839926
H3    H     H_    0.195751 0.183627 0.130931 0.216015
H4    H     H_    0.320881 0.200190 0.249722 0.225417
H5    H     H_    0.176317 0.338200 0.232814 0.255202
C12   C     C_3   0.514878 0.230646 0.885993 -0.910776
H6    H     H_    0.437462 0.120732 0.952529 0.236302
H7    H     H_    0.479687 0.212157 0.794116 0.211009
H8    H     H_    0.669218 0.243878 0.871021 0.230126
C13   C     C_3   0.774001 0.566024 0.017951 -0.910459
H9    H     H_    0.740131 0.645097 0.949317 0.245719
H10   H     H_    0.872117 0.641294 0.063129 0.237877
H11   H     H_    0.848293 0.481420 0.963430 0.257028
C14   C     C_3   0.294441 0.596714 0.957925 -0.927544
H12   H     H_    0.249862 0.672279 0.892820 0.241351
H13   H     H_    0.166005 0.533151 0.036853 0.255216
H14   H     H_    0.393415 0.675523 0.000395 0.237026
C15   C     C_3   0.910288 0.301709 0.593163 -0.363320
H15   H     H_    0.909842 0.219979 0.517617 0.166118
H16   H     H_    0.973171 0.253667 0.662641 0.158803
H17   H     H_    0.769318 0.309447 0.650747 0.201528
C16   C     C_3   0.093319 0.695754 0.400689 -0.357561
H18   H     H_    0.026948 0.742288 0.332733 0.155408
H19   H     H_    0.100053 0.781702 0.472632 0.167135
H20   H     H_    0.233273 0.686481 0.339427 0.188106

loop_
_geom_bond_atom_site_label_1
_geom_bond_atom_site_label_2
_ccdc_geom_bond_type
N2    C16   S    
Cu1   Cu2   S    
Cu2   N1    S    
C14   H12   S    
C7    C12   S    
C5    C14   S    
C11   H4    S    
C4    O6    A    
C9    C10   D    
C1    O1    A    
C6    C13   S    
C13   H9    S    
C7    C8    S    
C14   H13   S    
C16   H18   S    
C11   H5    S    
C8    C11   S    
C15   H16   S    
Cu2   O7    S    
C12   H6    S    
Cu2   O3    S    
C4    C6    S    
C13   H10   S    
C12   H8    S    
C16   H19   S    
C10   H2    S    
C4    O8    A    
C15   H17   S    
Cu1   O4    S    
C3    O5    A    
Cu1   N2    S    
C1    O3    A    
C2    O4    A    
N1    N2    D    
C2    C10   S    
Cu2   O6    S    
Cu1   O8    S    
C13   H11   S    
C1    C9    S    
N1    C15   S    
C12   H7    S    
C15   H15   S    
C16   H20   S    
Cu2   O2    S    
C5    C7    D    
C14   H14   S    
C9    H1    S    
Cu1   O1    S    
C6    C8    D    
C11   H3    S    
C3    O7    A    
Cu1   O5    S    
C2    O2    A    
C3    C5    S    
