data_mof_unit_9186.cif
_audit_creation_date              2012-12-11T15:16:36-0500
_audit_creation_method            fapswitch 2.2
_symmetry_space_group_name_H-M    P1
_symmetry_Int_Tables_number       1
_space_group_crystal_system       triclinic
_cell_length_a                    25.271233
_cell_length_b                    7.227903
_cell_length_c                    21.834098
_cell_angle_alpha                 89.999967
_cell_angle_beta                  110.173341
_cell_angle_gamma                 89.999974
_cell_volume                      3743.51299938

loop_
_atom_site_label
_atom_site_type_symbol
_atom_type_description
_atom_site_fract_x
_atom_site_fract_y
_atom_site_fract_z
_atom_type_partial_charge
O1    O     O_R   0.554350 0.505270 0.581390 -0.530472
O2    O     O_R   0.445650 0.005270 0.418610 -0.530472
O3    O     O_R   0.553380 0.177580 0.454800 -0.541301
O4    O     O_R   0.446620 0.677580 0.545200 -0.541300
C1    C     C_R   0.565594 0.344784 0.437997 0.679462
C2    C     C_R   0.434405 0.844784 0.562003 0.679461
O5    O     O_R   0.560970 0.175640 0.583140 -0.532648
O6    O     O_R   0.439030 0.675640 0.416860 -0.532648
O7    O     O_R   0.453290 0.004120 0.547860 -0.540417
O8    O     O_R   0.546710 0.504120 0.452140 -0.540418
C3    C     C_R   0.575945 0.343816 0.607691 0.714340
C4    C     C_R   0.424055 0.843817 0.392309 0.714340
O9    O     O_3   0.464660 0.338800 0.488280 -0.375075
O10   O     O_3   0.535340 0.838800 0.511720 -0.375075
V1    V     V_3+5 0.506560 0.064420 0.502170 1.424466
V2    V     V_3+5 0.493440 0.564420 0.497830 1.424466
C5    C     C_R   0.152374 0.013189 0.287388 -0.158250
C6    C     C_R   0.847626 0.513197 0.712612 -0.158250
H1    H     H_    0.068270 0.051545 0.221881 0.173276
H2    H     H_    0.931729 0.551554 0.778120 0.173276
H3    H     H_    0.237114 0.010432 0.399220 0.124670
H4    H     H_    0.762885 0.510444 0.600781 0.124670
H5    H     H_    0.141410 0.058037 0.328871 0.141740
H6    H     H_    0.858589 0.558049 0.671129 0.141740
C7    C     C_R   0.121992 0.944803 0.172026 -0.136339
C8    C     C_R   0.878008 0.444804 0.827974 -0.136339
C9    C     C_R   0.397509 0.811170 0.273450 -0.242480
C10   C     C_R   0.602492 0.311164 0.726550 -0.242481
C11   C     C_R   0.358952 0.813331 0.210187 0.674355
C12   C     C_R   0.641048 0.313322 0.789813 0.674355
C13   C     C_R   0.302054 0.848450 0.198508 -0.184669
C14   C     C_R   0.697946 0.348443 0.801492 -0.184669
C15   C     C_R   0.281555 0.879219 0.250365 0.001659
C16   C     C_R   0.718445 0.379217 0.749635 0.001659
C17   C     C_R   0.322296 0.885512 0.315314 0.058477
C18   C     C_R   0.677704 0.385513 0.684686 0.058477
C19   C     C_R   0.222744 0.911277 0.240210 0.000592
C20   C     C_R   0.777255 0.411278 0.759790 0.000592
C21   C     C_R   0.208009 0.965218 0.295010 0.071069
C22   C     C_R   0.791990 0.465224 0.704990 0.071070
C23   C     C_R   0.248702 0.972118 0.357513 -0.160518
C24   C     C_R   0.751297 0.472126 0.642487 -0.160518
C25   C     C_R   0.304588 0.929533 0.367755 -0.150385
C26   C     C_R   0.695412 0.429540 0.632245 -0.150386
C27   C     C_R   0.177576 0.892773 0.178714 0.538033
C28   C     C_R   0.822424 0.392771 0.821286 0.538033
C29   C     C_R   0.110339 0.007838 0.226401 -0.244003
C30   C     C_R   0.889661 0.507844 0.773600 -0.244003
C31   C     C_R   0.380280 0.849347 0.326402 -0.173720
C32   C     C_R   0.619720 0.349346 0.673598 -0.173720
H7    H     H_    0.441443 0.782433 0.281185 0.147672
H8    H     H_    0.558557 0.282424 0.718815 0.147673
H9    H     H_    0.275924 0.856995 0.148070 0.233718
H10   H     H_    0.724076 0.356986 0.851930 0.233718
H11   H     H_    0.334186 0.935640 0.417274 0.102824
H12   H     H_    0.665814 0.435648 0.582727 0.102825
C33   C     C_R   0.107548 0.775716 0.862022 0.145950
C34   C     C_R   0.892452 0.275716 0.137978 0.145951
C35   C     C_R   0.145089 0.771692 0.827552 -0.134648
C36   C     C_R   0.854911 0.271692 0.172448 -0.134648
H13   H     H_    0.146324 0.649086 0.799575 0.164748
H14   H     H_    0.853675 0.149086 0.200425 0.164748
C37   C     C_R   0.179915 0.922678 0.827627 -0.024005
C38   C     C_R   0.820085 0.422678 0.172373 -0.024005
C39   C     C_R   0.176758 0.080251 0.863894 -0.101507
C40   C     C_R   0.823241 0.580251 0.136106 -0.101507
H15   H     H_    0.203147 0.199351 0.865315 0.159533
H16   H     H_    0.796853 0.699351 0.134685 0.159533
C41   C     C_R   0.139824 0.085479 0.899400 -0.135037
C42   C     C_R   0.860175 0.585479 0.100599 -0.135038
H17   H     H_    0.139500 0.208208 0.927674 0.166203
H18   H     H_    0.860499 0.708208 0.072326 0.166203
C43   C     C_R   0.104320 0.934603 0.899160 -0.075588
C44   C     C_R   0.895679 0.434603 0.100839 -0.075588
N1    N     N_R   0.246894 0.064855 0.780295 -0.264903
N2    N     N_R   0.753106 0.564855 0.219705 -0.264903
N3    N     N_R   0.280614 0.054577 0.744890 -0.271616
N4    N     N_R   0.719385 0.554577 0.255110 -0.271616
C45   C     C_R   0.287730 0.892133 0.717121 0.520869
C46   C     C_R   0.712270 0.392133 0.282879 0.520869
N5    N     N_R   0.259715 0.740560 0.726513 -0.275436
N6    N     N_R   0.740285 0.240560 0.273487 -0.275436
N7    N     N_R   0.225962 0.750930 0.761692 -0.274795
N8    N     N_R   0.774038 0.250930 0.238307 -0.274795
C47   C     C_R   0.218678 0.913065 0.789367 0.540288
C48   C     C_R   0.781322 0.413065 0.210632 0.540288
C49   C     C_R   0.336278 0.708101 0.653695 -0.121248
C50   C     C_R   0.663722 0.208101 0.346305 -0.121247
H19   H     H_    0.318185 0.581898 0.664575 0.140957
H20   H     H_    0.681815 0.081898 0.335425 0.140957
C51   C     C_R   0.371415 0.696293 0.616214 -0.153708
C52   C     C_R   0.628585 0.196293 0.383786 -0.153708
H21   H     H_    0.379265 0.561528 0.599424 0.122216
H22   H     H_    0.620735 0.061528 0.400576 0.122216
C53   C     C_R   0.396091 0.856115 0.600855 -0.047998
C54   C     C_R   0.603909 0.356115 0.399145 -0.047998
C55   C     C_R   0.384479 0.027993 0.624036 -0.149418
C56   C     C_R   0.615520 0.527993 0.375963 -0.149417
H23   H     H_    0.402630 0.154523 0.613491 0.124982
H24   H     H_    0.597369 0.654523 0.386508 0.124982
C57   C     C_R   0.349568 0.039610 0.661689 -0.125479
C58   C     C_R   0.650432 0.539610 0.338310 -0.125479
H25   H     H_    0.341785 0.174309 0.678587 0.138268
H26   H     H_    0.658215 0.674309 0.321413 0.138268
C59   C     C_R   0.324999 0.879902 0.677122 0.020156
C60   C     C_R   0.675000 0.379902 0.322877 0.020157
O11   O     O_R   0.953220 0.285790 0.047790 -0.517729
O12   O     O_R   0.046780 0.785790 0.952210 -0.517729
O13   O     O_R   0.939020 0.617570 0.916840 -0.540757
O14   O     O_R   0.060980 0.117570 0.083160 -0.540757
C61   C     C_R   0.923659 0.448830 0.892546 0.790240
C62   C     C_R   0.076341 0.948830 0.107454 0.790241
O15   O     O_R   0.946600 0.615450 0.045180 -0.539350
O16   O     O_R   0.053400 0.115450 0.954820 -0.539350
O17   O     O_R   0.054370 0.786770 0.081410 -0.519496
O18   O     O_R   0.945630 0.286770 0.918590 -0.519495
C63   C     C_R   0.934725 0.446282 0.062425 0.724372
C64   C     C_R   0.065275 0.946282 0.937575 0.724373
O19   O     O_3   0.035300 0.454160 0.011680 -0.366297
O20   O     O_3   0.964700 0.954160 0.988320 -0.366296
V3    V     V_3+5 0.993450 0.728620 0.997830 1.556438
V4    V     V_3+5 0.006550 0.228620 0.002170 1.556439
F1    F     F_    0.185310 0.820106 0.125234 -0.710971
F2    F     F_    0.814691 0.320100 0.874765 -0.710970
F3    F     F_    0.376991 0.782749 0.159315 -0.638448
F4    F     F_    0.623010 0.282735 0.840685 -0.638449
I1    I     I_    0.057202 0.533264 0.849730 -0.442868
I2    I     I_    0.942798 0.033264 0.150270 -0.442869

loop_
_geom_bond_atom_site_label_1
_geom_bond_atom_site_label_2
_ccdc_geom_bond_type
C40   H16   S    
C12   F4    S    
C34   I2    S    
O17   V3    S    
C11   F3    S    
C9    C11   A    
O1    C3    A    
O12   V3    S    
O2    C4    A    
C2    O7    A    
C37   C39   A    
C4    C31   S    
O3    V1    S    
C21   C23   A    
H4    C24   S    
C27   F1    S    
O5    C3    A    
C5    H5    S    
O18   V4    S    
C6    H6    S    
N2    N4    A    
C49   C51   A    
O13   C61   A    
N4    C46   A    
C33   C35   A    
C33   C43   A    
C46   C60   S    
C52   C54   A    
C45   C59   S    
C36   H14   S    
C5    C21   A    
C38   C48   S    
C41   H17   S    
C6    C22   A    
C7    C62   S    
N5    N7    A    
C10   C32   A    
N1    C47   A    
C50   C52   A    
C39   H15   S    
C54   C56   A    
C42   C44   A    
C13   C15   A    
C41   C43   A    
C61   O18   A    
C12   C14   A    
C17   C25   A    
C7    C29   A    
C8    C30   A    
O6    V2    S    
O5    V1    S    
C57   H25   S    
C37   C47   S    
C23   C25   A    
C28   F2    S    
C24   C26   A    
C14   H10   S    
C55   H23   S    
C9    H7    S    
N3    C45   A    
C57   C59   A    
C35   H13   S    
O12   C64   A    
C46   N6    A    
C45   N5    A    
C56   C58   A    
C15   C19   A    
C38   C40   A    
O4    V2    S    
C17   C31   A    
C51   H21   S    
C50   C60   A    
C26   H12   S    
C49   C59   A    
O6    C4    A    
C52   H22   S    
O1    V2    S    
H2    C30   S    
C13   H9    S    
C58   H26   S    
O2    V1    S    
N1    N3    A    
O16   C64   A    
O15   C63   A    
C25   H11   S    
N7    C47   A    
C50   H20   S    
N6    N8    A    
C49   H19   S    
H3    C23   S    
C18   C26   A    
O4    C2    A    
C19   C27   A    
C7    C27   A    
C1    C54   S    
C18   C32   A    
O20   V3    S    
C34   C44   A    
O19   V4    S    
C44   C63   S    
C43   C64   S    
C16   C20   A    
C5    C29   A    
N8    C48   A    
O3    C1    A    
C6    C30   A    
C33   I1    S    
C53   C55   A    
O9    V2    S    
C35   C37   A    
C36   C38   A    
C10   C12   A    
O7    V1    S    
C1    O8    A    
C19   C21   A    
C3    C32   S    
O8    V2    S    
O14   V4    S    
C20   C22   A    
C10   H8    S    
O13   V3    S    
C40   C42   A    
C39   C41   A    
C22   C24   A    
C15   C17   A    
C58   C60   A    
C16   C18   A    
C56   H24   S    
O14   C62   A    
C20   C28   A    
C8    C28   A    
C51   C53   A    
O16   V4    S    
O15   V3    S    
C11   C13   A    
C2    C53   S    
H1    C29   S    
N2    C48   A    
O10   V1    S    
C42   H18   S    
O11   V4    S    
C34   C36   A    
C8    C61   S    
O11   C63   A    
C62   O17   A    
C55   C57   A    
C9    C31   A    
C14   C16   A    
