data_mof_unit_48082.cif
_audit_creation_date              2012-12-10T17:02:50-0500
_audit_creation_method            fapswitch 2.2
_symmetry_space_group_name_H-M    P1
_symmetry_Int_Tables_number       1
_space_group_crystal_system       triclinic
_cell_length_a                    18.529505
_cell_length_b                    18.916279
_cell_length_c                    19.130152
_cell_angle_alpha                 109.820203
_cell_angle_beta                  109.203118
_cell_angle_gamma                 109.030203
_cell_volume                      5184.34917639

loop_
_atom_site_label
_atom_site_type_symbol
_atom_type_description
_atom_site_fract_x
_atom_site_fract_y
_atom_site_fract_z
_atom_type_partial_charge
C1    C     C_R   0.379580 0.382074 0.499682 0.842710
C2    C     C_R   0.310446 0.318053 0.571621 -0.005941
C3    C     C_3   0.674927 0.814662 0.650146 -0.791028
C4    C     C_3   0.996807 0.149712 0.966298 -0.911347
C5    C     C_3   0.876471 0.004937 0.650663 -0.783267
C6    C     C_3   0.199646 0.935404 0.443774 -0.858853
C7    C     C_3   0.790094 0.752058 0.254458 -0.786115
C8    C     C_3   0.723987 0.595478 0.274695 -0.880597
C9    C     C_3   0.787125 0.518267 0.050547 -0.750797
C10   C     C_3   0.921140 0.578410 0.763426 -0.712512
C11   C     C_R   0.190479 0.170232 0.487147 -0.158468
C12   C     C_R   0.617915 0.497748 0.617978 0.845519
C13   C     C_R   0.174572 0.173225 0.409459 0.022197
C14   C     C_R   0.233688 0.248283 0.415547 -0.005440
C15   C     C_R   0.304943 0.317805 0.495958 -0.172046
C16   C     C_R   0.105090 0.104162 0.325291 0.125333
C17   C     C_R   0.086220 0.117533 0.254499 0.196836
C18   C     C_R   0.143071 0.194375 0.263308 0.151663
C19   C     C_R   0.217785 0.256083 0.341875 -0.209723
C20   C     C_3   0.808025 0.497334 0.807318 0.027330
C21   C     C_R   0.212400 0.486717 0.378700 0.121233
C22   C     C_R   0.147041 0.502614 0.389163 -0.230978
C23   C     C_R   0.111055 0.541407 0.349205 0.223217
C24   C     C_R   0.625525 0.618868 0.506678 0.780087
C25   C     C_R   0.134770 0.556842 0.290738 0.167274
C26   C     C_R   0.185854 0.522622 0.265322 -0.033607
C27   C     C_R   0.237860 0.503276 0.320634 0.037277
C28   C     C_R   0.186781 0.505874 0.187153 -0.135226
C29   C     C_R   0.255810 0.494497 0.177381 0.011209
C30   C     C_R   0.327903 0.513786 0.250507 -0.031349
C31   C     C_3   0.850274 0.574751 0.791195 -0.003079
C32   C     C_R   0.313949 0.504758 0.316630 -0.140848
C33   C     C_R   0.257873 0.467467 0.099147 0.073869
C34   C     C_R   0.336373 0.475540 0.099174 0.127338
C35   C     C_R   0.413887 0.516826 0.177034 0.214946
C36   C     C_R   0.379451 0.499756 0.381309 0.875131
C37   C     C_R   0.410603 0.541340 0.253808 0.126688
C38   C     C_R   0.662927 0.803942 0.564635 0.192370
C39   C     C_R   0.629817 0.851497 0.536166 -0.261812
C40   C     C_R   0.639206 0.863729 0.471043 0.112949
C41   C     C_R   0.693165 0.839259 0.443208 0.190247
C42   C     C_3   0.735381 0.506008 0.832308 0.217786
C43   C     C_R   0.735580 0.800458 0.480549 -0.040370
C44   C     C_R   0.701593 0.764533 0.523106 0.030470
C45   C     C_R   0.811455 0.797693 0.480904 -0.163362
C46   C     C_R   0.826232 0.729848 0.488067 0.075092
C47   C     C_R   0.764882 0.669772 0.497232 0.000435
C48   C     C_3   0.695670 0.410352 0.646684 0.017419
C49   C     C_R   0.701354 0.687066 0.514456 -0.168430
C50   C     C_R   0.894860 0.714664 0.479940 0.127861
C51   C     C_R   0.900307 0.642729 0.480044 -0.183970
C52   C     C_R   0.838136 0.582593 0.484742 0.215630
C53   C     C_R   0.356106 0.393406 0.654291 0.203149
C54   C     C_R   0.771130 0.595944 0.492977 -0.185783
C55   C     C_R   0.997555 0.381583 0.878576 0.826857
C56   C     C_R   0.877445 0.499820 0.877984 0.874398
C57   C     C_R   0.987724 0.618222 0.106676 0.799013
C58   C     C_R   0.117359 0.501435 0.117496 0.889201
C59   C     C_R   0.999350 0.879373 0.382056 0.845375
C60   C     C_3   0.760679 0.408900 0.722790 -0.043204
C61   C     C_R   0.119812 0.111767 0.494040 0.785790
C62   C     C_R   0.999870 0.119683 0.617564 0.813422
C63   C     C_R   0.880877 0.874273 0.491932 0.861289
C64   C     C_R   0.382174 0.385026 0.727751 0.234446
C65   C     C_R   0.008692 0.399082 0.736944 -0.204190
C66   C     C_R   0.033261 0.419865 0.682441 0.150628
C67   C     C_R   0.064332 0.373090 0.639570 0.190692
C68   C     C_R   0.062163 0.300181 0.645155 0.078952
C69   C     C_R   0.023423 0.270379 0.690402 -0.002541
C70   C     C_R   0.009234 0.328196 0.746333 0.004330
C71   C     C_R   0.998510 0.186983 0.683199 -0.142745
C72   C     C_3   0.775647 0.581047 0.730554 -0.068253
C73   C     C_R   0.975495 0.169838 0.742405 0.016468
C74   C     C_R   0.991458 0.239692 0.814517 -0.014145
C75   C     C_R   0.361937 0.303469 0.718377 -0.216378
C76   C     C_R   0.998932 0.315461 0.812008 -0.130941
C77   C     C_R   0.939481 0.086722 0.735084 0.137668
C78   C     C_R   0.949173 0.079853 0.808395 0.194308
C79   C     C_R   0.982886 0.153932 0.886013 0.155655
C80   C     C_R   0.999096 0.231764 0.887210 -0.202691
C81   C     C_R   0.090651 0.808082 0.173868 -0.131697
C82   C     C_R   0.167739 0.887260 0.225402 -0.205965
C83   C     C_R   0.200728 0.929866 0.313122 -0.129573
C84   C     C_3   0.659805 0.496467 0.753971 -0.164192
C85   C     C_R   0.151547 0.898867 0.348723 0.148963
C86   C     C_R   0.303967 0.230366 0.638042 -0.201673
C87   C     C_R   0.064655 0.826530 0.293369 0.043060
C88   C     C_R   0.043236 0.772620 0.209312 0.061791
C89   C     C_R   0.996142 0.808851 0.314125 -0.175872
C90   C     C_R   0.916805 0.727450 0.258138 -0.026788
C91   C     C_R   0.911074 0.661995 0.188603 0.034119
C92   C     C_R   0.976780 0.684950 0.164567 -0.191880
C93   C     C_R   0.842175 0.706778 0.269874 0.152322
C94   C     C_R   0.792704 0.621205 0.249515 0.189058
C95   C     C_R   0.792511 0.555975 0.187685 -0.211341
C96   C     C_3   0.686425 0.495155 0.683602 0.001797
C97   C     C_R   0.268432 0.237778 0.564856 0.057496
C98   C     C_R   0.837230 0.577344 0.145583 0.150934
C99   C     C_3   0.710896 0.385473 0.568453 -0.855679
C100  C     C_3   0.128039 0.213089 0.190700 -0.898112
C101  C     C_3   0.429324 0.462431 0.815819 -0.878248
C102  C     C_3   0.056235 0.012431 0.304140 -0.723676
C103  C     C_3   0.500155 0.533452 0.179094 -0.850697
C104  C     C_3   0.048249 0.566650 0.370258 -0.889072
C105  C     C_3   0.119980 0.623264 0.271243 -0.824888
C106  C     C_3   0.494483 0.610544 0.336182 -0.810547
C107  C     C_3   0.843890 0.504542 0.482352 -0.908991
Cu1   Cu    Cu3+1 0.500360 0.438220 0.438540 0.926159
Cu2   Cu    Cu3+1 0.499640 0.561780 0.561460 0.905031
Cu3   Cu    Cu3+1 0.935530 0.438290 0.997340 0.941016
Cu4   Cu    Cu3+1 0.059130 0.561800 0.997250 0.927243
Cu5   Cu    Cu3+1 0.937870 0.000030 0.437890 0.914971
Cu6   Cu    Cu3+1 0.062130 0.000000 0.562130 0.920921
H1    H     H_    0.769457 0.634096 0.771768 0.120712
H2    H     H_    0.952870 0.632812 0.474005 0.139372
H3    H     H_    0.550898 0.433465 0.761639 0.234380
H4    H     H_    0.570743 0.364510 0.698386 0.208436
H5    H     H_    0.656288 0.451135 0.876511 0.212026
H6    H     H_    0.666832 0.377558 0.808773 0.200103
H7    H     H_    0.725257 0.547757 0.497262 0.165716
H8    H     H_    0.989207 0.439722 0.771564 0.193469
H9    H     H_    0.020591 0.286649 0.946799 0.185477
H10   H     H_    0.743177 0.489500 0.160022 0.155067
H11   H     H_    0.067516 0.776008 0.105959 0.158923
H12   H     H_    0.204373 0.913146 0.197861 0.145436
H13   H     H_    0.265197 0.986833 0.353619 0.144097
H14   H     H_    0.652902 0.554982 0.778774 0.171594
H15   H     H_    0.773383 0.432672 0.580745 0.224908
H16   H     H_    0.887486 0.635437 0.853870 0.145034
H17   H     H_    0.711052 0.323241 0.550035 0.218680
H18   H     H_    0.657915 0.371590 0.509288 0.257163
H19   H     H_    0.732296 0.594760 0.930053 0.221566
H20   H     H_    0.791102 0.641766 0.894168 0.181429
H21   H     H_    0.066319 0.161706 0.130934 0.234836
H22   H     H_    0.125172 0.274075 0.208913 0.244494
H23   H     H_    0.183264 0.220877 0.177349 0.242822
H24   H     H_    0.419629 0.520273 0.688411 0.249920
H25   H     H_    0.311303 0.463497 0.608132 0.224771
H26   H     H_    0.447882 0.445099 0.866466 0.223373
H27   H     H_    0.385794 0.295849 0.773693 0.146665
H28   H     H_    0.490093 0.512346 0.826152 0.220539
H29   H     H_    0.386011 0.490165 0.822570 0.257080
H30   H     H_    0.088347 0.002424 0.356386 0.198299
H31   H     H_    0.987077 0.994202 0.287278 0.260588
H32   H     H_    0.056338 0.968241 0.248417 0.230449
H33   H     H_    0.030793 0.031232 0.128576 0.221604
H34   H     H_    0.968827 0.074238 0.153661 0.222337
H35   H     H_    0.494209 0.507958 0.114883 0.256644
H36   H     H_    0.547071 0.603858 0.215548 0.230168
H37   H     H_    0.527249 0.501167 0.210297 0.230420
H38   H     H_    0.289859 0.168801 0.634340 0.177050
H39   H     H_    0.195753 0.393368 0.409792 0.209415
H40   H     H_    0.276944 0.492488 0.489557 0.235156
H41   H     H_    0.034283 0.546181 0.414502 0.222078
H42   H     H_    0.076371 0.637779 0.401416 0.231312
H43   H     H_    0.984901 0.535338 0.310835 0.242055
H44   H     H_    0.048888 0.600259 0.239080 0.246252
H45   H     H_    0.151621 0.684550 0.331990 0.223134
H46   H     H_    0.149767 0.640366 0.233867 0.229176
H47   H     H_    0.168078 0.364412 0.981885 0.207821
H48   H     H_    0.190554 0.461128 0.988103 0.242547
H49   H     H_    0.630216 0.354511 0.619160 0.147706
H50   H     H_    0.319316 0.477596 0.989284 0.221660
H51   H     H_    0.295476 0.379410 0.981669 0.221742
H52   H     H_    0.542015 0.587024 0.347615 0.251812
H53   H     H_    0.523357 0.668184 0.330244 0.220095
H54   H     H_    0.484841 0.633681 0.392006 0.226712
H55   H     H_    0.892746 0.496793 0.463586 0.233084
H56   H     H_    0.864657 0.511717 0.546768 0.228864
H57   H     H_    0.779055 0.445387 0.435551 0.235812
H58   H     H_    0.610120 0.785669 0.646290 0.236744
H59   H     H_    0.714168 0.785877 0.673487 0.236459
H60   H     H_    0.260636 0.313605 0.345486 0.186326
H61   H     H_    0.711422 0.884514 0.698252 0.206035
H62   H     H_    0.529409 0.866846 0.410129 0.224607
H63   H     H_    0.618505 0.964759 0.484762 0.219804
H64   H     H_    0.627230 0.797531 0.316992 0.214911
H65   H     H_    0.708628 0.901414 0.376920 0.253848
H66   H     H_    0.959445 0.729616 0.414835 0.203115
H67   H     H_    0.019896 0.796290 0.520722 0.231319
H68   H     H_    0.933566 0.105487 0.957226 0.232450
H69   H     H_    0.044095 0.126100 0.982220 0.234230
H70   H     H_    0.023887 0.214106 0.021672 0.244833
H71   H     H_    0.127896 0.488632 0.432789 0.150665
H72   H     H_    0.990641 0.470226 0.610682 0.231509
H73   H     H_    0.094205 0.536965 0.694353 0.242974
H74   H     H_    0.851611 0.410192 0.679599 0.252588
H75   H     H_    0.789284 0.314725 0.667110 0.220490
H76   H     H_    0.164236 0.414499 0.615704 0.250969
H77   H     H_    0.063299 0.349252 0.527672 0.223612
H78   H     H_    0.061827 0.216248 0.549175 0.255843
H79   H     H_    0.138831 0.242810 0.648842 0.235300
H80   H     H_    0.858293 0.015193 0.595304 0.219353
H81   H     H_    0.903960 0.960914 0.644647 0.253757
H82   H     H_    0.719604 0.357858 0.730248 0.128766
H83   H     H_    0.813947 0.973264 0.649793 0.232215
H84   H     H_    0.873032 0.983804 0.819482 0.217131
H85   H     H_    0.975359 0.997745 0.844439 0.225116
H86   H     H_    0.172384 0.886681 0.461185 0.248641
H87   H     H_    0.269541 0.952195 0.466474 0.215419
H88   H     H_    0.198462 0.995297 0.477031 0.246274
H89   H     H_    0.780388 0.555599 0.619318 0.237138
H90   H     H_    0.760325 0.637064 0.654968 0.204004
H91   H     H_    0.790633 0.788585 0.313055 0.269481
H92   H     H_    0.814390 0.794185 0.229495 0.241119
H93   H     H_    0.597281 0.879474 0.564902 0.156245
H94   H     H_    0.720340 0.704628 0.204745 0.218434
H95   H     H_    0.738275 0.562782 0.311565 0.247094
H96   H     H_    0.720151 0.651459 0.313433 0.252742
H97   H     H_    0.659629 0.549505 0.215911 0.231618
H98   H     H_    0.784508 0.454934 0.034242 0.242426
H99   H     H_    0.718736 0.506877 0.025240 0.198152
H100  H     H_    0.815793 0.547977 0.018880 0.266358
H101  H     H_    0.966632 0.558787 0.793480 0.244670
H102  H     H_    0.892991 0.538987 0.694128 0.229232
H103  H     H_    0.962233 0.645889 0.780531 0.227204
N1    N     N_3   0.776668 0.591958 0.908129 -0.632794
N2    N     N_3   0.030709 0.491990 0.675073 -0.617613
N3    N     N_3   0.822591 0.381595 0.707932 -0.616214
N4    N     N_3   0.098768 0.400459 0.590611 -0.615276
N5    N     N_3   0.107959 0.264591 0.611556 -0.607789
N6    N     N_3   0.921601 0.996485 0.801957 -0.597109
N7    N     N_3   0.797455 0.608939 0.673941 -0.575588
N8    N     N_3   0.571838 0.423501 0.716600 -0.608573
N9    N     N_3   0.700327 0.441638 0.856829 -0.564862
N10   N     N_3   0.356036 0.472320 0.664977 -0.600298
N11   N     N_3   0.010436 0.050284 0.173213 -0.610902
N12   N     N_3   0.248038 0.449426 0.424371 -0.602898
N13   N     N_3   0.179646 0.426131 0.019162 -0.604231
N14   N     N_3   0.338725 0.445831 0.020570 -0.607370
N15   N     N_3   0.596967 0.903938 0.435229 -0.610366
N16   N     N_3   0.691588 0.839288 0.367806 -0.573434
N17   N     N_3   0.958203 0.768586 0.467808 -0.561643
O1    O     O_R   0.410140 0.357660 0.448100 -0.582527
O2    O     O_R   0.052970 0.909860 0.462770 -0.588878
O3    O     O_R   0.037700 0.090200 0.447550 -0.587870
O4    O     O_R   0.409530 0.462000 0.551910 -0.603020
O5    O     O_R   0.142640 0.090170 0.552470 -0.607823
O6    O     O_R   0.947030 0.090160 0.537260 -0.589740
O7    O     O_R   0.051970 0.090130 0.642170 -0.571615
O8    O     O_R   0.857360 0.909860 0.447560 -0.583445
O9    O     O_R   0.962300 0.909830 0.552480 -0.568539
O10   O     O_R   0.590960 0.447830 0.538760 -0.605278
O11   O     O_R   0.590350 0.552170 0.642570 -0.605316
O12   O     O_R   0.049980 0.462000 0.907580 -0.600786
O13   O     O_R   0.590470 0.538000 0.448090 -0.597559
O14   O     O_R   0.589860 0.642340 0.551900 -0.579656
O15   O     O_R   0.409650 0.447830 0.357430 -0.580671
O16   O     O_R   0.409040 0.552170 0.461240 -0.574691
O17   O     O_R   0.945600 0.357690 0.907660 -0.583978
O18   O     O_R   0.854480 0.447890 0.906670 -0.570345
O19   O     O_R   0.958860 0.552200 0.906600 -0.619498
O20   O     O_R   0.944670 0.538090 0.087010 -0.585748
O21   O     O_R   0.049050 0.642400 0.086940 -0.593871
O22   O     O_R   0.035800 0.447890 0.088000 -0.583255
O23   O     O_R   0.140170 0.552200 0.087920 -0.577139
O24   O     O_R   0.948030 0.909890 0.357850 -0.602800

loop_
_geom_bond_atom_site_label_1
_geom_bond_atom_site_label_2
_ccdc_geom_bond_type
C44   C49   A    
C6    H87   S    
C87   C88   A    
C56   O18   A    
C9    C98   S    
H63   N15   S    
C57   C92   S    
C54   H7    S    
Cu3   O20   S    
C17   N11   S    
C73   C74   A    
H40   N12   S    
C24   O13   A    
C68   N5    S    
H66   N17   S    
C42   N1    S    
C3    H58   S    
H64   N16   S    
C81   C82   A    
C101  H26   S    
C95   C98   A    
C25   C105  S    
C47   C49   A    
H74   N3    S    
C45   C46   A    
Cu3   O17   S    
H65   N16   S    
H73   N2    S    
Cu2   O16   S    
C26   C27   A    
H24   N10   S    
C6    C85   S    
C74   C76   A    
C104  H41   S    
C61   O5    A    
C32   C36   S    
C28   C29   A    
H85   N6    S    
H79   N5    S    
H19   N1    S    
C35   C103  S    
C75   H27   S    
C102  H32   S    
C84   C96   S    
C6    H86   S    
Cu5   O24   S    
C53   C64   A    
C8    H97   S    
C3    H59   S    
H75   N3    S    
C61   O3    A    
C48   H49   S    
H33   N11   S    
C9    H99   S    
C65   C70   A    
C63   O8    A    
C39   H93   S    
C29   C33   A    
C4    H70   S    
C24   C49   S    
C72   H1    S    
C62   O7    A    
Cu1   Cu2   S    
Cu1   O10   S    
H51   N14   S    
C34   C35   A    
C59   C89   S    
C57   O21   A    
C8    H95   S    
C86   C97   A    
Cu6   O5    S    
Cu3   Cu4   S    
C22   H71   S    
C75   C86   A    
C103  H37   S    
H39   N12   S    
C101  H28   S    
C10   C31   S    
C64   C75   A    
Cu6   O7    S    
C105  H44   S    
C88   C92   A    
C52   C107  S    
C52   C54   A    
C16   C17   A    
C12   O11   A    
C17   C18   A    
C3    C38   S    
C58   O23   A    
C1    C15   S    
C65   H8    S    
C4    H68   S    
C20   C60   S    
Cu3   O22   S    
H76   N4    S    
C7    H92   S    
H50   N14   S    
C84   H14   S    
C66   C67   A    
C21   C27   A    
C91   C98   A    
C74   C80   A    
C21   C22   A    
C107  H55   S    
C41   C43   A    
C34   N14   S    
C18   C100  S    
C33   N13   S    
C14   C19   A    
Cu5   Cu6   S    
C103  H36   S    
C100  H21   S    
C103  H35   S    
C48   C60   S    
C85   C87   A    
H5    N9    S    
C64   C101  S    
C7    C93   S    
Cu1   O1    S    
C69   C71   A    
H72   N2    S    
C81   H11   S    
H90   N7    S    
C67   C68   A    
C106  H52   S    
H62   N15   S    
C2    C97   A    
C4    C79   S    
C7    H94   S    
H84   N6    S    
C84   N8    S    
C60   N3    S    
C91   C92   A    
C71   C73   A    
H34   N11   S    
C78   C79   A    
C10   H101  S    
C80   H9    S    
Cu2   O11   S    
C9    H100  S    
C25   C26   A    
C77   C78   A    
C72   N7    S    
C45   C63   S    
H20   N1    S    
C62   O6    A    
C51   C52   A    
C30   C37   A    
C38   C39   A    
H3    N8    S    
C50   N17   S    
C43   C44   A    
C19   H60   S    
C82   H12   S    
C38   C44   A    
C29   C30   A    
C53   N10   S    
C101  H29   S    
C3    H61   S    
C23   C104  S    
C102  H31   S    
C41   N16   S    
C1    O1    A    
Cu4   O12   S    
C12   O10   A    
C7    H91   S    
C33   C34   A    
C55   O17   A    
C8    C94   S    
C58   O22   A    
C50   C51   A    
C93   C94   A    
C104  H43   S    
C40   N15   S    
C2    C15   A    
C43   C45   A    
C36   O16   A    
C99   H15   S    
C78   N6    S    
C47   C54   A    
H48   N13   S    
C55   C76   S    
C16   C102  S    
C40   C41   A    
C83   C85   A    
H67   N17   S    
Cu6   O9    S    
C28   C58   S    
C82   C83   A    
C5    H83   S    
C70   C76   A    
H4    N8    S    
C36   O15   A    
C63   O9    A    
C102  H30   S    
C83   H13   S    
C5    C77   S    
C8    H96   S    
C106  H53   S    
C39   C40   A    
H6    N9    S    
C90   C93   A    
C5    H80   S    
C107  H56   S    
C42   N9    S    
C95   H10   S    
Cu4   O23   S    
Cu6   O2    S    
C21   N12   S    
C46   C50   A    
C46   C47   A    
Cu5   O8    S    
C48   C96   S    
C99   H17   S    
C35   C37   A    
C27   C32   A    
C14   C15   A    
H89   N7    S    
C68   C69   A    
C22   C23   A    
C59   O2    A    
C11   C61   S    
C2    C53   A    
H77   N4    S    
C20   C42   S    
C100  H22   S    
C31   C72   S    
C42   C84   S    
Cu2   O4    S    
Cu3   O18   S    
Cu1   O15   S    
C26   C28   A    
C99   H18   S    
C11   C97   A    
C1    O4    A    
C106  H54   S    
C87   C89   A    
C6    H88   S    
Cu4   O19   S    
C37   C106  S    
C31   H16   S    
C105  H45   S    
Cu5   O3    S    
C86   H38   S    
C30   C32   A    
C67   N4    S    
C11   C13   A    
H25   N10   S    
C10   H103  S    
C90   C91   A    
C105  H46   S    
C9    H98   S    
C56   O19   A    
Cu1   O13   S    
Cu4   O21   S    
C62   C71   S    
C20   C56   S    
C23   C25   A    
C104  H42   S    
C57   O20   A    
C94   C95   A    
C10   H102  S    
Cu5   O6    S    
C69   C70   A    
C81   C88   A    
C51   H2    S    
C79   C80   A    
C72   C96   S    
H78   N5    S    
Cu2   O14   S    
C66   N2    S    
C65   C66   A    
C55   O12   A    
C13   C16   A    
C18   C19   A    
C73   C77   A    
H47   N13   S    
C12   C96   S    
C24   O14   A    
C48   C99   S    
C4    H69   S    
C89   C90   A    
C13   C14   A    
C59   O24   A    
C100  H23   S    
C60   H82   S    
C5    H81   S    
C20   C31   S    
C107  H57   S    
