data_mof_unit_19807.cif
_audit_creation_date              2012-10-26T17:11:21-0400
_audit_creation_method            fapswitch 2.2
_symmetry_space_group_name_H-M    P1
_symmetry_Int_Tables_number       1
_space_group_crystal_system       triclinic
_cell_length_a                    27.967702
_cell_length_b                    18.730736
_cell_length_c                    16.838624
_cell_angle_alpha                 89.976415
_cell_angle_beta                  62.528607
_cell_angle_gamma                 89.863737
_cell_volume                      7826.3380241

loop_
_atom_site_label
_atom_site_type_symbol
_atom_type_description
_atom_site_fract_x
_atom_site_fract_y
_atom_site_fract_z
_atom_type_partial_charge
C1    C     C_R   0.295156 0.728599 0.329504 0.555886
C2    C     C_R   0.585933 0.000544 0.550699 0.029837
C3    C     C_R   0.690629 0.713176 0.904137 0.046138
C4    C     C_R   0.926527 0.903027 0.066540 0.549220
C5    C     C_R   0.073466 0.096953 0.933452 0.550182
C6    C     C_R   0.073444 0.902980 0.933491 0.550241
C7    C     C_R   0.925710 0.095762 0.067593 0.551682
C8    C     C_R   0.426398 0.403229 0.066657 0.542541
C9    C     C_R   0.573635 0.596696 0.933325 0.553932
C10   C     C_R   0.572603 0.401781 0.934283 0.553813
C11   C     C_R   0.426502 0.596939 0.066555 0.550249
C12   C     C_R   0.070445 0.628801 0.431158 0.019837
C13   C     C_R   0.917822 0.499882 0.433460 0.033228
C14   C     C_R   0.973694 0.370847 0.418556 0.027009
C15   C     C_R   0.973559 0.628922 0.417584 0.020158
C16   C     C_R   0.070861 0.371239 0.431164 0.019800
C17   C     C_R   0.541317 0.129254 0.527643 0.015509
C18   C     C_R   0.429178 0.875956 0.564205 0.019323
C19   C     C_R   0.457636 0.126292 0.480171 0.015719
C20   C     C_R   0.526067 0.874105 0.578286 0.022144
C21   C     C_R   0.050131 0.692635 0.414419 -0.093203
C22   C     C_R   0.002333 0.307050 0.409044 -0.077099
C23   C     C_R   0.002025 0.692715 0.407878 -0.098984
C24   C     C_R   0.112061 0.500084 0.461817 0.030402
C25   C     C_R   0.050629 0.307281 0.414952 -0.087803
C26   C     C_R   0.523394 0.192822 0.505887 -0.109972
C27   C     C_R   0.445146 0.814155 0.593319 -0.088500
C28   C     C_R   0.483372 0.190869 0.478434 -0.112266
C29   C     C_R   0.493640 0.812871 0.598840 -0.082317
C30   C     C_R   0.995198 0.564502 0.429280 0.040229
C31   C     C_R   0.043831 0.435485 0.436625 0.040174
C32   C     C_R   0.043669 0.564515 0.436474 0.040356
C33   C     C_R   0.995289 0.435369 0.429673 0.039466
C34   C     C_R   0.473190 0.063427 0.507570 0.033826
C35   C     C_R   0.575776 0.873278 0.580486 -0.100755
C36   C     C_R   0.508460 0.937142 0.554538 0.036228
C37   C     C_R   0.517516 0.064263 0.525685 0.034367
C38   C     C_R   0.460930 0.937501 0.544536 0.036484
C39   C     C_R   0.444560 0.000003 0.517044 0.006221
C40   C     C_R   0.537181 0.000557 0.544133 0.006759
C41   C     C_R   0.969287 0.499914 0.431038 0.009292
C42   C     C_R   0.066407 0.500038 0.445535 0.009180
C43   C     C_R   0.368508 0.936490 0.516039 0.001622
C44   C     C_R   0.611367 0.066219 0.548691 0.002120
C45   C     C_R   0.608747 0.935101 0.559051 0.002898
C46   C     C_R   0.415893 0.124226 0.456859 -0.104361
C47   C     C_R   0.382619 0.063376 0.474790 0.004143
C48   C     C_R   0.892364 0.434099 0.434825 0.004833
C49   C     C_R   0.135233 0.565725 0.468265 0.002100
C50   C     C_R   0.135474 0.434456 0.467977 0.002490
C51   C     C_R   0.892366 0.565656 0.434286 0.005325
C52   C     C_R   0.325754 0.935546 0.491809 -0.018959
C53   C     C_R   0.664024 0.065689 0.542861 -0.020492
C54   C     C_R   0.663013 0.934671 0.546722 -0.021600
C55   C     C_R   0.333031 0.064317 0.469535 -0.021264
C56   C     C_R   0.837113 0.434373 0.452149 -0.017822
C57   C     C_R   0.381952 0.877131 0.554841 -0.106049
C58   C     C_R   0.176419 0.565189 0.497130 -0.019250
C59   C     C_R   0.176504 0.434889 0.497039 -0.018612
C60   C     C_R   0.837117 0.565532 0.451914 -0.017370
C61   C     C_R   0.307672 0.999660 0.472410 -0.155259
C62   C     C_R   0.688716 0.000060 0.541172 -0.155997
C63   C     C_R   0.811096 0.500010 0.459947 -0.149083
C64   C     C_R   0.195123 0.499995 0.512145 -0.157340
C65   C     C_R   0.583014 0.129805 0.550638 -0.104149
C66   C     C_R   0.117674 0.371659 0.441749 -0.108010
C67   C     C_R   0.923794 0.628745 0.416292 -0.104212
C68   C     C_R   0.923846 0.370914 0.417514 -0.096950
C69   C     C_R   0.706297 0.274726 0.669383 0.559343
C70   C     C_R   0.117079 0.628547 0.442389 -0.110144
C71   C     C_R   0.219237 0.763756 0.954657 -0.042195
C72   C     C_R   0.798886 0.262871 0.026754 -0.006256
C73   C     C_R   0.780723 0.764056 0.045462 -0.041705
C74   C     C_R   0.219063 0.235877 0.954991 -0.039853
C75   C     C_R   0.735227 0.297550 0.940191 -0.018385
C76   C     C_R   0.280115 0.735092 0.045898 -0.038502
C77   C     C_R   0.279666 0.266040 0.046256 -0.042429
C78   C     C_R   0.720763 0.732628 0.953585 -0.038141
C79   C     C_R   0.272536 0.787978 0.920575 -0.143721
C80   C     C_R   0.705068 0.728168 0.670367 0.555534
C81   C     C_R   0.762187 0.320589 0.056410 -0.107541
C82   C     C_R   0.728868 0.792572 0.074593 -0.139323
C83   C     C_R   0.272039 0.210397 0.922418 -0.140586
C84   C     C_R   0.774322 0.243084 0.908363 -0.118548
C85   C     C_R   0.226819 0.710871 0.080008 -0.142268
C86   C     C_R   0.226653 0.291411 0.078965 -0.144024
C87   C     C_R   0.772557 0.703924 0.924579 -0.126738
C88   C     C_R   0.303166 0.774689 0.965415 0.275265
C89   C     C_R   0.734088 0.342272 0.009435 0.264389
C90   C     C_R   0.698731 0.777830 0.029267 0.277412
C91   C     C_R   0.295034 0.271630 0.329591 0.546910
C92   C     C_R   0.302479 0.224294 0.967431 0.275410
C93   C     C_R   0.811638 0.235055 0.940768 0.246346
C94   C     C_R   0.196173 0.724116 0.035165 0.274039
C95   C     C_R   0.196141 0.277289 0.034117 0.274449
C96   C     C_R   0.802668 0.718561 0.970026 0.279448
C97   C     C_R   0.143821 0.827931 0.944836 -0.049384
C98   C     C_R   0.857368 0.173897 0.056545 -0.057000
C99   C     C_R   0.856047 0.828255 0.055206 -0.055539
C100  C     C_R   0.143821 0.171734 0.944889 -0.052568
C101  C     C_R   0.647381 0.334393 0.941719 -0.051282
C102  C     C_R   0.796115 0.230512 0.328965 0.553847
C103  C     C_R   0.355687 0.671230 0.055574 -0.052574
C104  C     C_R   0.355225 0.329739 0.055917 -0.051766
C105  C     C_R   0.645141 0.669436 0.943883 -0.055881
C106  C     C_R   0.117429 0.850994 0.895712 -0.011971
C107  C     C_R   0.882425 0.148671 0.106049 -0.018907
C108  C     C_R   0.882432 0.851269 0.104370 -0.011456
C109  C     C_R   0.117499 0.148753 0.895655 -0.013628
C110  C     C_R   0.617823 0.351621 0.895629 -0.011640
C111  C     C_R   0.382367 0.648689 0.104442 -0.014105
C112  C     C_R   0.382060 0.351886 0.104678 -0.013602
C113  C     C_R   0.204812 0.771345 0.670517 0.556692
C114  C     C_R   0.618126 0.647749 0.895239 -0.013404
C115  C     C_R   0.136046 0.828721 0.807447 -0.129827
C116  C     C_R   0.864494 0.171734 0.193479 -0.130621
C117  C     C_R   0.863730 0.829074 0.192704 -0.131696
C118  C     C_R   0.136200 0.170996 0.807343 -0.131871
C119  C     C_R   0.635950 0.328493 0.807945 -0.134550
C120  C     C_R   0.363893 0.671218 0.192573 -0.129561
C121  C     C_R   0.363599 0.329259 0.192781 -0.133638
C122  C     C_R   0.636531 0.670546 0.807216 -0.128763
C123  C     C_R   0.181895 0.786106 0.766490 -0.010026
C124  C     C_R   0.204893 0.228498 0.670470 0.565738
C125  C     C_R   0.821303 0.218906 0.231699 -0.012095
C126  C     C_R   0.817851 0.786691 0.233679 -0.010657
C127  C     C_R   0.182008 0.213511 0.766469 -0.010707
C128  C     C_R   0.686075 0.295848 0.762859 -0.014082
C129  C     C_R   0.317933 0.713618 0.233624 -0.010844
C130  C     C_R   0.317619 0.287085 0.233832 -0.009857
C131  C     C_R   0.682692 0.712367 0.766040 -0.008975
C132  C     C_R   0.207990 0.762573 0.815955 -0.098888
C133  C     C_R   0.800919 0.251015 0.177503 -0.112168
C134  C     C_R   0.791632 0.763632 0.184314 -0.086812
C135  C     C_R   0.795064 0.771581 0.329576 0.555501
C136  C     C_R   0.208046 0.236795 0.816052 -0.086641
C137  C     C_R   0.719228 0.289780 0.804542 -0.101565
C138  C     C_R   0.291573 0.736684 0.184384 -0.091649
C139  C     C_R   0.291089 0.264609 0.184729 -0.096809
C140  C     C_R   0.709570 0.734130 0.814913 -0.081222
C141  C     C_R   0.200945 0.631171 0.511733 0.558488
C142  C     C_R   0.803716 0.368203 0.471350 0.548909
C143  C     C_R   0.803726 0.631822 0.471276 0.551799
C144  C     C_R   0.200936 0.368805 0.511778 0.558957
C145  C     C_R   0.696785 0.131676 0.526826 0.553998
C146  C     C_R   0.398690 0.999795 0.501993 0.030067
C147  C     C_R   0.299342 0.868901 0.486366 0.557394
C148  C     C_R   0.302997 0.131407 0.474546 0.552241
C149  C     C_R   0.696151 0.868166 0.529003 0.549187
C150  C     C_R   0.188823 0.783026 0.905483 0.036964
C151  C     C_R   0.820646 0.231029 0.086475 0.021960
C152  C     C_R   0.810842 0.783936 0.094823 0.034933
C153  C     C_R   0.188835 0.216392 0.905593 0.045276
C154  C     C_R   0.700145 0.307813 0.895315 0.035082
C155  C     C_R   0.310592 0.715964 0.094996 0.045905
C156  C     C_R   0.310015 0.285431 0.095451 0.037142
Cu1   Cu    Cu3+1 0.209920 0.785290 0.495070 0.940967
Cu2   Cu    Cu3+1 0.504760 0.500000 0.075850 1.021310
Cu3   Cu    Cu3+1 0.995240 1.000000 0.924150 1.019210
Cu4   Cu    Cu3+1 0.004760 1.000000 0.075850 0.981504
Cu5   Cu    Cu3+1 0.790080 0.214710 0.504930 0.962915
Cu6   Cu    Cu3+1 0.790080 0.785290 0.504930 0.948057
Cu7   Cu    Cu3+1 0.209920 0.214710 0.495070 0.944921
Cu8   Cu    Cu3+1 0.709920 0.285290 0.495070 0.943226
Cu9   Cu    Cu3+1 0.290080 0.714710 0.504930 0.948428
Cu10  Cu    Cu3+1 0.290080 0.285290 0.504930 0.945733
Cu11  Cu    Cu3+1 0.709920 0.714710 0.495070 0.958016
Cu12  Cu    Cu3+1 0.495240 0.500000 0.924150 0.983768
H1    H     H_    0.505825 0.763955 0.618879 0.126373
H2    H     H_    0.729751 0.999839 0.531667 0.162315
H3    H     H_    0.768912 0.500098 0.475712 0.162833
H4    H     H_    0.225536 0.499931 0.535038 0.161762
H5    H     H_    0.586982 0.824639 0.602101 0.147714
H6    H     H_    0.411001 0.170578 0.423318 0.148367
H7    H     H_    0.355654 0.831809 0.581347 0.145943
H8    H     H_    0.591015 0.180850 0.570886 0.154514
H9    H     H_    0.139833 0.322345 0.425827 0.151114
H10   H     H_    0.911263 0.678334 0.399192 0.147668
H11   H     H_    0.911369 0.321153 0.400990 0.150527
H12   H     H_    0.471273 0.240117 0.458913 0.113855
H13   H     H_    0.138813 0.678027 0.427233 0.151310
H14   H     H_    0.289967 0.818620 0.859079 0.158653
H15   H     H_    0.757330 0.352231 0.113193 0.158466
H16   H     H_    0.712233 0.827371 0.132551 0.164150
H17   H     H_    0.289318 0.178317 0.862040 0.164196
H18   H     H_    0.780075 0.210492 0.851717 0.149688
H19   H     H_    0.209405 0.680282 0.141545 0.158988
H20   H     H_    0.209339 0.323381 0.139445 0.159920
H21   H     H_    0.789124 0.669046 0.866699 0.171887
H22   H     H_    0.130794 0.846810 0.012498 0.178985
H23   H     H_    0.420860 0.766209 0.609527 0.116761
H24   H     H_    0.866233 0.146711 0.995621 0.205087
H25   H     H_    0.869301 0.846576 0.987259 0.176342
H26   H     H_    0.130680 0.153058 0.012656 0.169011
H27   H     H_    0.630355 0.345429 0.012354 0.187541
H28   H     H_    0.368614 0.652140 0.988021 0.170025
H29   H     H_    0.368166 0.348713 0.988333 0.177619
H30   H     H_    0.632031 0.650716 0.011644 0.171471
H31   H     H_    0.116244 0.847365 0.769120 0.159802
H32   H     H_    0.882015 0.149436 0.233555 0.159715
H33   H     H_    0.883562 0.847489 0.231007 0.156249
H34   H     H_    0.541840 0.243486 0.506542 0.113926
H35   H     H_    0.116445 0.152477 0.768964 0.159506
H36   H     H_    0.612093 0.338706 0.773503 0.155068
H37   H     H_    0.383909 0.652957 0.230724 0.162382
H38   H     H_    0.383724 0.347140 0.230847 0.156423
H39   H     H_    0.616172 0.653126 0.769331 0.158679
H40   H     H_    0.244008 0.729908 0.784614 0.137703
H41   H     H_    0.768138 0.288542 0.208526 0.129405
H42   H     H_    0.755598 0.731226 0.215595 0.150015
H43   H     H_    0.244001 0.269351 0.784837 0.143618
H44   H     H_    0.760441 0.272617 0.764645 0.149445
H45   H     H_    0.071442 0.257160 0.409036 0.113597
H46   H     H_    0.255496 0.769233 0.215779 0.138699
H47   H     H_    0.255022 0.232269 0.216087 0.137918
H48   H     H_    0.745785 0.766181 0.783531 0.143852
H49   H     H_    0.050331 0.727129 0.169892 0.371340
H50   H     H_    0.958834 0.225431 0.844219 0.372511
H51   H     H_    0.949136 0.713187 0.860383 0.377916
H52   H     H_    0.078524 0.351305 0.022902 0.381973
H53   H     H_    0.680903 0.508674 0.965534 0.363048
H54   H     H_    0.422064 0.847629 0.972745 0.377737
H55   H     H_    0.449003 0.225305 0.845856 0.370762
H56   H     H_    0.986528 0.742889 0.397135 0.113662
H57   H     H_    0.586537 0.857139 0.006207 0.375932
H58   H     H_    0.986874 0.256783 0.398801 0.121539
H59   H     H_    0.070753 0.742778 0.408480 0.114230
H60   H     H_    0.272261 0.999535 0.461894 0.162339
O1    O     O_R   0.255040 0.869590 0.478480 -0.505541
O2    O     O_R   0.817950 0.203450 0.375560 -0.516890
O3    O     O_R   0.817950 0.796550 0.375560 -0.517973
O4    O     O_R   0.182050 0.203450 0.624440 -0.503562
O5    O     O_R   0.682050 0.296550 0.624440 -0.514581
O6    O     O_R   0.317950 0.703450 0.375560 -0.505986
O7    O     O_R   0.317950 0.296550 0.375560 -0.517743
O8    O     O_R   0.682050 0.703450 0.624440 -0.515710
O9    O     O_R   0.250530 0.763330 0.367210 -0.520646
O10   O     O_R   0.749470 0.236670 0.632790 -0.501886
O11   O     O_R   0.749470 0.763330 0.632790 -0.505052
O12   O     O_R   0.744960 0.130410 0.521520 -0.503000
O13   O     O_R   0.250530 0.236670 0.367210 -0.522434
O14   O     O_R   0.750530 0.263330 0.367210 -0.505092
O15   O     O_R   0.249470 0.736670 0.632790 -0.519640
O16   O     O_R   0.249470 0.263330 0.632790 -0.503390
O17   O     O_R   0.750530 0.736670 0.367210 -0.503136
O18   O     O_R   0.177260 0.690030 0.513710 -0.520216
O19   O     O_R   0.822740 0.309970 0.486290 -0.518079
O20   O     O_R   0.822740 0.690030 0.486290 -0.519269
O21   O     O_R   0.177260 0.309970 0.513710 -0.518729
O22   O     O_R   0.677260 0.190030 0.513710 -0.525215
O23   O     O_R   0.744960 0.869590 0.521520 -0.504293
O24   O     O_R   0.322740 0.809970 0.486290 -0.515987
O25   O     O_R   0.322740 0.190030 0.486290 -0.520677
O26   O     O_R   0.677260 0.809970 0.513710 -0.517373
O27   O     O_R   0.051640 0.926880 0.885090 -0.511401
O28   O     O_R   0.948360 0.073120 0.114910 -0.512657
O29   O     O_R   0.948360 0.926880 0.114910 -0.514177
O30   O     O_R   0.051640 0.073120 0.885090 -0.511232
O31   O     O_R   0.551640 0.426880 0.885090 -0.513055
O32   O     O_R   0.448360 0.573120 0.114910 -0.509294
O33   O     O_R   0.448360 0.426880 0.114910 -0.517178
O34   O     O_R   0.255040 0.130410 0.478480 -0.503516
O35   O     O_R   0.551640 0.573120 0.885090 -0.509044
O36   O     O_R   0.940620 0.926560 0.986760 -0.503516
O37   O     O_R   0.059380 0.073440 0.013240 -0.506523
O38   O     O_R   0.059380 0.926560 0.013240 -0.507333
O39   O     O_R   0.940620 0.073440 0.986760 -0.490637
O40   O     O_R   0.440620 0.426560 0.986760 -0.509605
O41   O     O_R   0.559380 0.573440 0.013240 -0.498505
O42   O     O_R   0.559380 0.426560 0.013240 -0.489920
O43   O     O_R   0.440620 0.573440 0.986760 -0.507332
O44   O     O_2   0.117380 0.665241 0.007129 -0.241564
O45   O     O_R   0.755040 0.369590 0.478480 -0.505137
O46   O     O_2   0.125497 0.625066 0.138905 -0.258852
O47   O     O_3   0.085835 0.751192 0.143389 -0.551101
O48   O     O_2   0.885167 0.137833 0.839078 -0.312285
O49   O     O_2   0.888011 0.254318 0.772030 -0.248640
O50   O     O_3   0.924065 0.246198 0.888380 -0.505149
O51   O     O_2   0.873949 0.653088 0.011161 -0.245671
O52   O     O_2   0.871556 0.614329 0.874039 -0.233120
O53   O     O_3   0.914760 0.737086 0.872779 -0.539639
O54   O     O_2   0.090239 0.258481 0.133358 -0.309750
O55   O     O_2   0.125312 0.377677 0.135484 -0.249473
O56   O     O_R   0.244960 0.630410 0.521520 -0.502857
O57   O     O_3   0.117459 0.339540 0.993703 -0.494664
O58   O     O_2   0.649567 0.425559 0.110605 -0.314495
O59   O     O_2   0.739190 0.477005 0.058311 -0.231135
O60   O     O_3   0.702476 0.464400 0.943298 -0.514162
O61   O     O_2   0.408836 0.754265 0.864473 -0.314489
O62   O     O_2   0.373999 0.873756 0.861903 -0.250588
O63   O     O_3   0.383074 0.836432 0.002877 -0.497071
O64   O     O_2   0.378483 0.162437 0.000383 -0.256773
O65   O     O_2   0.372962 0.123597 0.865920 -0.251418
O66   O     O_3   0.413577 0.248372 0.863852 -0.544576
O67   O     O_R   0.244960 0.369590 0.521520 -0.503082
O68   O     O_2   0.591940 0.765085 0.122845 -0.285123
O69   O     O_2   0.629952 0.882456 0.124192 -0.265420
O70   O     O_3   0.625109 0.843739 0.979992 -0.512151
O71   O     O_R   0.755040 0.630410 0.478480 -0.502399
O72   O     O_R   0.182050 0.796550 0.624440 -0.507055
S1    S     S_3+6 0.130181 0.688292 0.080703 0.018031
S2    S     S_3+6 0.878471 0.216808 0.857029 0.003839
S3    S     S_3+6 0.866598 0.677511 0.932413 0.039102
S4    S     S_3+6 0.130430 0.314049 0.077649 0.016886
S5    S     S_3+6 0.705250 0.429201 0.033045 0.011912
S6    S     S_3+6 0.369110 0.810527 0.920193 0.012673
S7    S     S_3+6 0.367855 0.186506 0.924781 0.018455
S8    S     S_3+6 0.634538 0.818235 0.067561 0.016512

loop_
_geom_bond_atom_site_label_1
_geom_bond_atom_site_label_2
_ccdc_geom_bond_type
C100  C153  A    
C138  C155  A    
C5    O37   A    
C134  H42   S    
C31   C42   A    
C132  C150  A    
C133  C151  A    
C74   C83   A    
C102  C125  S    
C14   C33   A    
C19   C46   A    
C3    C105  A    
C16   C31   A    
C9    C114  S    
C1    C129  S    
C52   C61   A    
C77   C156  S    
O65   S7    D    
Cu9   O24   S    
Cu10  O16   S    
C131  C140  A    
C13   C51   A    
C44   C53   A    
C91   O13   A    
Cu3   O36   S    
C113  O15   A    
C97   C150  A    
C46   H6    S    
C96   S3    S    
C124  O16   A    
Cu1   O18   S    
O53   S3    S    
O69   S8    D    
Cu6   O3    S    
O54   S4    D    
C119  C128  A    
C47   C146  A    
C100  C109  A    
C58   C64   A    
C121  H38   S    
Cu12  O40   S    
C109  C118  A    
Cu10  O67   S    
C21   H59   S    
C147  O24   A    
C115  C123  A    
O57   S4    S    
Cu2   Cu12  S    
Cu8   O45   S    
C127  C136  A    
Cu5   O10   S    
C101  C110  A    
O68   S8    D    
C120  C129  A    
Cu8   O22   S    
C105  C114  A    
C70   H13   S    
C36   C40   A    
H50   O50   S    
C72   C151  S    
C6    C106  S    
C28   H12   S    
C124  O4    A    
C124  C127  S    
C113  O72   A    
C103  H28   S    
C50   C59   A    
C35   C45   A    
C15   C30   A    
O49   S2    D    
C16   C25   A    
C119  H36   S    
C82   C90   A    
C92   S7    S    
C99   H25   S    
C76   C155  S    
C79   H14   S    
C106  C115  A    
C25   H45   S    
C18   C38   A    
C136  C153  A    
C147  O1    A    
C58   C141  S    
C12   C21   A    
Cu4   O29   S    
C6    O27   A    
C84   C93   A    
C86   C95   A    
C2    C40   A    
C126  C134  A    
C102  O2    A    
C10   O31   A    
C111  C120  A    
C148  O34   A    
C76   C85   A    
C78   C87   A    
C144  O21   A    
C88   S6    S    
C123  C132  A    
C27   C29   A    
C133  H41   S    
C80   O8    A    
C121  C130  A    
C71   C79   A    
Cu1   O1    S    
Cu5   O12   S    
C99   C108  A    
Cu2   O41   S    
Cu12  O31   S    
C77   C86   A    
C37   C40   A    
C60   C143  S    
C38   C39   A    
C75   C84   A    
C71   C150  S    
C91   O7    A    
C143  O20   A    
C39   C146  A    
C53   C62   A    
C69   O5    A    
C57   H7    S    
C20   C35   A    
C69   C128  S    
C2    C44   A    
C22   C25   A    
C6    O38   A    
C30   C41   A    
C102  O14   A    
Cu9   O56   S    
C44   C65   A    
C2    C45   A    
C24   C50   A    
C66   H9    S    
O62   S6    D    
C137  H44   S    
C34   C39   A    
C35   H5    S    
C93   S2    S    
Cu7   O4    S    
Cu12  O43   S    
Cu1   Cu9   S    
C104  C112  A    
C1    O9    A    
Cu1   O9    S    
C115  H31   S    
H57   O70   S    
C141  O56   A    
Cu6   O23   S    
C4    O36   A    
C15   C67   A    
O63   S6    S    
C51   C67   A    
C7    O39   A    
C19   C28   A    
C142  O45   A    
O64   S7    D    
O58   S5    D    
C116  C125  A    
C73   C152  S    
C7    C107  S    
C118  C127  A    
C122  C131  A    
C117  C126  A    
H49   O47   S    
C9    O41   A    
C32   C42   A    
O52   S3    D    
C11   O43   A    
C122  H39   S    
C67   H10   S    
C110  C119  A    
C45   C54   A    
C132  H40   S    
C22   H58   S    
Cu3   O30   S    
C99   C152  A    
C68   H11   S    
C29   H1    S    
C14   C22   A    
C56   C142  S    
C112  C121  A    
Cu6   O11   S    
C55   C148  S    
C101  C154  A    
Cu2   O32   S    
C55   C61   A    
Cu7   O13   S    
C107  C116  A    
C75   C89   A    
C142  O19   A    
C51   C60   A    
C8    O33   A    
O55   S4    D    
C85   H19   S    
C86   H20   S    
C4    O29   A    
C34   C37   A    
C24   C42   A    
C135  O17   A    
C84   H18   S    
Cu3   O27   S    
Cu8   O14   S    
C13   C41   A    
C143  O71   A    
C78   C90   A    
Cu4   O38   S    
C4    C108  S    
C120  H37   S    
C80   O11   A    
Cu5   O19   S    
C8    C112  S    
C7    O28   A    
C145  O12   A    
Cu10  O7    S    
Cu10  O25   S    
C103  C111  A    
C12   C70   A    
C139  H47   S    
C69   O10   A    
C72   C81   A    
C81   C89   A    
Cu9   O6    S    
C80   C131  S    
C135  O3    A    
C62   H2    S    
C130  C139  A    
C108  C117  A    
C79   C88   A    
C98   C151  A    
Cu11  O8    S    
C61   H60   S    
O51   S3    D    
C11   C111  S    
Cu7   Cu10  S    
C91   C130  S    
O66   S7    S    
C54   C62   A    
O61   S6    D    
C98   C107  A    
C64   H4    S    
C89   S5    S    
C18   C57   A    
C63   H3    S    
Cu3   Cu4   S    
C113  C123  S    
C1    O6    A    
C134  C152  A    
C53   C145  S    
C48   C68   A    
C72   C93   A    
C103  C155  A    
C105  H30   S    
C126  C135  S    
C49   C70   A    
C21   C23   A    
C65   H8    S    
C16   C66   A    
C94   S1    S    
O46   S1    D    
C73   C82   A    
Cu5   Cu8   S    
C46   C47   A    
C138  H46   S    
C17   C65   A    
O44   S1    D    
Cu2   O42   S    
C33   C41   A    
C11   O32   A    
Cu4   O28   S    
C36   C38   A    
C43   C146  A    
C5    C109  S    
Cu7   O34   S    
C137  C154  A    
C10   C110  S    
Cu6   O20   S    
C43   C52   A    
O60   S5    S    
Cu5   O2    S    
C20   C36   A    
C10   O42   A    
C14   C68   A    
C73   C96   A    
C3    C78   S    
O48   S2    D    
C101  H27   S    
O70   S8    S    
C149  O23   A    
C77   C92   A    
C82   H16   S    
C104  H29   S    
C118  H35   S    
C8    O40   A    
C71   C94   A    
C83   C92   A    
C59   C64   A    
C60   C63   A    
C17   C26   A    
C26   H34   S    
C116  H32   S    
C90   S8    S    
C144  O67   A    
Cu3   O39   S    
H55   O66   S    
C129  C138  A    
C95   S4    S    
C31   C33   A    
C76   C88   A    
C87   H21   S    
C15   C23   A    
C148  O25   A    
Cu11  O26   S    
C12   C32   A    
C27   H23   S    
O59   S5    D    
C117  H33   S    
C54   C149  S    
C20   C29   A    
C145  O22   A    
Cu7   O21   S    
C98   H24   S    
C43   C57   A    
C149  O26   A    
Cu11  O17   S    
H54   O63   S    
C49   C58   A    
C74   C153  S    
H52   O57   S    
H53   O60   S    
C128  C137  A    
C136  H43   S    
C85   C94   A    
Cu2   O33   S    
C87   C96   A    
C141  O18   A    
C56   C63   A    
C17   C37   A    
C104  C156  A    
C50   C66   A    
Cu9   O15   S    
C97   H22   S    
O50   S2    S    
C59   C144  S    
H51   O53   S    
C52   C147  S    
C81   H15   S    
C47   C55   A    
C125  C133  A    
C24   C49   A    
C48   C56   A    
Cu11  O71   S    
Cu8   O5    S    
C74   C95   A    
C18   C27   A    
C19   C34   A    
C13   C48   A    
O47   S1    S    
C100  H26   S    
C26   C28   A    
C30   C32   A    
C75   C154  S    
C139  C156  A    
C9    O35   A    
C5    O30   A    
Cu1   O72   S    
Cu12  O35   S    
C140  H48   S    
Cu6   Cu11  S    
C114  C122  A    
Cu4   O37   S    
C23   H56   S    
C83   H17   S    
C3    C140  A    
C97   C106  A    
