data_mof_unit_29251.cif
_audit_creation_date              2013-03-05T16:45:08-0500
_audit_creation_method            fapswitch 2.2
_symmetry_space_group_name_H-M    P1
_symmetry_Int_Tables_number       1
_space_group_crystal_system       triclinic
_cell_length_a                    14.96505
_cell_length_b                    15.254991
_cell_length_c                    9.906615
_cell_angle_alpha                 89.999419
_cell_angle_beta                  88.869996
_cell_angle_gamma                 89.987302
_cell_volume                      2261.15812318

loop_
_atom_site_label
_atom_site_type_symbol
_atom_site_description
_atom_site_fract_x
_atom_site_fract_y
_atom_site_fract_z
_atom_type_partial_charge
O1    O     O_R   0.408400 0.908380 0.614690 -0.604462
O2    O     O_R   0.408400 0.091620 0.614690 -0.609889
O3    O     O_R   0.908400 0.408380 0.614690 -0.608706
O4    O     O_R   0.908400 0.591620 0.614690 -0.608854
O5    O     O_R   0.408370 0.908370 0.385350 -0.603952
O6    O     O_R   0.408370 0.091630 0.385350 -0.560738
O7    O     O_R   0.908370 0.408370 0.385350 -0.596906
O8    O     O_R   0.908370 0.591630 0.385350 -0.564048
C1    C     C_R   0.382274 0.877829 0.500515 0.921152
C2    C     C_R   0.380470 0.120346 0.500862 0.931716
C3    C     C_R   0.883028 0.376974 0.500452 0.911675
C4    C     C_R   0.883193 0.623176 0.501127 0.928181
Zn1   Zn    Zn3+2 0.500010 0.000000 0.653130 1.007310
Zn2   Zn    Zn3+2 0.000010 0.500000 0.653130 1.007084
Zn3   Zn    Zn3+2 0.499980 0.000000 0.346870 1.017574
Zn4   Zn    Zn3+2 0.999980 0.500000 0.346870 1.020235
O9    O     O_R   0.591610 0.091610 0.614650 -0.616009
O10   O     O_R   0.591610 0.908390 0.614650 -0.622536
O11   O     O_R   0.091610 0.591610 0.614650 -0.619309
O12   O     O_R   0.091610 0.408390 0.614650 -0.624898
O13   O     O_R   0.591590 0.091600 0.385310 -0.633284
O14   O     O_R   0.591590 0.908400 0.385310 -0.628968
O15   O     O_R   0.091590 0.591600 0.385310 -0.636389
O16   O     O_R   0.091590 0.408400 0.385310 -0.616690
C5    C     C_R   0.622822 0.117025 0.499066 0.900668
C6    C     C_R   0.622433 0.882658 0.499178 0.897496
C7    C     C_R   0.122097 0.617749 0.499211 0.900914
C8    C     C_R   0.120074 0.380710 0.498749 0.869027
C9    C     C_R   0.238224 0.178518 0.584055 0.082468
C10   C     C_R   0.293040 0.769051 0.622160 0.143070
C11   C     C_R   0.787585 0.727129 0.624983 0.123764
C12   C     C_R   0.798163 0.263677 0.621346 0.128583
C13   C     C_R   0.313802 0.186175 0.500437 -0.078937
C14   C     C_R   0.327199 0.801819 0.500842 -0.051826
C15   C     C_R   0.829766 0.700838 0.504978 -0.058115
C16   C     C_R   0.829951 0.299101 0.500347 -0.069698
C17   C     C_R   0.318774 0.251816 0.401682 -0.078940
C18   C     C_R   0.308874 0.758477 0.379262 -0.119560
C19   C     C_R   0.821450 0.753480 0.389430 -0.094914
C20   C     C_R   0.810717 0.256691 0.378286 -0.117793
H1    H     H_    0.375415 0.256316 0.332195 0.201772
H2    H     H_    0.339879 0.778131 0.284268 0.191489
H3    H     H_    0.862958 0.743027 0.300468 0.216238
H4    H     H_    0.840870 0.277287 0.283234 0.200584
C21   C     C_R   0.754243 0.816436 0.386098 -0.171171
C22   C     C_R   0.745097 0.192474 0.377093 -0.167190
C23   C     C_R   0.252619 0.314899 0.397368 -0.156054
C24   C     C_R   0.243682 0.694060 0.378296 -0.174635
H5    H     H_    0.743115 0.852547 0.293787 0.173113
H6    H     H_    0.725394 0.164954 0.281373 0.170095
H7    H     H_    0.258501 0.368028 0.325089 0.168793
H8    H     H_    0.225443 0.665020 0.282921 0.165959
C25   C     C_R   0.698636 0.827382 0.500291 -0.070979
C26   C     C_R   0.700304 0.170948 0.498254 -0.070727
C27   C     C_R   0.183200 0.312507 0.493782 -0.139708
C28   C     C_R   0.197827 0.673695 0.498951 -0.066708
C29   C     C_R   0.721650 0.788528 0.621227 0.009572
C30   C     C_R   0.733456 0.200527 0.620245 0.007203
C31   C     C_R   0.173067 0.241616 0.580109 0.085476
C32   C     C_R   0.228465 0.705918 0.621101 0.001490
C33   C     C_3   0.666130 0.744648 0.728479 0.152549
C34   C     C_3   0.686864 0.237039 0.743211 0.149662
C35   C     C_3   0.157275 0.240519 0.729115 0.147399
C36   C     C_3   0.179496 0.745251 0.740021 0.148857
C37   C     C_3   0.229961 0.171533 0.734539 -0.529031
C38   C     C_3   0.251242 0.815551 0.740184 -0.513688
C39   C     C_3   0.740488 0.677300 0.735534 -0.511721
C40   C     C_3   0.758262 0.307425 0.742874 -0.507012
H9    H     H_    0.657550 0.785043 0.821402 0.131715
H10   H     H_    0.689148 0.192423 0.831895 0.114786
H11   H     H_    0.174688 0.302908 0.780638 0.135862
H12   H     H_    0.179554 0.702454 0.830938 0.112550
H13   H     H_    0.290416 0.196545 0.785376 0.222754
H14   H     H_    0.294099 0.811987 0.830395 0.207308
H15   H     H_    0.776248 0.683969 0.831975 0.223500
H16   H     H_    0.802984 0.302302 0.830788 0.215926
H17   H     H_    0.205702 0.105896 0.767311 0.245834
H18   H     H_    0.227190 0.882122 0.713068 0.228385
H19   H     H_    0.721560 0.609561 0.705887 0.233741
H20   H     H_    0.732971 0.373961 0.718401 0.229034
C41   C     C_R   0.426032 0.974015 0.072908 0.117160
C42   C     C_R   0.928272 0.468533 0.072911 0.128163
N1    N     N_R   0.499140 0.000000 0.142800 -0.105916
N2    N     N_R   0.999140 0.500000 0.142800 -0.107990
C43   C     C_R   0.575261 0.019009 0.069593 -0.084599
C44   C     C_R   0.073581 0.524548 0.069626 -0.081200
H21   H     H_    0.635774 0.035728 0.121678 0.135902
H22   H     H_    0.132676 0.545636 0.121674 0.136578
C45   C     C_R   0.575164 0.019392 0.925910 -0.061782
C46   C     C_R   0.073455 0.524918 0.925979 -0.058309
H23   H     H_    0.635590 0.036399 0.870302 0.132275
H24   H     H_    0.132459 0.546237 0.870510 0.132770
N3    N     N_R   0.499160 0.000000 0.857150 -0.085704
N4    N     N_R   0.999160 0.500000 0.857150 -0.087670
C47   C     C_R   0.427145 0.970916 0.930553 0.118088
C48   C     C_R   0.929643 0.465486 0.930529 0.153222
C49   C     C_3   0.336270 0.008474 0.922426 -0.560881
C50   C     C_3   0.835998 0.495957 0.922756 -0.567233
C51   C     C_3   0.335427 0.015943 0.074546 0.663414
C52   C     C_3   0.834564 0.503401 0.074658 0.657985
H25   H     H_    0.339448 0.071683 0.869114 0.230631
H26   H     H_    0.286503 0.961990 0.883767 0.205077
H27   H     H_    0.833403 0.558245 0.867682 0.224525
H28   H     H_    0.789587 0.446214 0.886302 0.208373
Cl1   Cl    Cl    0.332133 0.128148 0.124847 -0.564796
Cl2   Cl    Cl    0.252124 0.950197 0.156654 -0.559496
Cl3   Cl    Cl    0.821816 0.614631 0.124878 -0.592074
Cl4   Cl    Cl    0.756053 0.431874 0.155844 -0.556185
N5    N     N_R   0.582275 0.708511 0.678501 0.236633
O17   O     O_R   0.580979 0.660857 0.569474 -0.356157
O18   O     O_R   0.507610 0.725388 0.742721 -0.382788
N6    N     N_R   0.597370 0.271585 0.717293 0.241956
O19   O     O_R   0.583117 0.323324 0.615370 -0.364422
O20   O     O_R   0.530760 0.249567 0.796513 -0.353495
N7    N     N_R   0.068318 0.207396 0.766146 0.245618
O21   O     O_R   0.036375 0.137259 0.709755 -0.348385
O22   O     O_R   0.018702 0.250741 0.852284 -0.385588
N8    N     N_R   0.090801 0.779231 0.707596 0.240821
O23   O     O_R   0.079237 0.829582 0.603191 -0.363758
O24   O     O_R   0.022137 0.757783 0.783090 -0.359285

loop_
_geom_bond_atom_site_label_1
_geom_bond_atom_site_label_2
_geom_bond_distance
_ccdc_geom_bond_type
C30   C34   1.498901 S    
C35   C37   1.515065 S    
C40   H20   1.111629 S    
C27   C31   1.385208 A    
O10   C6    1.286294 A    
C12   C30   1.366271 A    
C33   N5    1.465804 S    
N6    O20   1.300652 A    
C39   H15   1.108930 S    
C37   H13   1.111680 S    
C12   C40   1.490931 S    
O7    C3    1.287027 A    
Zn1   O10   1.988969 S    
C17   H1    1.083555 S    
C12   C16   1.390254 A    
C3    C16   1.429202 S    
N2    C44   1.369336 A    
C18   H2    1.083343 S    
N5    O18   1.300543 A    
C41   C47   1.410820 A    
C44   H22   1.081452 S    
C50   H27   1.096754 S    
C38   H14   1.111555 S    
C9    C13   1.393618 A    
Zn4   N2    2.021931 S    
C36   N8    1.466357 S    
C34   H10   1.112397 S    
O2    Zn1   1.999427 S    
N8    O23   1.302575 A    
C49   C51   1.511106 S    
O6    Zn3   1.989284 S    
Zn3   O14   1.999213 S    
C9    C31   1.371096 A    
N7    O22   1.300591 A    
C10   C32   1.364673 A    
O15   C7    1.288868 A    
C17   C23   1.381762 A    
O11   C7    1.286276 A    
C20   H4    1.082732 S    
C18   C24   1.385034 A    
C49   H26   1.102580 S    
C19   C21   1.391360 A    
C35   N7    1.463948 S    
C21   C25   1.401057 A    
O8    Zn4   1.989284 S    
O4    Zn2   1.999427 S    
C51   Cl1   1.783148 S    
N6    O19   1.302451 A    
C41   N1    1.365132 A    
C8    C27   1.405391 S    
C46   N4    1.369556 A    
C43   H21   1.081614 S    
C19   H3    1.079976 S    
C38   H18   1.112069 S    
C52   Cl4   1.783587 S    
C37   H17   1.111442 S    
C10   C14   1.389790 A    
Zn2   O12   1.988969 S    
C16   C20   1.406208 A    
C42   C48   1.411036 A    
C5    C26   1.421715 S    
C44   C46   1.423108 A    
C43   C45   1.423457 A    
C7    C28   1.418834 S    
C23   H7    1.083917 S    
O12   C8    1.287906 A    
C13   C17   1.400896 A    
C28   C32   1.392179 A    
C48   C50   1.479825 S    
C36   C38   1.517717 S    
O1    Zn1   1.999858 S    
C15   C19   1.405788 A    
O5    C1    1.285971 A    
C33   C39   1.516975 S    
C46   H24   1.080919 S    
C21   H5    1.083257 S    
O8    C4    1.293036 A    
C22   C26   1.402236 A    
O1    C1    1.291105 A    
C4    C15   1.429231 S    
N4    C48   1.363206 A    
C10   C38   1.494151 S    
O3    Zn2   1.999857 S    
C9    C37   1.497273 S    
O7    Zn4   1.989707 S    
N1    C43   1.369417 A    
C35   H11   1.113374 S    
Zn4   O15   1.999643 S    
C42   N2    1.365186 A    
C1    C14   1.422727 S    
C11   C15   1.393897 A    
O4    C4    1.286997 A    
C20   C22   1.387448 A    
O2    C2    1.287178 A    
C6    C25   1.418354 S    
C23   C27   1.397758 A    
C26   C30   1.390681 A    
C33   H9    1.113084 S    
C24   C28   1.401377 A    
C51   Cl2   1.783869 S    
O13   C5    1.288307 A    
C52   Cl3   1.777431 S    
C25   C29   1.386171 A    
C14   C18   1.405766 A    
C42   C52   1.499503 S    
Zn2   O11   1.989389 S    
O16   C8    1.281348 A    
O6    C2    1.287168 A    
Zn3   N1    2.021931 S    
C47   C49   1.479244 S    
C29   C33   1.494232 S    
C34   C40   1.514904 S    
C40   H16   1.111540 S    
C41   C51   1.498865 S    
C22   H6    1.083279 S    
C31   C35   1.490434 S    
Zn1   O9    1.989389 S    
C32   C36   1.500249 S    
O9    C5    1.287864 A    
C11   C29   1.361368 A    
N5    O17   1.302420 A    
N3    C47   1.362496 A    
Zn3   O13   1.999643 S    
C50   H28   1.094892 S    
C2    C13   1.415482 S    
C36   H12   1.112417 S    
C45   N3    1.369644 A    
C50   C52   1.508839 S    
N8    O24   1.300816 A    
O5    Zn3   1.989707 S    
O3    C3    1.292869 A    
C11   C39   1.497931 S    
C24   H8    1.083386 S    
C34   N6    1.466478 S    
Zn4   O16   1.999213 S    
C45   H23   1.081181 S    
O14   C6    1.288478 A    
Zn1   N3    2.020938 S    
Zn2   N4    2.020938 S    
C39   H19   1.112547 S    
C49   H25   1.100004 S    
N7    O21   1.302345 A    
