data_mof_unit_16980.cif
_audit_creation_date              2012-12-10T18:28:24-0500
_audit_creation_method            fapswitch 2.2
_symmetry_space_group_name_H-M    P1
_symmetry_Int_Tables_number       1
_space_group_crystal_system       triclinic
_cell_length_a                    23.569189
_cell_length_b                    20.035272
_cell_length_c                    14.889279
_cell_angle_alpha                 90.296048
_cell_angle_beta                  99.952667
_cell_angle_gamma                 90.036539
_cell_volume                      6925.03218576

loop_
_atom_site_label
_atom_site_type_symbol
_atom_type_description
_atom_site_fract_x
_atom_site_fract_y
_atom_site_fract_z
_atom_type_partial_charge
C1    C     C_R   0.575171 0.088434 0.554526 0.884445
C2    C     C_R   0.424090 0.912544 0.444847 0.890932
C3    C     C_R   0.426030 0.089716 0.446793 0.868393
C4    C     C_R   0.574920 0.912044 0.554524 0.863452
C5    C     C_R   0.075005 0.588480 0.554334 0.884435
C6    C     C_R   0.924045 0.412593 0.444800 0.887293
C7    C     C_R   0.925830 0.589518 0.446525 0.869049
C8    C     C_R   0.074950 0.412183 0.554414 0.866160
C9    C     C_R   0.227886 0.194763 0.642068 0.188771
C10   C     C_R   0.760506 0.796856 0.345433 0.186564
C11   C     C_R   0.781910 0.182659 0.362890 0.188646
C12   C     C_R   0.272563 0.749707 0.680099 0.192760
C13   C     C_R   0.721020 0.688194 0.631714 0.183003
C14   C     C_R   0.263106 0.299931 0.350482 0.185759
C15   C     C_R   0.277670 0.686135 0.357396 0.188589
C16   C     C_R   0.770638 0.254561 0.681708 0.178002
C17   C     C_R   0.627902 0.006154 0.205103 -0.252049
C18   C     C_R   0.371873 0.012305 0.793522 -0.264488
C19   C     C_R   0.128187 0.503739 0.205301 -0.250160
C20   C     C_R   0.872552 0.518081 0.793661 -0.255900
C21   C     C_R   0.606705 0.998707 0.285404 -0.001105
C22   C     C_R   0.393392 0.005688 0.713390 -0.024989
C23   C     C_R   0.106715 0.497648 0.285621 -0.001969
C24   C     C_R   0.893587 0.507998 0.713624 -0.020763
C25   C     C_R   0.510479 0.008921 0.208289 -0.056627
C26   C     C_R   0.489371 0.003376 0.793022 -0.071189
C27   C     C_R   0.010752 0.508899 0.207811 -0.054337
C28   C     C_R   0.989627 0.502933 0.792914 -0.074939
C29   C     C_R   0.528660 0.015264 0.124248 -0.033531
C30   C     C_R   0.470731 0.013312 0.876375 -0.023450
C31   C     C_R   0.029347 0.515307 0.123992 -0.034005
C32   C     C_R   0.971523 0.515808 0.876075 -0.026346
C33   C     C_R   0.589012 0.014138 0.123340 0.128090
C34   C     C_R   0.410373 0.015465 0.876377 0.135530
C35   C     C_R   0.089638 0.512182 0.123276 0.126665
C36   C     C_R   0.911401 0.522375 0.876082 0.131290
C37   C     C_R   0.488907 0.020128 0.041914 0.044360
C38   C     C_R   0.510110 0.019349 0.958760 0.057112
C39   C     C_R   0.989950 0.522313 0.041621 0.044881
C40   C     C_R   0.011117 0.520306 0.958451 0.058068
C41   C     C_R   0.570049 0.024283 0.960289 -0.304926
C42   C     C_R   0.428737 0.024035 0.040036 -0.311990
C43   C     C_R   0.071158 0.522316 0.959993 -0.301931
C44   C     C_R   0.930172 0.530784 0.039767 -0.315235
C45   C     C_R   0.609264 0.021241 0.041065 0.196351
C46   C     C_R   0.389742 0.021789 0.958677 0.218679
C47   C     C_R   0.110178 0.517895 0.040948 0.197473
C48   C     C_R   0.891325 0.532716 0.958228 0.223335
C49   C     C_R   0.616820 0.860382 0.590277 -0.228691
C50   C     C_R   0.386489 0.145779 0.416445 -0.212821
C51   C     C_R   0.381261 0.860287 0.410115 -0.189361
C52   C     C_R   0.620877 0.136978 0.591430 -0.202947
C53   C     C_R   0.117327 0.361297 0.590296 -0.226306
C54   C     C_R   0.885500 0.644680 0.414951 -0.213539
C55   C     C_R   0.881465 0.360029 0.410247 -0.188368
C56   C     C_R   0.119782 0.638059 0.590071 -0.188063
C57   C     C_R   0.645428 0.760207 0.679689 0.216640
C58   C     C_R   0.329299 0.215955 0.299344 0.202194
C59   C     C_R   0.344457 0.768853 0.305592 0.168405
C60   C     C_R   0.689295 0.184510 0.719663 0.167928
C61   C     C_R   0.146789 0.262463 0.681613 0.210521
C62   C     C_R   0.829221 0.714773 0.296417 0.203769
C63   C     C_R   0.846263 0.266754 0.308120 0.168611
C64   C     C_R   0.183935 0.694013 0.715344 0.173651
C65   C     C_R   0.605219 0.811738 0.653997 0.099635
C66   C     C_R   0.370428 0.164819 0.323456 0.110921
C67   C     C_R   0.383864 0.822210 0.330072 0.104149
C68   C     C_R   0.638902 0.146982 0.686576 0.142542
C69   C     C_R   0.105117 0.311630 0.651787 0.100196
C70   C     C_R   0.870907 0.664385 0.321872 0.111901
C71   C     C_R   0.884590 0.321325 0.331009 0.104293
C72   C     C_R   0.136537 0.651265 0.684618 0.105626
C73   C     C_R   0.669532 0.858506 0.559412 0.136458
C74   C     C_R   0.362262 0.180446 0.482914 0.122200
C75   C     C_R   0.338519 0.845191 0.461640 0.115629
C76   C     C_R   0.651787 0.167496 0.530536 0.111541
C77   C     C_R   0.171127 0.361569 0.562772 0.132626
C78   C     C_R   0.858775 0.677568 0.479953 0.121776
C79   C     C_R   0.838442 0.345299 0.461318 0.113520
C80   C     C_R   0.149270 0.669716 0.528228 0.112408
C81   C     C_R   0.697712 0.796733 0.560428 0.000092
C82   C     C_R   0.313217 0.219259 0.456246 -0.015545
C83   C     C_R   0.312141 0.782527 0.451734 -0.019441
C84   C     C_R   0.706368 0.194063 0.563140 -0.010352
C85   C     C_R   0.201271 0.300921 0.566154 0.001353
C86   C     C_R   0.809499 0.715418 0.451121 -0.018183
C87   C     C_R   0.813271 0.281832 0.453669 -0.019996
C88   C     C_R   0.203756 0.696710 0.559719 -0.020357
C89   C     C_R   0.688558 0.748061 0.626059 -0.026959
C90   C     C_R   0.301923 0.245654 0.367140 -0.023294
C91   C     C_R   0.311426 0.745335 0.370051 -0.010291
C92   C     C_R   0.722556 0.210972 0.656999 -0.041044
C93   C     C_R   0.192636 0.252542 0.632463 -0.029559
C94   C     C_R   0.799771 0.742961 0.362709 -0.023642
C95   C     C_R   0.813908 0.243173 0.373505 -0.009692
C96   C     C_R   0.220269 0.713750 0.653464 -0.015241
C97   C     C_R   0.732900 0.781573 0.495232 0.046648
C98   C     C_R   0.275286 0.232342 0.517715 0.068570
C99   C     C_R   0.283953 0.757747 0.520627 0.074742
C100  C     C_R   0.743947 0.207573 0.501656 0.078327
C101  C     C_R   0.237108 0.286104 0.501644 0.045733
C102  C     C_R   0.770245 0.727153 0.510530 0.071427
C103  C     C_R   0.785151 0.257398 0.523065 0.070763
C104  C     C_R   0.241100 0.709914 0.497779 0.077243
C105  C     C_R   0.269757 0.187110 0.587637 -0.234531
C106  C     C_R   0.728624 0.816115 0.411954 -0.214330
C107  C     C_R   0.744863 0.168066 0.423610 -0.245134
C108  C     C_R   0.301501 0.774387 0.613136 -0.232343
C109  C     C_R   0.762923 0.680303 0.577552 -0.240377
C110  C     C_R   0.232082 0.319884 0.417679 -0.216314
C111  C     C_R   0.240458 0.671798 0.418008 -0.240257
C112  C     C_R   0.799858 0.278176 0.614373 -0.209792
H1    H     H_    0.588340 0.030254 0.899662 0.142770
H2    H     H_    0.409935 0.028761 0.100576 0.140034
H3    H     H_    0.089567 0.527394 0.899203 0.141730
H4    H     H_    0.911952 0.538205 0.100439 0.141043
H5    H     H_    0.293624 0.140833 0.593671 0.160822
H6    H     H_    0.697706 0.855779 0.394658 0.198229
H7    H     H_    0.720277 0.122170 0.413795 0.160961
H8    H     H_    0.341114 0.801713 0.634819 0.167213
H9    H     H_    0.785622 0.633214 0.581415 0.159149
H10   H     H_    0.200996 0.359315 0.400114 0.198223
H11   H     H_    0.214702 0.626845 0.406718 0.161742
H12   H     H_    0.836803 0.310028 0.635346 0.166755
H13   H     H_    0.533725 0.998965 0.785699 0.141951
H14   H     H_    0.466400 0.010209 0.217221 0.132038
H15   H     H_    0.033823 0.495581 0.785860 0.143285
H16   H     H_    0.966485 0.509836 0.215860 0.129523
H17   H     H_    0.364478 0.006657 0.648682 0.145851
H18   H     H_    0.636020 0.993420 0.349408 0.145439
H19   H     H_    0.864502 0.508620 0.649057 0.141911
H20   H     H_    0.135867 0.492139 0.349746 0.147294
H21   H     H_    0.674046 0.005446 0.207340 0.220950
H22   H     H_    0.325771 0.015804 0.790073 0.208868
H23   H     H_    0.174313 0.501825 0.207762 0.222418
H24   H     H_    0.826546 0.523167 0.790478 0.211955
N1    N     N_R   0.549130 0.000000 0.284090 -0.097435
N2    N     N_R   0.450870 0.000000 0.715910 -0.103018
N3    N     N_R   0.049130 0.500000 0.284090 -0.097873
N4    N     N_R   0.950870 0.500000 0.715910 -0.104285
O1    O     O_R   0.541320 0.066090 0.608930 -0.581455
O2    O     O_R   0.458680 0.933910 0.391070 -0.571121
O3    O     O_R   0.458680 0.066090 0.391070 -0.616145
O4    O     O_R   0.541320 0.933910 0.608930 -0.602245
O5    O     O_R   0.041320 0.566090 0.608930 -0.574651
O6    O     O_R   0.958680 0.433910 0.391070 -0.571160
O7    O     O_R   0.958680 0.566090 0.391070 -0.616344
O8    O     O_R   0.041320 0.433910 0.608930 -0.598550
O9    O     O_R   0.572880 0.066110 0.470280 -0.629511
O10   O     O_R   0.427120 0.933890 0.529720 -0.622070
O11   O     O_R   0.427120 0.066110 0.529720 -0.619463
O12   O     O_R   0.572880 0.933890 0.470280 -0.610491
O13   O     O_R   0.072880 0.566110 0.470280 -0.632524
O14   O     O_R   0.927120 0.433890 0.529720 -0.624270
O15   O     O_R   0.927120 0.566110 0.529720 -0.616688
O16   O     O_R   0.072880 0.433890 0.470280 -0.612494
Zn1   Zn    Zn3+2 0.478910 0.000000 0.592580 0.919901
Zn2   Zn    Zn3+2 0.521090 0.000000 0.407420 0.930653
Zn3   Zn    Zn3+2 0.978910 0.500000 0.592580 0.923221
Zn4   Zn    Zn3+2 0.021090 0.500000 0.407420 0.929460
I1    I     I_    0.219245 0.108966 0.723453 -0.434643
I2    I     I_    0.750794 0.860889 0.230053 -0.408608
I3    I     I_    0.789432 0.104320 0.267806 -0.381665
I4    I     I_    0.317481 0.765469 0.815981 -0.422274
I5    I     I_    0.706859 0.599982 0.705005 -0.420951
I6    I     I_    0.252754 0.363302 0.234391 -0.408007
I7    I     I_    0.282563 0.609148 0.259249 -0.375277
I8    I     I_    0.801143 0.299722 0.811138 -0.435305
N5    N     N_2   0.391464 0.186732 0.575150 -0.288271
H25   H     H_    0.390997 0.146259 0.617328 0.251005
C113  C     C_3   0.445031 0.223592 0.588181 -0.737831
H26   H     H_    0.479744 0.192721 0.567643 0.228874
H27   H     H_    0.457396 0.237171 0.661276 0.233209
H28   H     H_    0.440036 0.270389 0.547826 0.248284
N6    N     N_2   0.695897 0.918506 0.533527 -0.309727
H29   H     H_    0.670837 0.960812 0.527286 0.234297
C114  C     C_3   0.752614 0.933059 0.584822 -0.760261
H30   H     H_    0.769373 0.979655 0.558776 0.242788
H31   H     H_    0.783436 0.892415 0.577453 0.261788
H32   H     H_    0.750196 0.940196 0.658141 0.232825
N7    N     N_2   0.625823 0.180615 0.438128 -0.288442
H33   H     H_    0.622726 0.141170 0.392927 0.248821
C115  C     C_3   0.576616 0.224824 0.425702 -0.733397
H34   H     H_    0.538532 0.199393 0.444478 0.221939
H35   H     H_    0.566093 0.239699 0.353018 0.233927
H36   H     H_    0.586513 0.270648 0.467887 0.252026
N8    N     N_2   0.316151 0.894735 0.515464 -0.288305
H37   H     H_    0.340608 0.905361 0.577973 0.243937
C116  C     C_3   0.289290 0.951978 0.466692 -0.740082
H38   H     H_    0.267517 0.982478 0.513102 0.240697
H39   H     H_    0.256464 0.935395 0.408043 0.247321
H40   H     H_    0.321953 0.983598 0.441766 0.219383
N9    N     N_2   0.885246 0.682782 0.573706 -0.287254
H41   H     H_    0.883575 0.641768 0.614532 0.249234
C117  C     C_3   0.938170 0.720780 0.592094 -0.741044
H42   H     H_    0.948357 0.732546 0.666023 0.230190
H43   H     H_    0.933392 0.768581 0.553998 0.245656
H44   H     H_    0.974212 0.691622 0.572593 0.232711
N10   N     N_2   0.196258 0.422444 0.537109 -0.312174
H45   H     H_    0.170128 0.463870 0.529861 0.234129
C118  C     C_3   0.252353 0.438898 0.589129 -0.750619
H46   H     H_    0.268054 0.486155 0.563269 0.243293
H47   H     H_    0.284315 0.399411 0.582286 0.261950
H48   H     H_    0.249316 0.445732 0.662272 0.234374
N11   N     N_2   0.121790 0.683781 0.436879 -0.289509
H49   H     H_    0.117587 0.644753 0.390942 0.249800
C119  C     C_3   0.072465 0.727694 0.428036 -0.744030
H50   H     H_    0.035187 0.701699 0.448687 0.222542
H51   H     H_    0.060321 0.743341 0.355870 0.235006
H52   H     H_    0.083075 0.773132 0.470783 0.250538
N12   N     N_2   0.814166 0.396066 0.510871 -0.285997
H53   H     H_    0.838172 0.409979 0.572414 0.245956
C120  C     C_3   0.787000 0.451121 0.457420 -0.731821
H54   H     H_    0.763942 0.482908 0.500681 0.244392
H55   H     H_    0.755226 0.432061 0.398980 0.248512
H56   H     H_    0.819698 0.482273 0.431755 0.213889
N13   N     N_2   0.393533 0.132864 0.252173 -0.307769
H57   H     H_    0.392880 0.081495 0.252371 0.226540
C121  C     C_3   0.445429 0.162945 0.230547 -0.763667
H58   H     H_    0.454385 0.141968 0.165365 0.235590
H59   H     H_    0.482837 0.152885 0.284946 0.263561
H60   H     H_    0.440365 0.217811 0.222595 0.235969
N14   N     N_2   0.552868 0.812188 0.689916 -0.302988
H61   H     H_    0.516170 0.821151 0.642884 0.244164
C122  C     C_3   0.555074 0.847077 0.775945 -0.702619
H62   H     H_    0.575886 0.815568 0.833110 0.235258
H63   H     H_    0.510657 0.858063 0.787275 0.239453
H64   H     H_    0.579412 0.894615 0.776744 0.233846
N15   N     N_2   0.607070 0.118021 0.749677 -0.278269
H65   H     H_    0.631792 0.096511 0.805893 0.224157
C123  C     C_3   0.559277 0.157644 0.770262 -0.740620
H66   H     H_    0.563511 0.165488 0.845009 0.220441
H67   H     H_    0.518165 0.131061 0.746620 0.263358
H68   H     H_    0.556917 0.207239 0.736613 0.232306
N16   N     N_2   0.426541 0.836495 0.275759 -0.272797
H69   H     H_    0.448534 0.795206 0.258559 0.221419
C124  C     C_3   0.408788 0.881066 0.199977 -0.737997
H70   H     H_    0.377524 0.856415 0.146034 0.229307
H71   H     H_    0.446835 0.894454 0.169268 0.241511
H72   H     H_    0.389439 0.927261 0.223103 0.231712
N17   N     N_2   0.895908 0.633719 0.251654 -0.306627
H73   H     H_    0.895409 0.582367 0.250509 0.227124
C125  C     C_3   0.948219 0.664789 0.233281 -0.769316
H74   H     H_    0.958097 0.645650 0.167702 0.236722
H75   H     H_    0.985043 0.653486 0.288106 0.265600
H76   H     H_    0.943175 0.719810 0.227827 0.235057
N18   N     N_2   0.050582 0.308261 0.680840 -0.304645
H77   H     H_    0.015326 0.315535 0.630253 0.236262
C126  C     C_3   0.046780 0.340705 0.766846 -0.698858
H78   H     H_    0.049669 0.302757 0.821392 0.234109
H79   H     H_    0.004519 0.366077 0.762098 0.241236
H80   H     H_    0.081536 0.378379 0.785885 0.228296
N19   N     N_2   0.104905 0.623173 0.748454 -0.283860
H81   H     H_    0.129314 0.598951 0.802625 0.198110
C127  C     C_3   0.058895 0.663994 0.772161 -0.741320
H82   H     H_    0.070563 0.682108 0.843614 0.221333
H83   H     H_    0.019029 0.633800 0.766188 0.256590
H84   H     H_    0.049682 0.707639 0.726199 0.233619
N20   N     N_2   0.926306 0.336715 0.275406 -0.274325
H85   H     H_    0.948714 0.296061 0.257287 0.219167
C128  C     C_3   0.907033 0.381449 0.200340 -0.733163
H86   H     H_    0.874614 0.356963 0.147869 0.233419
H87   H     H_    0.944149 0.394964 0.167390 0.237529
H88   H     H_    0.888423 0.427627 0.224912 0.231845
N21   N     N_2   0.641853 0.720941 0.757935 -0.265735
H89   H     H_    0.600952 0.712643 0.771187 0.261669
C129  C     C_3   0.682905 0.739675 0.838181 -0.747985
H90   H     H_    0.727655 0.735584 0.824539 0.256370
H91   H     H_    0.678428 0.705681 0.895214 0.242864
H92   H     H_    0.675321 0.791761 0.859030 0.228399
N22   N     N_2   0.309940 0.230094 0.205396 -0.267762
H93   H     H_    0.342015 0.233273 0.166581 0.256530
C130  C     C_3   0.262018 0.189279 0.162643 -0.733451
H94   H     H_    0.247263 0.206471 0.091668 0.244407
H95   H     H_    0.225416 0.193694 0.200387 0.251406
H96   H     H_    0.275317 0.136146 0.160761 0.225526
N23   N     N_2   0.335525 0.742389 0.215184 -0.272633
H97   H     H_    0.370898 0.741366 0.183204 0.241848
C131  C     C_3   0.283904 0.766500 0.157070 -0.713983
H98   H     H_    0.245016 0.753702 0.186241 0.253365
H99   H     H_    0.279788 0.742768 0.088672 0.255497
H100  H     H_    0.285564 0.821502 0.149346 0.218600
N24   N     N_2   0.709948 0.185537 0.815435 -0.309622
H101  H     H_    0.752090 0.172365 0.839222 0.247645
C132  C     C_3   0.679795 0.225317 0.873755 -0.699486
H102  H     H_    0.710180 0.259866 0.916144 0.255180
H103  H     H_    0.661386 0.191952 0.920594 0.220514
H104  H     H_    0.644940 0.255444 0.833389 0.254318
N25   N     N_2   0.141191 0.222554 0.758339 -0.266783
H105  H     H_    0.099658 0.209495 0.763975 0.257644
C133  C     C_3   0.174591 0.246437 0.843276 -0.725345
H106  H     H_    0.220900 0.250127 0.837695 0.257743
H107  H     H_    0.170354 0.210927 0.898751 0.244920
H108  H     H_    0.159068 0.296232 0.861337 0.225222
N26   N     N_2   0.811697 0.729723 0.202290 -0.267457
H109  H     H_    0.844781 0.733905 0.165597 0.253461
C134  C     C_3   0.764899 0.688604 0.156403 -0.744770
H110  H     H_    0.751331 0.706537 0.085502 0.242467
H111  H     H_    0.727271 0.691758 0.192063 0.255553
H112  H     H_    0.778937 0.635766 0.154056 0.230796
N27   N     N_2   0.837561 0.239125 0.218314 -0.274413
H113  H     H_    0.872538 0.239517 0.185419 0.238450
C135  C     C_3   0.784758 0.260278 0.160500 -0.714736
H114  H     H_    0.746667 0.246250 0.190980 0.254696
H115  H     H_    0.780857 0.235505 0.092802 0.248186
H116  H     H_    0.784500 0.315181 0.150956 0.223330
N28   N     N_2   0.192868 0.719385 0.806294 -0.273559
H117  H     H_    0.183667 0.687142 0.855478 0.230867
C136  C     C_3   0.170208 0.785843 0.815176 -0.713121
H118  H     H_    0.182885 0.803510 0.886646 0.240378
H119  H     H_    0.122533 0.785738 0.797512 0.226032
H120  H     H_    0.187813 0.821337 0.769867 0.259205
N29   N     N_2   0.669312 0.024458 0.038671 -0.301997
H121  H     H_    0.680290 0.064809 0.002405 0.230355
C137  C     C_3   0.692999 0.962904 0.010064 -0.725123
H122  H     H_    0.740649 0.966984 0.019858 0.262484
H123  H     H_    0.676203 0.952876 0.936775 0.212112
H124  H     H_    0.681591 0.920473 0.051234 0.272448
N30   N     N_2   0.329562 0.025004 0.960585 -0.304385
H125  H     H_    0.319230 0.057044 0.009791 0.231924
C138  C     C_3   0.302354 0.960458 0.963313 -0.755537
H126  H     H_    0.255178 0.967148 0.958629 0.247769
H127  H     H_    0.319519 0.934803 0.028322 0.229671
H128  H     H_    0.309893 0.928783 0.905062 0.270653
N31   N     N_2   0.170288 0.517993 0.038640 -0.298631
H129  H     H_    0.182730 0.557280 0.001891 0.230759
C139  C     C_3   0.191710 0.454904 0.010810 -0.723333
H130  H     H_    0.239456 0.456655 0.020387 0.265409
H131  H     H_    0.174470 0.444789 0.937689 0.210636
H132  H     H_    0.178870 0.413625 0.052626 0.270111
N32   N     N_2   0.831761 0.543542 0.959866 -0.297317
H133  H     H_    0.817814 0.522744 0.015487 0.230027
C140  C     C_3   0.814178 0.612496 0.946970 -0.775754
H134  H     H_    0.766968 0.616363 0.944782 0.257736
H135  H     H_    0.824229 0.631735 0.881632 0.258799
H136  H     H_    0.836500 0.643740 0.004306 0.240347

loop_
_geom_bond_atom_site_label_1
_geom_bond_atom_site_label_2
_ccdc_geom_bond_type
C127  H83   S    
C33   C45   A    
C108  H8    S    
C133  H106  S    
C21   N1    A    
C72   N19   S    
C53   C69   A    
C79   C87   A    
N6    C114  S    
N27   H113  S    
C24   N4    A    
C113  H27   S    
N1    Zn2   S    
C112  H12   S    
N4    Zn3   S    
C6    O6    A    
C10   C94   A    
N22   H93   S    
C29   C33   A    
C122  H64   S    
C62   C70   A    
C134  H111  S    
C37   C42   A    
C14   C90   A    
C40   C43   A    
N14   H61   S    
C56   C72   A    
C119  H52   S    
N9    H41   S    
C46   N30   S    
C117  H44   S    
C136  H119  S    
C35   C47   A    
N10   H45   S    
C10   I2    S    
C106  H6    S    
C82   C98   A    
O2    Zn2   S    
C73   C81   A    
N7    C115  S    
C25   C29   A    
C126  H79   S    
C27   C31   A    
C84   C100  A    
C28   C32   A    
C3    O3    A    
C135  H115  S    
C12   C108  A    
C101  C110  A    
C140  H134  S    
C17   C21   A    
C103  C112  A    
C78   N9    S    
C73   N6    S    
C19   C23   A    
C25   H14   S    
C37   C38   A    
C27   H16   S    
C135  H114  S    
C54   C70   A    
C59   C91   A    
C87   C103  A    
O1    Zn1   S    
C63   C71   A    
C17   H21   S    
C49   C73   A    
N19   C127  S    
C140  H136  S    
C41   H1    S    
N20   C128  S    
C4    O4    A    
C50   C66   A    
C83   C91   A    
C4    C49   S    
C132  H103  S    
N6    H29   S    
C19   C35   A    
C24   H19   S    
C109  H9    S    
C123  H68   S    
C131  H99   S    
C15   C91   A    
C117  H42   S    
C134  H110  S    
C139  H130  S    
C44   H4    S    
C80   C88   A    
C138  H126  S    
C41   C45   A    
C102  C109  A    
N17   C125  S    
C43   C47   A    
C55   C71   A    
C44   C48   A    
C2    O10   A    
N18   C126  S    
N30   C138  S    
O10   Zn1   S    
C130  H96   S    
N26   C134  S    
C99   C108  A    
C30   C38   A    
C126  H78   S    
C32   C36   A    
C133  H107  S    
C66   N13   S    
C50   C74   A    
C128  H86   S    
O5    Zn3   S    
C129  H92   S    
N29   C137  S    
O6    Zn4   S    
C9    C105  A    
N17   H73   S    
N31   C139  S    
C13   C109  A    
C59   C67   A    
C85   C93   A    
C42   H2    S    
C114  H31   S    
C87   C95   A    
C34   C46   A    
C14   I6    S    
O9    Zn2   S    
C28   H15   S    
C138  H128  S    
C77   C85   A    
C124  H70   S    
C118  H47   S    
C15   I7    S    
C116  H38   S    
O7    Zn4   S    
C88   C104  A    
C3    C50   S    
C130  H94   S    
C7    O7    A    
C60   C92   A    
C4    O12   A    
C5    O5    A    
C30   C34   A    
O15   Zn3   S    
O16   Zn4   S    
C64   C96   A    
C38   C41   A    
C115  H36   S    
C39   C40   A    
C139  H131  S    
N13   H57   S    
C27   N3    A    
C88   C96   A    
C25   N1    A    
N32   C140  S    
N16   H69   S    
C125  H76   S    
C11   I3    S    
N25   H105  S    
C60   N24   S    
C51   C67   A    
C20   H24   S    
C9    I1    S    
N21   C129  S    
C45   N29   S    
C26   C30   A    
C2    O2    A    
C10   C106  A    
C76   N7    S    
C86   C102  A    
O3    Zn2   S    
N5    C113  S    
C14   C110  A    
C137  H124  S    
C18   C22   A    
C52   C76   A    
C8    C53   S    
C128  H88   S    
C129  H90   S    
N14   C122  S    
C39   C44   A    
C56   C80   A    
O13   Zn4   S    
N23   C131  S    
C120  H55   S    
O14   Zn3   S    
C121  H60   S    
C48   N32   S    
C130  H95   S    
C36   C48   A    
C11   C95   A    
C124  H72   S    
N24   H101  S    
C119  H51   S    
C84   C92   A    
O4    Zn1   S    
C127  H82   S    
C117  H43   S    
C77   N10   S    
C5    C56   S    
C6    C55   S    
C76   C84   A    
N7    H33   S    
C79   N12   S    
C57   C89   A    
O11   Zn1   S    
C122  H63   S    
C70   N17   S    
C61   C93   A    
C19   H23   S    
C125  H74   S    
C63   C95   A    
C42   C46   A    
C74   N5    S    
C126  H80   S    
C131  H98   S    
C1    O9    A    
C97   C102  A    
C81   C89   A    
C140  H135  S    
C99   C104  A    
C127  H84   S    
C137  H122  S    
C83   C99   A    
C105  H5    S    
C8    O8    A    
C17   C33   A    
C74   C82   A    
C107  H7    S    
C135  H116  S    
N27   C135  S    
C113  H28   S    
O12   Zn2   S    
C111  H11   S    
C119  H50   S    
N5    H25   S    
N26   H109  S    
N11   H49   S    
C58   N22   S    
C100  C103  A    
N28   H117  S    
C26   H13   S    
C53   C77   A    
N32   H133  S    
C132  H102  S    
C12   I4    S    
C55   C79   A    
C13   I5    S    
N12   H53   S    
C120  H54   S    
C62   N26   S    
C123  H67   S    
C58   C90   A    
C6    O14   A    
C97   C106  A    
N3    Zn4   S    
C16   C92   A    
C59   N23   S    
C22   H17   S    
C31   C35   A    
C121  H58   S    
C16   C112  A    
C65   N14   S    
C120  H56   S    
C75   N8    S    
C57   C65   A    
C26   N2    A    
C98   C101  A    
C22   N2    A    
C82   C90   A    
N8    H37   S    
N15   C123  S    
C110  H10   S    
C129  H91   S    
C75   C83   A    
N29   H121  S    
N19   H81   S    
N31   H129  S    
C1    C52   S    
C1    O1    A    
C2    C51   S    
N30   H125  S    
C20   C36   A    
C7    O15   A    
C60   C68   A    
C114  H30   S    
C29   C37   A    
N10   C118  S    
C12   C96   A    
C7    C54   S    
C71   N20   S    
O8    Zn3   S    
C54   C78   A    
C113  H26   S    
N24   C132  S    
C118  H46   S    
C28   N4    A    
C115  H34   S    
C136  H118  S    
C67   N16   S    
N15   H65   S    
C98   C105  A    
C49   C65   A    
C23   N3    A    
C139  H132  S    
C51   C75   A    
C132  H104  S    
C115  H35   S    
C5    O13   A    
C116  H39   S    
C131  H100  S    
C64   N28   S    
C86   C94   A    
C43   H3    S    
C58   C66   A    
C20   C24   A    
C138  H127  S    
C18   H22   S    
N21   H89   S    
C52   C68   A    
C78   C86   A    
C32   C40   A    
C80   N11   S    
C57   N21   S    
N16   C124  S    
C69   N18   S    
C137  H123  S    
C15   C111  A    
C133  H108  S    
C128  H87   S    
C134  H112  S    
C125  H75   S    
N28   C136  S    
C116  H40   S    
C121  H59   S    
C114  H32   S    
N9    C117  S    
C122  H62   S    
C18   C34   A    
N12   C120  S    
C63   N27   S    
C124  H71   S    
C11   C107  A    
C118  H48   S    
N20   H85   S    
C9    C93   A    
C85   C101  A    
C68   N15   S    
C136  H120  S    
C61   C69   A    
N22   C130  S    
C47   N31   S    
C100  C107  A    
C13   C89   A    
C104  C111  A    
N18   H77   S    
N13   C121  S    
C3    O11   A    
C62   C94   A    
N2    Zn1   S    
C81   C97   A    
C16   I8    S    
C61   N25   S    
N25   C133  S    
C31   C39   A    
C23   H20   S    
C64   C72   A    
C8    O16   A    
C21   H18   S    
N8    C116  S    
C123  H66   S    
N23   H97   S    
N11   C119  S    
