data_mof_unit_60178.cif
_audit_creation_date              2012-12-10T19:02:41-0500
_audit_creation_method            fapswitch 2.2
_symmetry_space_group_name_H-M    P1
_symmetry_Int_Tables_number       1
_space_group_crystal_system       monoclinic
_cell_length_a                    19.167949
_cell_length_b                    14.260055
_cell_length_c                    13.365004
_cell_angle_alpha                 89.99999
_cell_angle_beta                  90.0
_cell_angle_gamma                 90.0
_cell_volume                      3653.13682659

loop_
_atom_site_label
_atom_site_type_symbol
_atom_type_description
_atom_site_fract_x
_atom_site_fract_y
_atom_site_fract_z
_atom_type_partial_charge
C1    C     C_1   0.500000 0.500005 0.049525 -0.048147
C2    C     C_R   0.500000 0.673466 0.500000 0.936687
C3    C     C_R   0.363225 0.499655 0.500000 0.887848
C4    C     C_R   0.636775 0.499655 0.500000 0.887848
C5    C     C_1   0.500000 0.225886 0.500000 -0.226505
C6    C     C_1   0.500000 0.774106 0.500000 -0.225410
C7    C     C_1   0.500000 0.141325 0.500000 -0.003021
C8    C     C_1   0.500000 0.858666 0.500000 -0.002056
C9    C     C_1   0.500000 0.042272 0.500000 0.012178
C10   C     C_1   0.500000 0.957717 0.500000 0.012537
C11   C     C_R   0.252631 0.524500 0.590807 -0.193690
C12   C     C_1   0.500000 0.500005 0.950475 -0.048147
C13   C     C_R   0.747369 0.524500 0.409193 -0.193690
C14   C     C_R   0.747369 0.524500 0.590807 -0.193690
C15   C     C_R   0.252631 0.524500 0.409193 -0.193690
C16   C     C_R   0.181911 0.545148 0.590854 -0.155030
C17   C     C_R   0.818089 0.545148 0.409146 -0.155030
C18   C     C_R   0.818089 0.545148 0.590854 -0.155030
C19   C     C_R   0.181911 0.545148 0.409146 -0.155030
C20   C     C_R   0.145967 0.555265 0.500000 0.084167
C21   C     C_R   0.854033 0.555264 0.500000 0.084167
C22   C     C_R   0.288214 0.514088 0.500000 -0.051003
C23   C     C_R   0.711786 0.514088 0.500000 -0.051003
C24   C     C_R   0.929576 0.568804 0.500000 0.289604
C25   C     C_R   0.070424 0.568804 0.500000 0.289604
C26   C     C_1   0.500000 0.500003 0.169412 0.065206
C27   C     C_1   0.500000 0.500003 0.830588 0.065206
C28   C     C_R   0.500000 0.326530 0.500000 0.929788
H1    H     H_    0.279566 0.517501 0.661679 0.155396
H2    H     H_    0.720434 0.517501 0.338321 0.155396
H3    H     H_    0.720434 0.517501 0.661679 0.155396
H4    H     H_    0.279566 0.517501 0.338321 0.155396
H5    H     H_    0.155417 0.552123 0.662023 0.151347
H6    H     H_    0.844583 0.552123 0.337977 0.151347
H7    H     H_    0.844583 0.552123 0.662023 0.151347
H8    H     H_    0.155417 0.552123 0.337977 0.151347
N1    N     N_1   0.500000 0.500000 0.261870 -0.065625
N2    N     N_1   0.500000 0.500000 0.738130 -0.065625
N3    N     N_R   0.034604 0.570430 0.412588 -0.177922
N4    N     N_R   0.965396 0.570430 0.587412 -0.177922
N5    N     N_R   0.965396 0.570429 0.412588 -0.177922
N6    N     N_R   0.034604 0.570430 0.587412 -0.177922
O1    O     O_R   0.500000 0.373710 0.576470 -0.593818
O2    O     O_R   0.500000 0.626290 0.423530 -0.592860
O3    O     O_R   0.500000 0.626290 0.576470 -0.592861
O4    O     O_R   0.500000 0.373710 0.423530 -0.593818
O5    O     O_R   0.398140 0.500000 0.576480 -0.611412
O6    O     O_R   0.601860 0.500000 0.423520 -0.611411
O7    O     O_R   0.601860 0.500000 0.576480 -0.611411
O8    O     O_R   0.398140 0.500000 0.423520 -0.611411
Zn1   Zn    Zn3+2 0.500000 0.500000 0.602090 0.970146
Zn2   Zn    Zn3+2 0.500000 0.500000 0.397910 0.970146

loop_
_geom_bond_atom_site_label_1
_geom_bond_atom_site_label_2
_ccdc_geom_bond_type
C25   N6    A    
C14   C23   A    
O8    Zn2   S    
C26   N1    T    
C16   H5    S    
C5    C28   S    
C9    C10   T    
C14   C18   A    
C11   C22   A    
C19   C20   A    
C13   C17   A    
C4    O7    A    
C16   C20   A    
O1    Zn1   S    
N1    Zn2   S    
O2    Zn2   S    
N4    N6    A    
C15   H4    S    
N3    N5    A    
C25   N3    A    
C11   H1    S    
C15   C19   A    
C24   N5    A    
C28   O4    A    
C17   H6    S    
C2    C6    S    
C1    C12   T    
C28   O1    A    
C3    O5    A    
C24   N4    A    
C3    O8    A    
C5    C7    T    
C19   H8    S    
C15   C22   A    
C2    O3    A    
C4    O6    A    
C1    C26   S    
C17   C21   A    
C11   C16   A    
C20   C25   S    
O3    Zn1   S    
C27   N2    T    
C18   C21   A    
O4    Zn2   S    
C13   H2    S    
O6    Zn2   S    
C13   C23   A    
C7    C9    S    
C18   H7    S    
C21   C24   S    
C4    C23   S    
C14   H3    S    
C3    C22   S    
C6    C8    T    
N2    Zn1   S    
C12   C27   S    
C8    C10   S    
O5    Zn1   S    
C2    O2    A    
O7    Zn1   S    
