data_mof_unit_18657.cif
_audit_creation_date              2012-12-11T15:59:34-0500
_audit_creation_method            fapswitch 2.2
_symmetry_space_group_name_H-M    P1
_symmetry_Int_Tables_number       1
_space_group_crystal_system       triclinic
_cell_length_a                    10.728545
_cell_length_b                    10.724245
_cell_length_c                    16.95576
_cell_angle_alpha                 99.220296
_cell_angle_beta                  99.265291
_cell_angle_gamma                 60.807472
_cell_volume                      1673.27464695

loop_
_atom_site_label
_atom_site_type_symbol
_atom_type_description
_atom_site_fract_x
_atom_site_fract_y
_atom_site_fract_z
_atom_type_partial_charge
C1    C     C_R   0.385680 0.704889 0.387801 0.568336
C2    C     C_R   0.843702 0.223729 0.201332 -0.018710
C3    C     C_R   0.854684 0.204144 0.282932 0.008222
C4    C     C_R   0.938723 0.381485 0.319858 -0.141236
C5    C     C_R   0.958574 0.375269 0.240500 -0.158855
C6    C     C_R   0.768893 0.166277 0.144406 -0.083657
C7    C     C_R   0.728992 0.071933 0.165798 -0.159128
C8    C     C_R   0.762640 0.033423 0.243641 -0.099038
C9    C     C_R   0.830314 0.093366 0.302120 0.288792
C10   C     C_R   0.874788 0.306549 0.340491 0.037684
C11   C     C_R   0.353739 0.787538 0.146111 -0.002719
C12   C     C_R   0.366524 0.343250 0.358781 0.552808
C13   C     C_R   0.486067 0.753992 0.190475 0.022342
C14   C     C_R   0.501775 0.733087 0.272888 0.021759
C15   C     C_R   0.277637 0.719010 0.250271 -0.136920
C16   C     C_R   0.258725 0.752565 0.173010 -0.134126
C17   C     C_R   0.602191 0.740028 0.154140 -0.084751
C18   C     C_R   0.730098 0.715907 0.199456 -0.122550
C19   C     C_R   0.741216 0.712842 0.281765 -0.132263
C20   C     C_R   0.628760 0.723596 0.318493 -0.083450
C21   C     C_R   0.389078 0.723567 0.303901 -0.003842
C22   C     C_R   0.356830 0.352595 0.838700 -0.006046
C23   C     C_R   0.785235 0.370494 0.407564 0.561777
C24   C     C_R   0.497515 0.270844 0.813586 -0.017515
C25   C     C_R   0.517990 0.269184 0.733114 0.003706
C26   C     C_R   0.276562 0.474719 0.718632 -0.142955
C27   C     C_R   0.251213 0.460890 0.793551 -0.131370
C28   C     C_R   0.613629 0.176551 0.864105 -0.067565
C29   C     C_R   0.728523 0.056354 0.831313 0.293353
C30   C     C_R   0.747824 0.049097 0.751500 -0.110868
C31   C     C_R   0.649177 0.158027 0.704514 -0.159252
C32   C     C_R   0.403774 0.373556 0.684695 -0.001242
C33   C     C_1   0.819356 0.341292 0.708672 -0.028588
C34   C     C_R   0.357433 0.770311 0.627063 0.568151
C35   C     C_1   0.845975 0.314021 0.776788 -0.031318
C36   C     C_1   0.338659 0.810826 0.709213 -0.022237
C37   C     C_1   0.313668 0.838053 0.777653 -0.016766
C38   C     C_R   0.945661 0.288019 0.099878 0.525700
C39   C     C_R   0.291494 0.261316 0.122447 0.550958
C40   C     C_R   0.298630 0.880676 0.080627 0.522157
C41   C     C_R   0.886007 0.297824 0.859227 0.548015
C42   C     C_R   0.313596 0.298557 0.898241 0.545711
C43   C     C_R   0.279661 0.884099 0.857570 0.549098
C44   C     C_R   0.413016 0.378636 0.599519 0.553210
C45   C     C_R   0.774419 0.379883 0.629353 0.554638
C46   C     C_1   0.325986 0.317261 0.277057 -0.048872
C47   C     C_1   0.306166 0.292810 0.206421 -0.050491
C48   C     C_R   0.905851 0.302548 0.180329 0.010196
Cr1   Cr    Cr6+3 0.608100 0.610860 0.522250 1.032504
Cr2   Cr    Cr6+3 0.288890 0.599990 0.488420 1.038222
Cr3   Cr    Cr6+3 0.603040 0.289190 0.489390 1.102998
Cr4   Cr    Cr6+3 0.053960 0.052250 0.967380 1.101540
Cr5   Cr    Cr6+3 0.059890 0.373160 0.992710 1.045269
Cr6   Cr    Cr6+3 0.373370 0.061690 0.991710 1.042439
H1    H     H_    0.963593 0.452981 0.364157 0.135536
H2    H     H_    0.819401 0.703829 0.171141 0.129347
H3    H     H_    0.838887 0.699627 0.317518 0.147141
H4    H     H_    0.647636 0.724955 0.382257 0.185722
H5    H     H_    0.190332 0.557604 0.684405 0.162202
H6    H     H_    0.608707 0.187011 0.928253 0.150151
H7    H     H_    0.144895 0.527089 0.813066 0.194479
H8    H     H_    0.839324 0.959101 0.725208 0.157568
H9    H     H_    0.679436 0.145805 0.645650 0.192496
H10   H     H_    0.736363 0.196542 0.083742 0.175497
H11   H     H_    0.009184 0.433421 0.225588 0.128872
H12   H     H_    0.677199 0.023766 0.121095 0.166367
H13   H     H_    0.737351 0.955239 0.258685 0.158411
H14   H     H_    0.198690 0.697617 0.269130 0.183434
H15   H     H_    0.596752 0.742178 0.090073 0.142649
H16   H     H_    0.161998 0.762601 0.136672 0.150307
O1    O     O_R   0.749810 0.499790 0.438040 -0.556723
O2    O     O_R   0.298970 0.468800 0.557390 -0.503896
O3    O     O_R   0.489400 0.255930 0.561910 -0.501320
O4    O     O_R   0.723890 0.306050 0.584610 -0.511826
O5    O     O_3   0.500010 0.500010 0.500020 -0.320800
O6    O     O_R   0.171100 0.914680 0.053100 -0.498911
O7    O     O_R   0.941680 0.184840 0.050710 -0.471961
O8    O     O_R   0.922080 0.403420 0.072610 -0.526229
O9    O     O_R   0.196880 0.369150 0.083850 -0.514204
O10   O     O_R   0.411730 0.181020 0.091530 -0.520857
O11   O     O_R   0.365010 0.944360 0.063320 -0.528892
O12   O     O_R   0.477660 0.726260 0.439290 -0.511238
O13   O     O_R   0.159380 0.906670 0.876210 -0.447403
O14   O     O_R   0.930820 0.177420 0.886730 -0.475746
O15   O     O_R   0.910360 0.395420 0.895720 -0.480917
O16   O     O_R   0.186010 0.361730 0.919870 -0.486526
O17   O     O_R   0.400000 0.173010 0.914630 -0.503096
O18   O     O_R   0.354140 0.936940 0.899340 -0.479924
O19   O     O_3   0.162410 0.162370 0.983930 -0.295037
O20   O     O_R   0.260150 0.743000 0.412270 -0.427620
O21   O     O_R   0.297740 0.466550 0.394720 -0.526686
O22   O     O_R   0.488080 0.253500 0.386430 -0.471782
O23   O     O_R   0.722670 0.303800 0.421940 -0.446407
O24   O     O_R   0.751130 0.502220 0.613520 -0.490897
O25   O     O_R   0.478890 0.728510 0.601960 -0.480519
O26   O     O_R   0.261470 0.745430 0.587750 -0.506110
S1    S     S_3+6 0.831914 0.906472 0.886628 0.009654
O27   O     O_2   0.743031 0.834245 0.889509 -0.297828
O28   O     O_2   0.965197 0.802041 0.847081 -0.306493
O29   O     O_3   0.875870 0.958810 0.980824 -0.527671
H17   H     H_    0.918803 0.871833 0.009947 0.342809
S2    S     S_3+6 0.908238 0.003014 0.390363 0.013897
O30   O     O_2   0.016984 0.044150 0.436159 -0.259305
O31   O     O_2   0.793655 0.036122 0.442978 -0.287961
O32   O     O_3   0.987640 0.825911 0.362760 -0.572187
H18   H     H_    0.995531 0.780762 0.411222 0.357178

loop_
_geom_bond_atom_site_label_1
_geom_bond_atom_site_label_2
_ccdc_geom_bond_type
C25   C31   A    
C1    C21   S    
C1    O20   A    
C33   C45   S    
C12   O21   A    
C19   C20   A    
Cr3   O4    S    
S1    O27   D    
C7    C8    A    
C22   C42   S    
C19   H3    S    
C26   C32   A    
C26   C27   A    
C43   O18   A    
C14   C21   A    
C36   C37   T    
Cr5   O9    S    
Cr3   O5    S    
Cr6   O17   S    
C15   C16   A    
C43   O13   A    
S2    O32   S    
C18   C19   A    
C6    H10   S    
Cr4   O14   S    
Cr2   O2    S    
C27   H7    S    
Cr3   O3    S    
Cr2   O20   S    
C8    C9    A    
Cr1   O5    S    
Cr5   O16   S    
C42   O16   A    
Cr1   O24   S    
C26   H5    S    
C38   C48   S    
C18   H2    S    
C25   C32   A    
C13   C14   A    
Cr4   O19   S    
C2    C6    A    
C45   O24   A    
S1    O28   D    
Cr6   O10   S    
C28   H6    S    
C5    C48   A    
S2    O30   D    
C14   C20   A    
C16   H16   S    
C34   O25   A    
Cr6   O19   S    
C12   C46   S    
C9    S2    S    
C38   O8    A    
C2    C48   A    
C1    O12   A    
C41   O14   A    
Cr1   O25   S    
C23   O23   A    
C45   O4    A    
C39   O9    A    
Cr1   O12   S    
C37   C43   S    
Cr4   O13   S    
C29   C30   A    
C3    C9    A    
C23   O1    A    
Cr3   O22   S    
C11   C16   A    
C17   C18   A    
C32   C44   S    
C24   C25   A    
S2    O31   D    
Cr3   O23   S    
C5    H11   S    
C22   C27   A    
C30   H8    S    
C4    H1    S    
Cr5   O19   S    
C22   C24   A    
C4    C10   A    
Cr4   O7    S    
S1    O29   S    
C39   C47   S    
C44   O3    A    
C46   C47   T    
C28   C29   A    
C40   O11   A    
C12   O22   A    
C24   C28   A    
C34   O26   A    
C4    C5    A    
Cr4   O6    S    
C6    C7    A    
C38   O7    A    
C13   C17   A    
C10   C23   S    
C31   H9    S    
C41   O15   A    
O32   H18   S    
C29   S1    S    
C39   O10   A    
C2    C3    A    
C3    C10   A    
Cr2   O5    S    
C7    H12   S    
Cr6   O18   S    
C11   C13   A    
Cr2   O26   S    
C30   C31   A    
C15   H14   S    
O29   H17   S    
C33   C35   T    
C44   O2    A    
C34   C36   S    
C11   C40   S    
C35   C41   S    
Cr5   O8    S    
C40   O6    A    
Cr2   O21   S    
C15   C21   A    
C8    H13   S    
Cr1   O1    S    
Cr5   O15   S    
C42   O17   A    
C17   H15   S    
C20   H4    S    
Cr6   O11   S    
