data_mof_unit_24285.cif
_audit_creation_date              2012-12-10T17:31:20-0500
_audit_creation_method            fapswitch 2.2
_symmetry_space_group_name_H-M    P1
_symmetry_Int_Tables_number       1
_space_group_crystal_system       triclinic
_cell_length_a                    19.397851
_cell_length_b                    18.501859
_cell_length_c                    12.311472
_cell_angle_alpha                 89.998353
_cell_angle_beta                  128.477094
_cell_angle_gamma                 90.003779
_cell_volume                      3459.08622061

loop_
_atom_site_label
_atom_site_type_symbol
_atom_type_description
_atom_site_fract_x
_atom_site_fract_y
_atom_site_fract_z
_atom_type_partial_charge
C1    C     C_R   0.608879 0.896436 0.649594 0.822544
C2    C     C_R   0.608883 0.103561 0.649599 0.822537
C3    C     C_R   0.108883 0.396440 0.649598 0.822541
C4    C     C_R   0.108876 0.603569 0.649591 0.822555
C5    C     C_R   0.238922 0.781256 0.032725 0.114153
C6    C     C_R   0.239097 0.218879 0.032923 0.113384
C7    C     C_R   0.739073 0.281113 0.032938 0.113603
C8    C     C_R   0.738960 0.718747 0.032727 0.113821
C9    C     C_R   0.673235 0.264548 0.046213 0.119610
C10   C     C_R   0.673041 0.735197 0.045863 0.119273
C11   C     C_R   0.173024 0.764777 0.045896 0.119169
C12   C     C_R   0.173262 0.235439 0.046204 0.119727
C13   C     C_R   0.601712 0.222573 0.947050 -0.154798
C14   C     C_R   0.601500 0.777135 0.946656 -0.155109
C15   C     C_R   0.101516 0.722785 0.946749 -0.154829
C16   C     C_R   0.101715 0.277375 0.947003 -0.155051
C17   C     C_R   0.594385 0.195640 0.835600 -0.129195
C18   C     C_R   0.594270 0.804219 0.835371 -0.128834
C19   C     C_R   0.094273 0.695723 0.835441 -0.128965
C20   C     C_R   0.094386 0.304318 0.835557 -0.129110
C21   C     C_R   0.311000 0.822691 0.137467 -0.223676
C22   C     C_R   0.311117 0.177375 0.137582 -0.224541
C23   C     C_R   0.811101 0.322614 0.137603 -0.224018
C24   C     C_R   0.811036 0.677319 0.137479 -0.224451
C25   C     C_R   0.246966 0.836784 0.253820 -0.171285
C26   C     C_R   0.247267 0.163546 0.254270 -0.172688
C27   C     C_R   0.747198 0.336513 0.254190 -0.171918
C28   C     C_R   0.747020 0.663258 0.253872 -0.171613
C29   C     C_R   0.664180 0.167506 0.725985 -0.183326
C30   C     C_R   0.664161 0.832477 0.725947 -0.183467
C31   C     C_R   0.164138 0.667542 0.725937 -0.183542
C32   C     C_R   0.164187 0.332503 0.725978 -0.183253
C33   C     C_R   0.680209 0.000143 0.281839 -0.272408
C34   C     C_R   0.180210 0.499959 0.281840 -0.272443
C35   C     C_R   0.346297 0.999787 0.629970 0.049207
C36   C     C_R   0.846296 0.500050 0.629965 0.048247
C37   C     C_R   0.313305 0.999464 0.703582 0.460250
C38   C     C_R   0.813304 0.500135 0.703585 0.460308
C39   C     C_R   0.384986 0.098481 0.342606 0.804960
C40   C     C_R   0.384939 0.901558 0.342546 0.805100
C41   C     C_R   0.884954 0.598452 0.342560 0.804931
C42   C     C_R   0.884973 0.401528 0.342594 0.805170
C43   C     C_R   0.371422 0.999786 0.848693 -0.187353
C44   C     C_R   0.871425 0.500054 0.848692 -0.186790
C45   C     C_R   0.463242 0.999977 0.922111 -0.008567
C46   C     C_R   0.963244 0.500007 0.922112 -0.008617
C47   C     C_R   0.493605 0.000024 0.841782 0.293583
C48   C     C_R   0.993606 0.499995 0.841782 0.293616
C49   C     C_R   0.526003 0.000036 0.071689 -0.002890
C50   C     C_R   0.026004 0.499991 0.071689 -0.002918
C51   C     C_R   0.617189 0.000116 0.136784 0.157380
C52   C     C_R   0.117190 0.499968 0.136785 0.157389
C53   C     C_R   0.645291 0.000136 0.057045 -0.269847
C54   C     C_R   0.145292 0.499963 0.057046 -0.269864
C55   C     C_R   0.585131 0.000077 0.913509 -0.167789
C56   C     C_R   0.085132 0.499980 0.913509 -0.167788
C57   C     C_R   0.502969 0.999980 0.160905 0.025073
C58   C     C_R   0.002970 0.500007 0.160904 0.025100
C59   C     C_R   0.653202 0.000081 0.363125 0.088460
C60   C     C_R   0.153202 0.499976 0.363126 0.088440
C61   C     C_R   0.677820 0.292094 0.156443 -0.141941
C62   C     C_R   0.677581 0.707592 0.156019 -0.142099
C63   C     C_R   0.177549 0.792411 0.156019 -0.141835
C64   C     C_R   0.177874 0.207934 0.156486 -0.142273
C65   C     C_R   0.314272 0.851570 0.245500 -0.063026
C66   C     C_R   0.314425 0.148568 0.245698 -0.062004
C67   C     C_R   0.814391 0.351452 0.245675 -0.062360
C68   C     C_R   0.814308 0.648452 0.245528 -0.062653
C69   C     C_R   0.722765 0.189883 0.702232 -0.236711
C70   C     C_R   0.722742 0.810108 0.702187 -0.237034
C71   C     C_R   0.222700 0.689955 0.702154 -0.237452
C72   C     C_R   0.222777 0.310158 0.702228 -0.236089
C73   C     C_R   0.281781 0.745682 0.778665 0.538060
C74   C     C_R   0.281947 0.254507 0.778824 0.541341
C75   C     C_R   0.781922 0.245548 0.778840 0.540320
C76   C     C_R   0.781849 0.754407 0.778709 0.539396
C77   C     C_R   0.288202 0.776333 0.888153 -0.243376
C78   C     C_R   0.288412 0.223853 0.888356 -0.246463
C79   C     C_R   0.788373 0.276184 0.888367 -0.244562
C80   C     C_R   0.788288 0.723742 0.888208 -0.244062
C81   C     C_R   0.731517 0.254164 0.917624 0.020605
C82   C     C_R   0.731434 0.745747 0.917466 0.020668
C83   C     C_R   0.231385 0.754273 0.917453 0.021060
C84   C     C_R   0.231539 0.245836 0.917605 0.020189
C85   C     C_R   0.662688 0.204869 0.825659 0.059034
C86   C     C_R   0.662622 0.795060 0.825533 0.058842
C87   C     C_R   0.162598 0.704935 0.825544 0.058586
C88   C     C_R   0.162699 0.295120 0.825637 0.059159
Cu1   Cu    Cu3+1 0.526340 0.000000 0.421010 0.959686
Cu2   Cu    Cu3+1 0.026340 0.500000 0.421010 0.959672
Cu3   Cu    Cu3+1 0.473640 0.000000 0.578990 0.945058
Cu4   Cu    Cu3+1 0.973640 0.500000 0.578990 0.944985
H1    H     H_    0.246952 0.860618 0.334043 0.188933
H2    H     H_    0.247351 0.139848 0.334687 0.186593
H3    H     H_    0.747240 0.360265 0.334525 0.187289
H4    H     H_    0.747034 0.639464 0.334154 0.187911
H5    H     H_    0.715010 0.000176 0.106265 0.162764
H6    H     H_    0.215012 0.499950 0.106266 0.162738
H7    H     H_    0.750037 0.000204 0.332062 0.160067
H8    H     H_    0.250038 0.499941 0.332064 0.160044
H9    H     H_    0.435276 0.999929 0.120583 0.128772
H10   H     H_    0.935275 0.500023 0.120578 0.128741
H11   H     H_    0.301637 0.999855 0.517802 0.168471
H12   H     H_    0.801659 0.500027 0.517805 0.169235
H13   H     H_    0.343123 0.999823 0.901258 0.150797
H14   H     H_    0.843111 0.500045 0.901239 0.150382
H15   H     H_    0.614177 0.000040 0.863529 0.211414
H16   H     H_    0.114178 0.499989 0.863530 0.211421
H17   H     H_    0.550871 0.211054 0.955927 0.220819
H18   H     H_    0.550598 0.788528 0.955426 0.221144
H19   H     H_    0.050643 0.711335 0.955570 0.220965
H20   H     H_    0.050863 0.288858 0.955863 0.220958
H21   H     H_    0.626576 0.280687 0.165089 0.162054
H22   H     H_    0.626270 0.718903 0.164549 0.162099
H23   H     H_    0.126238 0.781097 0.164553 0.162192
H24   H     H_    0.126645 0.219357 0.165157 0.162031
H25   H     H_    0.365933 0.832706 0.138068 0.154581
H26   H     H_    0.365964 0.167220 0.138037 0.154737
H27   H     H_    0.865970 0.332739 0.138099 0.154717
H28   H     H_    0.865961 0.667293 0.138070 0.154581
H29   H     H_    0.722905 0.163999 0.623414 0.199369
H30   H     H_    0.722898 0.836014 0.623398 0.199482
H31   H     H_    0.222857 0.664069 0.623354 0.199539
H32   H     H_    0.222917 0.336062 0.623422 0.199257
H33   H     H_    0.335810 0.818908 0.945352 0.170191
H34   H     H_    0.336144 0.181378 0.945666 0.169171
H35   H     H_    0.836072 0.318686 0.945656 0.169494
H36   H     H_    0.835941 0.681206 0.945446 0.169801
H37   H     H_    0.532269 0.170577 0.755855 0.208040
H38   H     H_    0.532187 0.829329 0.755643 0.207944
H39   H     H_    0.032193 0.670598 0.755738 0.207989
H40   H     H_    0.032269 0.329374 0.755804 0.207980
H41   H     H_    0.701531 0.000107 0.475063 0.140820
H42   H     H_    0.201531 0.499968 0.475064 0.140819
N1    N     N_R   0.566260 0.000000 0.302220 -0.191384
N2    N     N_R   0.066260 0.500000 0.302220 -0.191379
N3    N     N_R   0.434410 0.000000 0.697680 -0.246076
N4    N     N_R   0.934410 0.500000 0.697680 -0.246091
O1    O     O_R   0.608610 0.924520 0.551740 -0.577961
O2    O     O_R   0.608610 0.075480 0.551740 -0.578011
O3    O     O_R   0.108610 0.424520 0.551740 -0.577968
O4    O     O_R   0.108610 0.575480 0.551740 -0.578004
O5    O     O_R   0.564110 0.924510 0.685150 -0.617201
O6    O     O_R   0.564110 0.075490 0.685150 -0.617187
O7    O     O_R   0.064110 0.424510 0.685150 -0.617195
O8    O     O_R   0.064110 0.575490 0.685150 -0.617187
O9    O     O_R   0.435880 0.075470 0.314850 -0.589260
O10   O     O_R   0.435880 0.924530 0.314850 -0.589102
O11   O     O_R   0.935880 0.575470 0.314850 -0.589206
O12   O     O_R   0.935880 0.424530 0.314850 -0.589166
O13   O     O_R   0.391380 0.075460 0.448260 -0.596690
O14   O     O_R   0.391380 0.924540 0.448260 -0.596748
O15   O     O_R   0.891380 0.575460 0.448260 -0.596739
O16   O     O_R   0.891380 0.424540 0.448260 -0.596778
S1    S     S_3+6 0.199056 0.999075 0.614958 0.027565
O17   O     O_2   0.177106 0.940124 0.672991 -0.273273
O18   O     O_2   0.172699 0.070776 0.636403 -0.264242
O19   O     O_3   0.144088 0.985109 0.444336 -0.544165
H43   H     H_    0.081055 0.985827 0.403209 0.381427
S2    S     S_3+6 0.699075 0.500229 0.615159 0.027882
O20   O     O_2   0.674631 0.432425 0.651310 -0.267567
O21   O     O_2   0.675783 0.564737 0.660753 -0.269833
O22   O     O_3   0.643537 0.503828 0.442632 -0.545209
H44   H     H_    0.580576 0.503639 0.401933 0.381625
S3    S     S_3+6 0.349960 0.774187 0.738625 -0.038622
O23   O     O_2   0.401477 0.839961 0.821508 -0.371140
O24   O     O_2   0.411595 0.713515 0.770697 -0.323373
O25   O     O_3   0.287755 0.793560 0.568741 -0.524442
H45   H     H_    0.330716 0.800254 0.551176 0.364983
S4    S     S_3+6 0.350256 0.226197 0.738922 -0.038062
O26   O     O_2   0.412461 0.286706 0.772652 -0.324059
O27   O     O_2   0.401142 0.159974 0.820636 -0.370226
O28   O     O_3   0.288266 0.207771 0.568678 -0.525996
H46   H     H_    0.331290 0.201947 0.551034 0.364777
S5    S     S_3+6 0.850216 0.273934 0.738948 -0.038282
O29   O     O_2   0.901330 0.339990 0.821122 -0.370619
O30   O     O_2   0.912216 0.213368 0.772092 -0.323637
O31   O     O_3   0.788185 0.292719 0.568845 -0.525901
H47   H     H_    0.831225 0.299065 0.551358 0.364899
S6    S     S_3+6 0.850042 0.725970 0.738659 -0.038505
O32   O     O_2   0.911908 0.786570 0.771355 -0.323577
O33   O     O_2   0.901302 0.660012 0.821060 -0.370847
O34   O     O_3   0.787883 0.706973 0.568623 -0.525429
H48   H     H_    0.830860 0.700459 0.551052 0.364923

loop_
_geom_bond_atom_site_label_1
_geom_bond_atom_site_label_2
_ccdc_geom_bond_type
C26   H2    S    
Cu1   O10   S    
C83   C87   A    
C25   H1    S    
S3    O23   D    
C64   H24   S    
S1    O18   D    
C2    O6    A    
C37   S1    S    
C53   C55   A    
C27   H3    S    
O22   H44   S    
C3    O3    A    
C25   C63   A    
Cu2   O12   S    
Cu4   N4    S    
O31   H47   S    
C32   C72   A    
O28   H46   S    
C15   C19   A    
C16   H20   S    
C18   C86   A    
C75   C79   A    
C2    C29   S    
C9    C61   A    
C71   H31   S    
C28   C68   A    
C5    C11   A    
C35   H11   S    
C14   H18   S    
C6    C12   A    
Cu3   O14   S    
C5    C83   A    
C41   O11   A    
S4    O26   D    
C77   C83   A    
C21   H25   S    
C6    C22   A    
C39   O13   A    
C49   C57   A    
C40   O14   A    
C7    C9    A    
C43   H13   S    
C23   C67   A    
C9    C13   A    
C56   H16   S    
C13   H17   S    
C27   C61   A    
Cu3   N3    S    
C11   C15   A    
Cu3   O5    S    
C22   C66   A    
C12   C16   A    
S6    O33   D    
Cu1   O1    S    
C50   C52   A    
Cu4   O15   S    
C58   H10   S    
C45   C49   A    
C30   C86   A    
C60   N2    A    
C29   C85   A    
C1    O1    A    
S6    O34   S    
C63   H23   S    
C52   C54   A    
C31   C71   A    
C33   C59   A    
C72   H32   S    
S1    O19   S    
C34   C60   A    
C10   C62   A    
C20   H40   S    
Cu2   O11   S    
C21   C65   A    
C30   C70   A    
Cu3   O13   S    
C44   C46   A    
S5    O31   S    
C29   C69   A    
C45   C47   A    
C19   H39   S    
C54   C56   A    
C24   H28   S    
C6    C84   A    
C40   O10   A    
C75   S5    S    
C26   C66   A    
S2    O22   S    
C15   H19   S    
C31   C87   A    
C73   S3    S    
C10   C14   A    
C79   C81   A    
C80   H36   S    
C49   C51   A    
C82   C86   A    
C17   H37   S    
C59   H41   S    
C33   C51   A    
C55   H15   S    
C33   H7    S    
S2    O21   D    
O19   H43   S    
C37   C43   A    
O34   H48   S    
C38   C44   A    
C1    O5    A    
Cu2   N2    S    
C70   H30   S    
Cu2   Cu4   S    
S5    O29   D    
C69   H29   S    
C16   C20   A    
Cu1   O2    S    
C4    O8    A    
C47   N3    A    
C50   C58   A    
C25   C65   A    
C43   C45   A    
Cu2   O4    S    
Cu1   N1    S    
C72   C74   A    
O25   H45   S    
C7    C81   A    
C3    O7    A    
S5    O30   D    
C44   H14   S    
C40   C65   S    
C61   H21   S    
C42   C67   S    
C39   C66   S    
C17   C85   A    
C18   H38   S    
Cu1   Cu3   S    
C39   O9    A    
C78   H34   S    
C60   H42   S    
C77   H33   S    
S6    O32   D    
Cu4   O8    S    
C47   C55   A    
Cu3   O6    S    
C35   C37   A    
Cu1   O9    S    
C12   C64   A    
C22   H26   S    
C41   C68   S    
C41   O15   A    
C42   O16   A    
Cu4   O7    S    
C34   C52   A    
C14   C18   A    
C8    C10   A    
C57   N1    A    
C76   C80   A    
C76   S6    S    
C62   H22   S    
C26   C64   A    
S3    O25   S    
C57   H9    S    
C46   C50   A    
C11   C63   A    
C48   N4    A    
C28   H4    S    
C53   H5    S    
S2    O20   D    
C36   C38   A    
C19   C87   A    
C79   H35   S    
C35   N3    A    
C70   C76   A    
C58   N2    A    
C36   H12   S    
C4    O4    A    
C84   C88   A    
S4    O27   D    
C7    C23   A    
Cu2   O3    S    
C20   C88   A    
C59   N1    A    
C1    C30   S    
C8    C24   A    
C80   C82   A    
C69   C75   A    
C3    C32   S    
C42   O12   A    
C74   S4    S    
C4    C31   S    
C27   C67   A    
C24   C68   A    
C38   S2    S    
C13   C17   A    
C46   C48   A    
C78   C84   A    
C8    C82   A    
C5    C21   A    
C48   C56   A    
S3    O24   D    
C74   C78   A    
C71   C73   A    
S1    O17   D    
C73   C77   A    
C54   H6    S    
C23   H27   S    
Cu4   O16   S    
C2    O2    A    
C51   C53   A    
C34   H8    S    
C36   N4    A    
C81   C85   A    
C28   C62   A    
S4    O28   S    
C32   C88   A    
