data_mof_unit_41600.cif
_audit_creation_date              2012-12-10T18:50:52-0500
_audit_creation_method            fapswitch 2.2
_symmetry_space_group_name_H-M    P1
_symmetry_Int_Tables_number       1
_space_group_crystal_system       triclinic
_cell_length_a                    10.65835
_cell_length_b                    9.877781
_cell_length_c                    15.776384
_cell_angle_alpha                 90.202243
_cell_angle_beta                  91.803855
_cell_angle_gamma                 89.627446
_cell_volume                      1660.08369724

loop_
_atom_site_label
_atom_site_type_symbol
_atom_type_description
_atom_site_fract_x
_atom_site_fract_y
_atom_site_fract_z
_atom_type_partial_charge
C1    C     C_R   0.258920 0.500372 0.505841 0.983482
C2    C     C_R   0.933366 0.621384 0.464526 -0.127386
C3    C     C_R   0.869296 0.497424 0.466259 -0.124944
C4    C     C_R   0.122844 0.500521 0.506086 -0.209378
C5    C     C_R   0.574948 0.072059 0.556807 -0.088010
C6    C     C_R   0.580960 0.927748 0.553083 -0.061972
C7    C     C_R   0.499477 0.499815 0.338555 0.942272
C8    C     C_R   0.423235 0.928418 0.444701 0.432622
C9    C     C_R   0.424784 0.072020 0.443748 0.438343
C10   C     C_R   0.737339 0.499323 0.485947 0.923549
C11   C     C_R   0.500733 0.500209 0.661483 0.872767
C12   C     C_3   0.625346 0.588448 0.953253 -0.292782
C13   C     C_3   0.385811 0.595809 0.046299 0.084522
C14   C     C_3   0.484286 0.349322 0.048956 0.054324
C15   C     C_3   0.511688 0.349592 0.949891 0.598983
C16   C     C_3   0.377971 0.573243 0.946207 0.472519
C17   C     C_1   0.502933 0.500808 0.749903 -0.042503
C18   C     C_3   0.500493 0.502994 0.083394 -0.249266
C19   C     C_3   0.506095 0.503159 0.916843 -0.247206
C20   C     C_2   0.258584 0.574784 0.087063 0.505010
C21   C     C_2   0.356216 0.292037 0.070927 0.582369
C22   C     C_2   0.673630 0.691834 0.104654 0.703195
C23   C     C_3   0.634294 0.564060 0.055127 -0.192380
C24   C     C_2   0.741090 0.466179 0.082745 0.614092
C25   C     C_2   0.611265 0.735747 0.922058 0.706075
C26   C     C_2   0.747975 0.550956 0.910409 0.366224
C27   C     C_2   0.877888 0.242874 0.443536 0.552702
C28   C     C_2   0.874518 0.746204 0.427397 0.586794
C29   C     C_2   0.644162 0.145177 0.625556 0.619046
C30   C     C_2   0.682213 0.855161 0.601422 0.534588
C31   C     C_1   0.504816 0.501694 0.824945 0.088723
C32   C     C_1   0.499094 0.500940 0.175213 0.108771
C33   C     C_1   0.499231 0.499708 0.250222 0.026351
C34   C     C_R   0.058998 0.375365 0.501200 0.302691
C35   C     C_R   0.056881 0.624204 0.494588 0.305310
C36   C     C_R   0.935150 0.373516 0.471925 -0.135245
Cl1   Cl    Cl    0.243540 0.473932 0.911659 -0.479162
Cl2   Cl    Cl    0.120542 0.782947 0.526678 -0.459953
Cl3   Cl    Cl    0.413041 0.236766 0.886395 -0.287523
Cl4   Cl    Cl    0.325689 0.841532 0.371008 -0.382651
Cl5   Cl    Cl    0.327340 0.159489 0.370012 -0.412595
Cl6   Cl    Cl    0.583900 0.229005 0.106783 -0.361461
Cl7   Cl    Cl    0.406860 0.772113 0.073755 -0.372237
Cl8   Cl    Cl    0.658968 0.268550 0.926959 -0.443443
Cl9   Cl    Cl    0.339166 0.728046 0.889553 -0.369834
Cl10  Cl    Cl    0.126757 0.221053 0.539307 -0.471784
H1    H     H_    0.171787 0.578217 0.049613 0.175071
H2    H     H_    0.666557 0.759500 0.631189 0.105141
H3    H     H_    0.304970 0.334215 0.122734 0.078359
H4    H     H_    0.621035 0.728179 0.157906 0.113136
H5    H     H_    0.794311 0.408210 0.038111 0.163807
H6    H     H_    0.601247 0.753112 0.854157 0.056723
H7    H     H_    0.747928 0.490418 0.852967 0.134223
H8    H     H_    0.905061 0.147880 0.473258 0.117216
H9    H     H_    0.905617 0.846109 0.446936 0.132968
H10   H     H_    0.695144 0.236314 0.613347 0.070458
N1    N     N_R   0.499970 0.857200 0.499980 -0.181925
N2    N     N_R   0.499970 0.142800 0.499980 -0.181882
O1    O     O_R   0.316750 0.614620 0.499990 -0.542713
O2    O     O_2   0.318469 0.184053 0.042550 -0.356608
O3    O     O_2   0.772017 0.749046 0.090009 -0.433229
O4    O     O_2   0.769490 0.450164 0.157852 -0.506317
O5    O     O_2   0.614149 0.835469 0.967769 -0.393110
O6    O     O_2   0.848045 0.598299 0.935840 -0.456059
O7    O     O_2   0.802126 0.239965 0.383828 -0.493950
O8    O     O_2   0.793301 0.738234 0.371241 -0.534875
O9    O     O_2   0.643755 0.103487 0.698339 -0.476678
O10   O     O_2   0.787822 0.902225 0.607397 -0.555338
O11   O     O_R   0.316750 0.385380 0.499990 -0.543764
O12   O     O_R   0.499990 0.614720 0.377140 -0.568881
O13   O     O_R   0.499990 0.385280 0.377140 -0.562616
O14   O     O_R   0.683220 0.614710 0.500000 -0.646469
O15   O     O_R   0.683220 0.385290 0.500000 -0.657324
O16   O     O_R   0.499980 0.614620 0.622860 -0.646224
O17   O     O_R   0.499980 0.385380 0.622860 -0.615356
O18   O     O_2   0.248950 0.571296 0.163994 -0.517857
Zn1   Zn    Zn3+2 0.499980 0.653120 0.500000 1.060647
Zn2   Zn    Zn3+2 0.499980 0.346880 0.500000 1.069817

loop_
_geom_bond_atom_site_label_1
_geom_bond_atom_site_label_2
_ccdc_geom_bond_type
C2    C35   A    
C14   C18   S    
C19   C31   S    
O1    Zn1   S    
C7    O12   A    
C21   H3    S    
C27   H8    S    
C15   C19   S    
C12   C23   S    
C5    N2    A    
C14   C21   S    
C30   H2    S    
C15   Cl8   S    
C1    O1    A    
C7    O13   A    
C5    C6    A    
C10   O15   A    
C20   O18   D    
C9    N2    A    
C25   O5    D    
C26   O6    D    
C29   O9    D    
C8    C9    A    
O16   Zn1   S    
O15   Zn2   S    
C34   Cl10  S    
C16   Cl1   S    
C14   Cl6   S    
C24   H5    S    
C4    C35   A    
O12   Zn1   S    
C7    C33   S    
C6    N1    A    
O11   Zn2   S    
C28   H9    S    
C5    C29   S    
C4    C34   A    
C18   C23   S    
N1    Zn1   S    
C35   Cl2   S    
C21   O2    D    
C1    O11   A    
C12   C26   S    
C28   O8    D    
O14   Zn1   S    
C27   O7    D    
C8    N1    A    
C23   C24   S    
C15   Cl3   S    
C13   C18   S    
C6    C30   S    
C17   C31   T    
C18   C32   S    
C26   H7    S    
C13   Cl7   S    
C11   C17   S    
C24   O4    D    
C13   C20   S    
C22   C23   S    
C11   O16   A    
C16   Cl9   S    
C29   H10   S    
C27   C36   S    
C9    Cl5   S    
C22   H4    S    
C12   C25   S    
C1    C4    S    
C32   C33   T    
C2    C3    A    
C25   H6    S    
C3    C10   S    
C11   O17   A    
C22   O3    D    
C3    C36   A    
C16   C19   S    
C12   C19   S    
C34   C36   A    
O17   Zn2   S    
C20   H1    S    
N2    Zn2   S    
C13   C16   S    
C14   C15   S    
C2    C28   S    
C8    Cl4   S    
O13   Zn2   S    
C30   O10   D    
C10   O14   A    
