data_mof_unit_64758.cif
_audit_creation_date              2012-12-10T19:18:35-0500
_audit_creation_method            fapswitch 2.2
_symmetry_space_group_name_H-M    P1
_symmetry_Int_Tables_number       1
_space_group_crystal_system       triclinic
_cell_length_a                    14.759805
_cell_length_b                    15.996733
_cell_length_c                    17.352769
_cell_angle_alpha                 89.988287
_cell_angle_beta                  85.922915
_cell_angle_gamma                 90.012707
_cell_volume                      4086.77019295

loop_
_atom_site_label
_atom_site_type_symbol
_atom_type_description
_atom_site_fract_x
_atom_site_fract_y
_atom_site_fract_z
_atom_type_partial_charge
C1    C     C_R   0.500029 0.659167 0.499974 0.833405
C2    C     C_1   0.500040 0.823335 0.499964 -0.057447
C3    C     C_1   0.500044 0.748288 0.499963 -0.163748
C4    C     C_1   0.499956 0.251712 0.500036 -0.163748
C5    C     C_R   0.053407 0.475136 0.434201 -0.149536
C6    C     C_R   0.946593 0.524864 0.565799 -0.149536
C7    C     C_R   0.097132 0.499988 0.500012 0.044804
C8    C     C_R   0.902868 0.500012 0.499988 0.044804
C9    C     C_R   0.042405 0.524853 0.565811 -0.145262
C10   C     C_R   0.957595 0.475147 0.434189 -0.145262
C11   C     C_1   0.197267 0.499982 0.500020 0.125065
C12   C     C_R   0.499971 0.340833 0.500026 0.833405
C13   C     C_1   0.802733 0.500018 0.499980 0.125065
C14   C     C_R   0.488245 0.498829 0.650330 0.808465
C15   C     C_R   0.511755 0.501171 0.349670 0.808465
C16   C     C_R   0.481937 0.493972 0.734637 -0.072706
C17   C     C_R   0.518063 0.506028 0.265363 -0.072706
C18   C     C_R   0.560945 0.482176 0.773465 -0.191758
C19   C     C_R   0.439055 0.517824 0.226535 -0.191759
C20   C     C_R   0.555850 0.476693 0.853306 -0.168785
C21   C     C_R   0.444150 0.523307 0.146694 -0.168784
C22   C     C_R   0.471777 0.484001 0.895868 0.130439
C23   C     C_R   0.417753 0.043590 0.500027 -0.166584
C24   C     C_R   0.528223 0.515999 0.104132 0.130439
C25   C     C_R   0.391862 0.493963 0.857165 0.173150
C26   C     C_R   0.608138 0.506037 0.142835 0.173150
C27   C     C_R   0.397413 0.499077 0.776759 -0.202014
C28   C     C_R   0.602586 0.500923 0.223240 -0.202014
C29   C     C_2   0.468074 0.481404 0.980402 -0.189464
C30   C     C_2   0.531925 0.518596 0.019598 -0.189464
C31   C     C_R   0.582247 0.956410 0.499973 -0.166584
C32   C     C_R   0.499979 0.087212 0.500024 0.150823
C33   C     C_R   0.500021 0.912788 0.499976 0.150823
C34   C     C_R   0.582226 0.043654 0.499997 -0.166837
C35   C     C_R   0.417774 0.956346 0.500003 -0.166837
C36   C     C_1   0.499960 0.176664 0.500036 -0.057447
Cu1   Cu    Cu3+1 0.410780 0.500000 0.499980 0.987369
Cu2   Cu    Cu3+1 0.589220 0.500000 0.500020 0.987369
H1    H     H_    0.626841 0.476593 0.742201 0.167623
H2    H     H_    0.646090 0.077074 0.499993 0.143879
H3    H     H_    0.353873 0.076960 0.500045 0.143995
H4    H     H_    0.646127 0.923040 0.499955 0.143995
H5    H     H_    0.926205 0.455656 0.382576 0.141195
H6    H     H_    0.073795 0.544344 0.617424 0.141195
H7    H     H_    0.093426 0.455636 0.382597 0.137209
H8    H     H_    0.906574 0.544364 0.617403 0.137209
H9    H     H_    0.373159 0.523407 0.257799 0.167623
H10   H     H_    0.664265 0.492285 0.252576 0.177887
H11   H     H_    0.335735 0.507715 0.747424 0.177887
H12   H     H_    0.588562 0.550583 0.989049 0.180484
H13   H     H_    0.411438 0.449417 0.010951 0.180484
H14   H     H_    0.382147 0.533814 0.118282 0.162861
H15   H     H_    0.617852 0.466186 0.881718 0.162861
H16   H     H_    0.353910 0.922926 0.500006 0.143879
I1    I     I_    0.261554 0.506181 0.916266 -0.380408
I2    I     I_    0.738446 0.493818 0.083734 -0.380408
N1    N     N_1   0.723290 0.500020 0.499980 -0.153214
N2    N     N_1   0.276710 0.499980 0.500020 -0.153214
O1    O     O_R   0.424680 0.619690 0.499960 -0.569950
O2    O     O_R   0.575320 0.380310 0.500040 -0.569950
O3    O     O_R   0.575360 0.619690 0.500000 -0.568410
O4    O     O_R   0.424640 0.380310 0.500000 -0.568409
O5    O     O_R   0.415920 0.500010 0.613580 -0.579871
O6    O     O_R   0.584080 0.499990 0.386420 -0.579872
O7    O     O_R   0.566610 0.500010 0.613610 -0.582658
O8    O     O_R   0.433390 0.499990 0.386390 -0.582657

loop_
_geom_bond_atom_site_label_1
_geom_bond_atom_site_label_2
_ccdc_geom_bond_type
C15   O6    A    
C31   C33   A    
C15   C17   S    
C8    C13   S    
C31   H4    S    
C25   C27   A    
Cu2   N1    S    
C12   O4    A    
C10   H5    S    
C23   C35   A    
Cu1   N2    S    
C23   H3    S    
Cu2   O7    S    
C29   C30   D    
C18   H1    S    
Cu2   O3    S    
C23   C32   A    
C6    C9    A    
C4    C36   T    
C2    C3    T    
C30   H12   S    
C31   C34   A    
C19   H9    S    
C5    C10   A    
Cu1   O8    S    
C35   H16   S    
C7    C11   S    
C15   O8    A    
Cu1   O1    S    
C22   C29   S    
C26   I2    S    
C16   C27   A    
Cu2   O2    S    
C14   O5    A    
C32   C36   S    
C2    C33   S    
C8    C10   A    
C26   C28   A    
Cu1   O5    S    
Cu1   Cu2   S    
C24   C26   A    
Cu1   O4    S    
Cu2   O6    S    
C1    O1    A    
C33   C35   A    
C34   H2    S    
C24   C30   S    
C4    C12   S    
C20   C22   A    
C17   C19   A    
C12   O2    A    
C25   I1    S    
C21   H14   S    
C13   N1    T    
C18   C20   A    
C16   C18   A    
C29   H13   S    
C21   C24   A    
C7    C9    A    
C5    C7    A    
C28   H10   S    
C9    H6    S    
C6    C8    A    
C6    H8    S    
C19   C21   A    
C14   C16   S    
C17   C28   A    
C5    H7    S    
C14   O7    A    
C11   N2    T    
C27   H11   S    
C1    O3    A    
C20   H15   S    
C1    C3    S    
C22   C25   A    
C32   C34   A    
