data_mof_unit_27588.cif
_audit_creation_date              2013-03-05T15:43:38-0500
_audit_creation_method            fapswitch 2.2
_symmetry_space_group_name_H-M    P1
_symmetry_Int_Tables_number       1
_space_group_crystal_system       triclinic
_cell_length_a                    15.881946
_cell_length_b                    10.942604
_cell_length_c                    9.707204
_cell_angle_alpha                 90.317505
_cell_angle_beta                  90.113998
_cell_angle_gamma                 90.421542
_cell_volume                      1686.93844847

loop_
_atom_site_label
_atom_site_type_symbol
_atom_site_description
_atom_site_fract_x
_atom_site_fract_y
_atom_site_fract_z
_atom_type_partial_charge
O1    O     O_R   0.500010 0.321960 0.617040 -0.599063
O2    O     O_R   0.499990 0.321920 0.382900 -0.524274
C1    C     C_R   0.499374 0.265523 0.499396 0.860926
O3    O     O_R   0.379450 0.500030 0.617120 -0.563238
O4    O     O_R   0.379420 0.499980 0.382980 -0.534080
C2    C     C_R   0.340334 0.499843 0.499982 0.818191
Cu1   Cu    Cu3+1 0.500020 0.500020 0.638630 1.077402
Cu2   Cu    Cu3+1 0.499980 0.499980 0.361370 1.153757
O5    O     O_R   0.500010 0.678080 0.617100 -0.537356
O6    O     O_R   0.499990 0.678040 0.382960 -0.543677
O7    O     O_R   0.620580 0.500020 0.617020 -0.542923
O8    O     O_R   0.620550 0.499970 0.382880 -0.541862
C3    C     C_R   0.502116 0.734635 0.500296 0.851684
C4    C     C_R   0.659539 0.500810 0.500094 0.779130
C5    C     C_3   0.049451 0.454567 0.654749 0.346971
C6    C     C_3   0.047457 0.428201 0.393494 -0.525292
C7    C     C_3   0.948786 0.417668 0.396902 0.654036
H1    H     H_    0.070414 0.460826 0.293245 0.281131
H2    H     H_    0.076194 0.336195 0.399762 0.216050
C8    C     C_1   0.748733 0.506031 0.500895 -0.025163
C9    C     C_3   0.082814 0.512072 0.511526 -0.284739
C10   C     C_3   0.946941 0.477349 0.661113 0.433026
C11   C     C_3   0.916653 0.516612 0.508029 -0.213517
C12   C     C_3   0.951248 0.650515 0.464522 0.425773
C13   C     C_3   0.052489 0.650070 0.483983 0.345465
C14   C     C_1   0.824071 0.511848 0.502984 0.293965
C15   C     C_1   0.175433 0.505747 0.504339 0.255612
C16   C     C_1   0.250866 0.502149 0.500581 0.035400
C17   C     C_2   0.490732 0.934956 0.393552 0.069138
C18   C     C_2   0.518404 0.865456 0.499685 0.012810
C19   C     C_2   0.513013 0.065459 0.388990 0.470915
C20   C     C_2   0.491396 0.134027 0.498243 -0.304634
H3    H     H_    0.465206 0.091863 0.590036 0.154289
C21   C     C_2   0.471583 0.409630 0.921282 -0.046423
N1    N     N_2   0.499090 0.498660 0.846910 -0.268864
H4    H     H_    0.452211 0.325379 0.870783 0.186115
H5    H     H_    0.503852 0.583338 0.892832 0.257756
C22   C     C_2   0.458044 0.421047 0.074550 0.437566
N2    N     N_2   0.499070 0.498630 0.153040 -0.111972
O9    O     O_3   0.901251 0.367113 0.691825 -0.539440
C23   C     C_3   0.896901 0.335844 0.833348 0.224346
H6    H     H_    0.859787 0.403116 0.893366 0.219418
H7    H     H_    0.960291 0.326407 0.878916 0.211570
C24   C     C_3   0.851754 0.213389 0.847188 -0.662848
H8    H     H_    0.886320 0.141262 0.790225 0.298974
H9    H     H_    0.848103 0.187645 0.957577 0.192889
H10   H     H_    0.786860 0.219726 0.805035 0.253008
N3    N     N_R   0.093898 0.505175 0.778149 0.184265
O10   O     O_R   0.159799 0.575798 0.768023 -0.254327
O11   O     O_R   0.084338 0.449555 0.895403 -0.245547
N4    N     N_R   0.919194 0.573786 0.761326 0.108931
O12   O     O_R   0.960843 0.597570 0.873781 -0.229975
O13   O     O_R   0.839808 0.602269 0.764713 -0.294915
O14   O     O_3   0.934069 0.660162 0.319077 -0.561970
C25   C     C_3   0.894006 0.765036 0.264603 0.215117
H11   H     H_    0.925425 0.786159 0.165368 0.214597
H12   H     H_    0.900522 0.849777 0.325390 0.170711
C26   C     C_3   0.801845 0.737861 0.231510 -0.642832
H13   H     H_    0.765858 0.717165 0.326148 0.248345
H14   H     H_    0.773146 0.818586 0.181476 0.192396
H15   H     H_    0.797010 0.658643 0.159881 0.310975
N5    N     N_R   0.430744 0.889580 0.293256 0.161912
O15   O     O_R   0.431384 0.932325 0.168412 -0.232197
O16   O     O_R   0.365690 0.825974 0.333147 -0.283146
N6    N     N_R   0.574908 0.913983 0.603438 0.101922
O17   O     O_R   0.563744 0.886898 0.732495 -0.278533
O18   O     O_R   0.643204 0.972020 0.567718 -0.370089
O19   O     O_3   0.544078 0.119006 0.269595 -0.514027
C27   C     C_3   0.615898 0.055788 0.222842 0.083517
H16   H     H_    0.598951 0.962486 0.185452 0.199068
H17   H     H_    0.664122 0.049105 0.305936 0.156268
C28   C     C_3   0.654798 0.125638 0.103483 -0.672508
H18   H     H_    0.673628 0.218929 0.137822 0.267694
H19   H     H_    0.711428 0.076934 0.065711 0.196825
H20   H     H_    0.608657 0.132962 0.017803 0.280147
N7    N     N_R   0.394037 0.344965 0.133136 0.124751
O20   O     O_R   0.319841 0.390722 0.154519 -0.286234
O21   O     O_R   0.401298 0.226921 0.123939 -0.270012
N8    N     N_R   0.073418 0.322469 0.653471 0.141029
O22   O     O_R   0.152534 0.294091 0.666571 -0.296336
O23   O     O_R   0.019943 0.232371 0.645392 -0.280356
N9    N     N_R   0.575247 0.543662 0.102418 0.203217
O24   O     O_R   0.596754 0.656133 0.129501 -0.322575
O25   O     O_R   0.632753 0.468500 0.058926 -0.344826
O26   O     O_3   0.923360 0.298882 0.441733 -0.529051
C29   C     C_3   0.942936 0.202746 0.348071 0.183860
H21   H     H_    0.990771 0.142901 0.396100 0.217457
H22   H     H_    0.969554 0.233243 0.247939 0.148373
C30   C     C_3   0.864207 0.126215 0.320394 -0.727331
H23   H     H_    0.813007 0.184396 0.280058 0.261879
H24   H     H_    0.878134 0.054514 0.242602 0.181893
H25   H     H_    0.842609 0.082089 0.416991 0.282674
N10   N     N_R   0.910564 0.438284 0.258099 0.130629
O27   O     O_R   0.830566 0.417926 0.238561 -0.377828
O28   O     O_R   0.956525 0.460187 0.149921 -0.308674
N11   N     N_R   0.083638 0.729194 0.598178 0.165945
O29   O     O_R   0.043287 0.742331 0.713456 -0.217185
O30   O     O_R   0.157161 0.781993 0.587841 -0.223139
N12   N     N_R   0.089917 0.702742 0.356218 0.192142
O31   O     O_R   0.075983 0.817036 0.327898 -0.266148
O32   O     O_R   0.143903 0.644893 0.279673 -0.275955
N13   N     N_R   0.910528 0.752675 0.542614 0.142158
O33   O     O_R   0.948174 0.858729 0.551690 -0.282922
O34   O     O_R   0.829338 0.753375 0.559712 -0.328007

loop_
_geom_bond_atom_site_label_1
_geom_bond_atom_site_label_2
_geom_bond_distance
_ccdc_geom_bond_type
C25   H11   1.110428 S    
N10   O27   1.301627 A    
C23   H6    1.109845 S    
Cu1   Cu2   2.691415 S    
C22   N7    1.430042 S    
O26   C29   1.423132 S    
Cu1   O7    1.926599 S    
C7    C11   1.610506 S    
C7    O26   1.428721 S    
N1    H5    1.028242 S    
N7    O21   1.300286 A    
O3    Cu1   1.925823 S    
C22   N2    1.307099 D    
O7    C4    1.293840 A    
C29   H22   1.112665 S    
C26   H14   1.110744 S    
C21   N1    1.289941 D    
C11   C14   1.471642 S    
C27   H17   1.114258 S    
O5    C3    1.295117 A    
N5    O16   1.302247 A    
C17   N5    1.444343 S    
C13   N12   1.493179 S    
C5    C10   1.650069 S    
C5    N8    1.497470 S    
N12   O31   1.302455 A    
C6    C7    1.570908 S    
N6    O18   1.301486 A    
N11   O30   1.303288 A    
C11   C12   1.619612 S    
Cu2   N2    2.022297 S    
C30   H24   1.109688 S    
C12   N13   1.498596 S    
C24   H10   1.110936 S    
C26   H15   1.110376 S    
N3    O11   1.302301 A    
C9    C15   1.474889 S    
N10   O28   1.302404 A    
O1    Cu1   1.958523 S    
C23   H7    1.104606 S    
N13   O33   1.304013 A    
C5    N3    1.491115 S    
C28   H20   1.111015 S    
C24   H9    1.111002 S    
C19   O19   1.391241 S    
C2    C16   1.421357 S    
N4    O12   1.299374 A    
C4    C8    1.417305 S    
C3    C18   1.452877 S    
C12   C13   1.618629 S    
O3    C2    1.294626 A    
N8    O23   1.298460 A    
C29   H21   1.110251 S    
O19   C27   1.412722 S    
C26   H13   1.106531 S    
O6    C3    1.293725 A    
O1    C1    1.295257 A    
C27   C28   1.521207 S    
C17   C18   1.358214 D    
C19   C20   1.342392 D    
Cu2   O8    1.925824 S    
C10   O9    1.436134 S    
N11   O29   1.298468 A    
N5    O15   1.301466 A    
C1    C20   1.443526 S    
N7    O20   1.300330 A    
C30   H25   1.110817 S    
N13   O34   1.300488 A    
C28   H19   1.110678 S    
O9    C23   1.419289 S    
N12   O32   1.301258 A    
O8    C4    1.294282 A    
N6    O17   1.301138 A    
N9    O25   1.302907 A    
C25   H12   1.100466 S    
C23   C24   1.521822 S    
C7    N10   1.495655 S    
C24   H8    1.110323 S    
Cu1   O5    1.960768 S    
C9    C13   1.611946 S    
O14   C25   1.420414 S    
N3    O10   1.300643 A    
C21   C22   1.508313 S    
Cu1   N1    2.022036 S    
Cu2   O6    1.958522 S    
O2    Cu2   1.960770 S    
N2    N9    1.394372 S    
C28   H18   1.110861 S    
C29   C30   1.522394 S    
O4    Cu2   1.926601 S    
C6    C9    1.564791 S    
C20   H3    1.087696 S    
O2    C1    1.291298 A    
C17   C19   1.469627 S    
O4    C2    1.295418 A    
C8    C14   1.197856 T    
C6    H2    1.110384 S    
C21   H4    1.084029 S    
C27   H16   1.112660 S    
C18   N6    1.443995 S    
N8    O22   1.302681 A    
C5    C9    1.617828 S    
C13   N11   1.484611 S    
C6    H1    1.100335 S    
N9    O24   1.300136 A    
C25   C26   1.524687 S    
C15   C16   1.199569 T    
C10   C11   1.622195 S    
N4    O13   1.301416 A    
C30   H23   1.108596 S    
C12   O14   1.442042 S    
C10   N4    1.500431 S    
