data_mof_unit_39291.cif
_audit_creation_date              2012-12-11T14:49:48-0500
_audit_creation_method            fapswitch 2.2
_symmetry_space_group_name_H-M    P1
_symmetry_Int_Tables_number       1
_space_group_crystal_system       triclinic
_cell_length_a                    10.90906
_cell_length_b                    10.909939
_cell_length_c                    18.936105
_cell_angle_alpha                 89.975548
_cell_angle_beta                  89.974721
_cell_angle_gamma                 120.830259
_cell_volume                      1935.24617767

loop_
_atom_site_label
_atom_site_type_symbol
_atom_type_description
_atom_site_fract_x
_atom_site_fract_y
_atom_site_fract_z
_atom_type_partial_charge
C1    C     C_R   0.548949 0.431328 0.638145 0.540589
C2    C     C_R   0.431544 0.548415 0.361916 0.538339
C3    C     C_R   0.449126 0.880148 0.138528 0.538486
C4    C     C_R   0.053231 0.529107 0.351403 0.548550
C5    C     C_R   0.363021 0.941850 0.546309 -0.123861
C6    C     C_R   0.615972 0.585260 0.966939 -0.131595
C7    C     C_R   0.915191 0.351017 0.526483 -0.146109
C8    C     C_R   0.364503 0.947514 0.954553 -0.126959
C9    C     C_R   0.613304 0.588093 0.534206 -0.129414
C10   C     C_R   0.909791 0.349408 0.974325 -0.145751
C11   C     C_R   0.942718 0.363270 0.046196 -0.124326
C12   C     C_R   0.880214 0.449151 0.861485 0.537359
C13   C     C_R   0.584866 0.616287 0.467130 -0.131861
C14   C     C_R   0.350649 0.914104 0.026350 -0.146028
C15   C     C_R   0.948653 0.364855 0.454698 -0.127540
C16   C     C_R   0.587734 0.613692 0.034004 -0.129810
C17   C     C_R   0.349158 0.908991 0.474425 -0.145639
C18   C     C_R   0.464140 0.916250 0.436931 -0.036348
C19   C     C_R   0.458463 0.520348 0.066687 -0.038571
C20   C     C_R   0.971561 0.485503 0.417793 -0.017923
C21   C     C_R   0.463821 0.916122 0.063039 -0.037513
C22   C     C_R   0.458686 0.519182 0.433246 -0.037886
C23   C     C_R   0.529263 0.053147 0.648617 0.550262
C24   C     C_R   0.971688 0.486840 0.082153 -0.017141
C25   C     C_R   0.916291 0.464123 0.936935 -0.036479
C26   C     C_R   0.520575 0.458370 0.566676 -0.038597
C27   C     C_R   0.485690 0.971507 0.917797 -0.017858
C28   C     C_R   0.916268 0.463827 0.563044 -0.037617
C29   C     C_R   0.519472 0.458529 0.933279 -0.038096
C30   C     C_R   0.486986 0.971671 0.582147 -0.016969
C31   C     C_R   0.587671 0.941948 0.474443 0.205913
C32   C     C_R   0.356399 0.393479 0.031779 0.253261
C33   C     C_R   0.942030 0.583244 0.451680 0.239075
C34   C     C_R   0.548526 0.431450 0.861904 0.538713
C35   C     C_R   0.585001 0.937366 0.024770 0.205108
C36   C     C_R   0.359461 0.389393 0.467286 0.254145
C37   C     C_R   0.946931 0.587326 0.047487 0.236003
C38   C     C_R   0.941330 0.587314 0.974545 0.205767
C39   C     C_R   0.394219 0.355856 0.531608 0.252937
C40   C     C_R   0.583907 0.942761 0.951799 0.238625
C41   C     C_R   0.936716 0.584567 0.524656 0.205003
C42   C     C_R   0.390170 0.358825 0.967495 0.254042
C43   C     C_R   0.587848 0.947576 0.547377 0.235606
C44   C     C_R   0.880220 0.449148 0.638522 0.538726
C45   C     C_R   0.529116 0.053205 0.851400 0.548608
C46   C     C_R   0.431382 0.548869 0.138133 0.540199
C47   C     C_R   0.449140 0.880181 0.361484 0.537125
C48   C     C_R   0.053170 0.529261 0.148614 0.550147
Cl1   Cl    Cl    0.752744 0.985402 0.434192 -0.468137
Cl2   Cl    Cl    0.976038 0.748914 0.563912 -0.468854
Cl3   Cl    Cl    0.264126 0.188357 0.932179 -0.436396
Cl4   Cl    Cl    0.717724 0.924379 0.592722 -0.452898
Cl5   Cl    Cl    0.184371 0.271121 0.066686 -0.440870
Cl6   Cl    Cl    0.912615 0.707675 0.405027 -0.448344
Cl7   Cl    Cl    0.749479 0.977315 0.064155 -0.468678
Cl8   Cl    Cl    0.189346 0.262541 0.431835 -0.435276
Cl9   Cl    Cl    0.922974 0.716550 0.092981 -0.451938
Cl10  Cl    Cl    0.984223 0.752273 0.934403 -0.468526
Cl11  Cl    Cl    0.272456 0.183662 0.566470 -0.441961
Cl12  Cl    Cl    0.709132 0.914235 0.905317 -0.449192
Cr1   Cr    Cr6+3 0.776430 0.541680 0.750000 1.165615
Cr2   Cr    Cr6+3 0.765250 0.223570 0.750000 1.148165
Cr3   Cr    Cr6+3 0.458320 0.234750 0.750000 1.148825
Cr4   Cr    Cr6+3 0.541680 0.776430 0.250000 1.166197
Cr5   Cr    Cr6+3 0.223570 0.765250 0.250000 1.148626
Cr6   Cr    Cr6+3 0.234750 0.458320 0.250000 1.148868
H1    H     H_    0.278097 0.944510 0.573975 0.250109
H2    H     H_    0.957681 0.282747 0.427985 0.252369
H3    H     H_    0.667546 0.707790 0.060658 0.262711
H4    H     H_    0.251120 0.883653 0.447756 0.225376
H5    H     H_    0.712662 0.662820 0.941140 0.260523
H6    H     H_    0.894987 0.255243 0.553857 0.229112
H7    H     H_    0.281933 0.955546 0.927696 0.252198
H8    H     H_    0.706835 0.668343 0.561060 0.263054
H9    H     H_    0.885079 0.251637 0.947581 0.225877
H10   H     H_    0.946135 0.278676 0.073756 0.250481
H11   H     H_    0.661937 0.713487 0.441531 0.259973
H12   H     H_    0.254502 0.893099 0.053626 0.228660
O1    O     O_R   0.916700 0.566820 0.669930 -0.431158
O2    O     O_R   0.566820 0.916700 0.330070 -0.430414
O3    O     O_R   0.083300 0.650120 0.169930 -0.454162
O4    O     O_R   0.349880 0.433180 0.330070 -0.424069
O5    O     O_R   0.649840 0.534790 0.674920 -0.475944
O6    O     O_R   0.884950 0.350160 0.825080 -0.472424
O7    O     O_R   0.465210 0.115050 0.674920 -0.494424
O8    O     O_R   0.649840 0.534790 0.825080 -0.474128
O9    O     O_R   0.884950 0.350160 0.674920 -0.473983
O10   O     O_R   0.465210 0.115050 0.825080 -0.498015
O11   O     O_R   0.534790 0.649840 0.174920 -0.475556
O12   O     O_R   0.650120 0.083300 0.830070 -0.454502
O13   O     O_R   0.350160 0.884950 0.325080 -0.472093
O14   O     O_R   0.115050 0.465210 0.174920 -0.494863
O15   O     O_R   0.534790 0.649840 0.325080 -0.473674
O16   O     O_R   0.350160 0.884950 0.174920 -0.473632
O17   O     O_R   0.115050 0.465210 0.325080 -0.498546
O18   O     O_3   0.666667 0.333333 0.750000 -0.377229
O19   O     O_3   0.333333 0.666667 0.250000 -0.377463
O20   O     O_R   0.433180 0.349880 0.669930 -0.423964
O21   O     O_R   0.916700 0.566820 0.830070 -0.430656
O22   O     O_R   0.650120 0.083300 0.669930 -0.454161
O23   O     O_R   0.433180 0.349880 0.830070 -0.424166
O24   O     O_R   0.566820 0.916700 0.169930 -0.430907
O25   O     O_R   0.083300 0.650120 0.330070 -0.454444
O26   O     O_R   0.349880 0.433180 0.169930 -0.423789

loop_
_geom_bond_atom_site_label_1
_geom_bond_atom_site_label_2
_ccdc_geom_bond_type
C40   Cl12  S    
Cr2   O18   S    
Cr3   O10   S    
C11   C24   A    
C5    H1    S    
C18   C47   S    
C32   Cl5   S    
C19   C46   S    
C46   O11   A    
Cr4   O24   S    
C31   C43   A    
C47   O2    A    
C14   C21   A    
Cr4   O15   S    
Cr3   O20   S    
C11   H10   S    
C29   C42   A    
C43   Cl4   S    
C5    C17   A    
C4    O25   A    
Cr2   O12   S    
C28   C41   A    
C48   O3    A    
C12   O6    A    
C34   O8    A    
C9    C13   A    
C12   O21   A    
C38   Cl10  S    
C2    C22   S    
C44   O9    A    
C2    O15   A    
Cr3   O23   S    
C42   Cl3   S    
C27   C45   S    
C7    C15   A    
C23   O22   A    
C17   H4    S    
Cr3   O7    S    
Cr4   O2    S    
Cr1   O21   S    
Cr4   O11   S    
C31   Cl1   S    
C19   C32   A    
C9    C26   A    
C24   C37   A    
C36   C39   A    
C6    H5    S    
C13   H11   S    
Cr1   O18   S    
C34   O23   A    
C35   Cl7   S    
Cr1   O8    S    
C24   C48   S    
C23   C30   S    
Cr6   O26   S    
C45   O10   A    
Cr1   O5    S    
C7    H6    S    
Cr6   O14   S    
C46   O26   A    
Cr3   O18   S    
C28   C44   S    
C7    C28   A    
C15   C20   A    
C37   C38   A    
C36   Cl8   S    
C25   C38   A    
Cr6   O4    S    
C4    O17   A    
C10   H9    S    
Cr5   O3    S    
C27   C40   A    
C39   Cl11  S    
C17   C18   A    
C45   O12   A    
Cr2   O22   S    
C20   C33   A    
C3    O24   A    
Cr4   O19   S    
C48   O14   A    
C1    C26   S    
C30   C43   A    
C3    C21   S    
C9    H8    S    
Cr5   O25   S    
C41   Cl2   S    
Cr6   O19   S    
C5    C30   A    
C33   Cl6   S    
Cr5   O13   S    
Cr2   O6    S    
Cr5   O16   S    
C8    C14   A    
C47   O13   A    
C44   O1    A    
C16   H3    S    
C1    O20   A    
C21   C35   A    
C1    O5    A    
C22   C36   A    
Cr2   O9    S    
C12   C25   S    
C33   C41   A    
C35   C40   A    
Cr5   O19   S    
C10   C25   A    
Cr1   O1    S    
C16   C19   A    
C15   H2    S    
C29   C34   S    
C8    H7    S    
C13   C22   A    
C3    O16   A    
C14   H12   S    
C26   C39   A    
C2    O4    A    
C10   C11   A    
C6    C16   A    
C4    C20   S    
C6    C29   A    
C23   O7    A    
C8    C27   A    
C32   C42   A    
C18   C31   A    
C37   Cl9   S    
Cr6   O17   S    
