data_mof_unit_38230.cif
_audit_creation_date              2012-12-10T17:12:36-0500
_audit_creation_method            fapswitch 2.2
_symmetry_space_group_name_H-M    P1
_symmetry_Int_Tables_number       1
_space_group_crystal_system       triclinic
_cell_length_a                    23.41938
_cell_length_b                    10.634729
_cell_length_c                    10.021369
_cell_angle_alpha                 88.370183
_cell_angle_beta                  89.374649
_cell_angle_gamma                 90.508149
_cell_volume                      2494.64620947

loop_
_atom_site_label
_atom_site_type_symbol
_atom_type_description
_atom_site_fract_x
_atom_site_fract_y
_atom_site_fract_z
_atom_type_partial_charge
C1    C     C_R   0.496284 0.262387 0.502001 0.945303
C2    C     C_R   0.120064 0.624047 0.479210 0.501721
C3    C     C_R   0.238561 0.528864 0.382774 -0.110911
C4    C     C_R   0.389355 0.500763 0.500627 0.841953
C5    C     C_R   0.297751 0.524666 0.381762 -0.238597
C6    C     C_R   0.327173 0.504781 0.501744 -0.025964
C7    C     C_R   0.296726 0.490009 0.622691 -0.222683
C8    C     C_R   0.237498 0.494016 0.623291 -0.097887
C9    C     C_R   0.208513 0.513083 0.503357 0.324378
C10   C     C_R   0.762142 0.501834 0.616769 -0.100643
C11   C     C_R   0.702900 0.498870 0.618315 -0.206036
C12   C     C_R   0.969425 0.285802 0.544801 -0.157370
C13   C     C_R   0.672961 0.503615 0.497670 -0.054115
C14   C     C_R   0.703033 0.512058 0.375662 -0.210026
C15   C     C_R   0.762306 0.515470 0.374539 -0.110212
C16   C     C_R   0.498778 0.737713 0.497861 0.906541
C17   C     C_R   0.791702 0.509978 0.495015 0.324390
C18   C     C_2   0.461875 0.934031 0.407122 0.132839
C19   C     C_2   0.497073 0.870967 0.490602 -0.368990
C20   C     C_2   0.468946 0.070138 0.399291 -0.171647
C21   C     C_2   0.482537 0.131656 0.508813 -0.381772
C22   C     C_2   0.531746 0.575095 0.922606 -0.092970
C23   C     C_R   0.028830 0.286407 0.546934 -0.158868
C24   C     C_2   0.538061 0.561291 0.073192 0.513076
C25   C     C_R   0.610677 0.500723 0.499274 0.870939
C26   C     C_R   0.880981 0.621645 0.470655 0.504197
C27   C     C_R   0.880142 0.399799 0.517958 0.505477
C28   C     C_R   0.939714 0.397955 0.520061 -0.016292
C29   C     C_R   0.970081 0.511623 0.496998 -0.021688
C30   C     C_R   0.940617 0.624654 0.471780 -0.015237
C31   C     C_3   0.418493 0.868121 0.319755 -0.365891
C32   C     C_3   0.371011 0.954234 0.266568 -0.377075
C33   C     C_3   0.325212 0.878683 0.195908 -0.835956
C34   C     C_R   0.059474 0.399188 0.524435 -0.014553
C35   C     C_3   0.431480 0.358030 0.884826 0.222693
C36   C     C_3   0.412068 0.250437 0.978569 -0.941835
C37   C     C_3   0.585009 0.743510 0.122322 0.066342
C38   C     C_3   0.625736 0.797366 0.223749 -0.740154
C39   C     C_R   0.030051 0.512251 0.499301 -0.021702
C40   C     C_R   0.060454 0.625902 0.476437 -0.014120
C41   C     C_R   0.030720 0.738023 0.451461 -0.158931
C42   C     C_R   0.971283 0.737396 0.449099 -0.157749
C43   C     C_R   0.119064 0.402076 0.525791 0.502374
H1    H     H_    0.946927 0.197384 0.562647 0.194428
H2    H     H_    0.461585 0.483957 0.106281 0.153452
H3    H     H_    0.053228 0.826438 0.433673 0.193699
H4    H     H_    0.949504 0.825353 0.429657 0.194067
H5    H     H_    0.215924 0.543335 0.290018 0.140573
H6    H     H_    0.320359 0.537234 0.287386 0.159455
H7    H     H_    0.318539 0.474582 0.716402 0.145106
H8    H     H_    0.214020 0.481759 0.716521 0.138642
H9    H     H_    0.785196 0.497564 0.709859 0.140231
H10   H     H_    0.344336 0.827938 0.111213 0.248963
H11   H     H_    0.304534 0.809582 0.266713 0.273082
H12   H     H_    0.680679 0.492484 0.713652 0.172885
H13   H     H_    0.292040 0.943322 0.156478 0.263400
H14   H     H_    0.350726 0.003979 0.350639 0.246502
H15   H     H_    0.389215 0.025142 0.194099 0.221846
H16   H     H_    0.441197 0.826564 0.233862 0.195870
H17   H     H_    0.397693 0.790624 0.379920 0.205688
H18   H     H_    0.426599 0.326026 0.781623 0.190928
H19   H     H_    0.403002 0.439806 0.901092 0.099586
H20   H     H_    0.415218 0.278533 0.084129 0.254753
H21   H     H_    0.366982 0.225084 0.957929 0.224178
H22   H     H_    0.439150 0.166699 0.963430 0.265775
H23   H     H_    0.680906 0.516007 0.281364 0.206144
H24   H     H_    0.541690 0.782013 0.142476 0.129801
H25   H     H_    0.599798 0.775632 0.021153 0.132140
H26   H     H_    0.669831 0.764374 0.204247 0.250907
H27   H     H_    0.625344 0.901738 0.216317 0.208321
H28   H     H_    0.612465 0.766823 0.326417 0.250565
H29   H     H_    0.785472 0.521496 0.280425 0.142846
H30   H     H_    0.528051 0.917856 0.552357 0.137953
H31   H     H_    0.465429 0.118566 0.302871 0.175759
H32   H     H_    0.481452 0.085843 0.607219 0.162079
H33   H     H_    0.554945 0.650396 0.870263 0.096661
H34   H     H_    0.050596 0.198415 0.566273 0.193743
N1    N     N_R   0.852382 0.510489 0.493914 -0.360919
N2    N     N_R   0.147785 0.513282 0.503428 -0.359941
N3    N     N_2   0.500610 0.501330 0.852150 0.043864
N4    N     N_2   0.500630 0.501360 0.147810 -0.199795
O1    O     O_R   0.499990 0.319060 0.613040 -0.605906
O2    O     O_R   0.583840 0.500020 0.613040 -0.612927
O3    O     O_R   0.583850 0.500060 0.386900 -0.559041
O4    O     O_2   0.851658 0.728629 0.447560 -0.548673
O5    O     O_3   0.488941 0.388123 0.911019 -0.542288
O6    O     O_3   0.585777 0.610864 0.133681 -0.592329
O7    O     O_2   0.850019 0.292169 0.539426 -0.545078
O8    O     O_2   0.148255 0.294757 0.548101 -0.552685
O9    O     O_2   0.150217 0.731730 0.458485 -0.554889
O10   O     O_R   0.500010 0.319100 0.386900 -0.603014
O11   O     O_R   0.416150 0.499940 0.613100 -0.654308
O12   O     O_R   0.416160 0.499980 0.386960 -0.637391
O13   O     O_R   0.499990 0.680900 0.613100 -0.623222
O14   O     O_R   0.500010 0.680940 0.386960 -0.615224
Zn1   Zn    Zn3+2 0.499990 0.499970 0.650990 0.971944
Zn2   Zn    Zn3+2 0.500010 0.500030 0.349010 0.969446

loop_
_geom_bond_atom_site_label_1
_geom_bond_atom_site_label_2
_ccdc_geom_bond_type
C38   H27   S    
C1    C21   S    
C41   C42   A    
C35   C36   S    
C22   H33   S    
C27   N1    A    
C10   H9    S    
C7    C8    A    
C15   H29   S    
C12   C23   A    
C26   N1    A    
C12   C28   A    
O3    Zn2   S    
C28   C29   A    
C37   C38   S    
C16   C19   S    
C5    C6    A    
C35   O5    S    
C10   C17   A    
C43   N2    A    
C37   H25   S    
C3    H5    S    
O11   Zn1   S    
C18   C19   D    
C9    N2    S    
C31   H16   S    
C2    O9    S    
N3    O5    S    
C2    N2    A    
C8    C9    A    
C25   O3    A    
C41   H3    S    
C32   H15   S    
N3    Zn1   S    
C36   H20   S    
C33   H13   S    
C38   H26   S    
C1    O10   A    
C13   C14   A    
C13   C25   S    
C32   H14   S    
C33   H10   S    
O1    Zn1   S    
C34   C39   A    
C19   H30   S    
C4    C6    S    
C39   C40   A    
C36   H22   S    
C1    O1    A    
C23   H34   S    
C31   H17   S    
C24   N4    D    
C29   C30   A    
C3    C9    A    
C31   C32   S    
C23   C34   A    
C29   C39   A    
C14   H23   S    
C20   H31   S    
C35   H18   S    
C43   O8    S    
O10   Zn2   S    
O13   Zn1   S    
C8    H8    S    
C40   C41   A    
C26   C30   A    
C22   C24   S    
O12   Zn2   S    
C11   H12   S    
C33   H11   S    
C15   C17   A    
C38   H28   S    
C16   O14   A    
C37   O6    S    
H2    N4    S    
C34   C43   A    
C7    H7    S    
C3    C5    A    
O14   Zn2   S    
C6    C7    A    
C21   H32   S    
C16   O13   A    
C32   C33   S    
C22   N3    D    
C12   H1    S    
C11   C13   A    
N4    Zn2   S    
C26   O4    S    
O2    Zn1   S    
C37   H24   S    
C17   N1    S    
C35   H19   S    
C18   C20   S    
C42   H4    S    
C27   O7    S    
C24   O6    S    
C5    H6    S    
C10   C11   A    
C4    O12   A    
C2    C40   A    
C20   C21   D    
C27   C28   A    
C25   O2    A    
C14   C15   A    
C30   C42   A    
C18   C31   S    
C36   H21   S    
C4    O11   A    
