data_mof_unit_45041.cif
_audit_creation_date              2012-12-11T16:29:28-0500
_audit_creation_method            fapswitch 2.2
_symmetry_space_group_name_H-M    P1
_symmetry_Int_Tables_number       1
_space_group_crystal_system       triclinic
_cell_length_a                    6.954416
_cell_length_b                    17.304689
_cell_length_c                    18.773178
_cell_angle_alpha                 106.326018
_cell_angle_beta                  89.374979
_cell_angle_gamma                 90.232273
_cell_volume                      2168.0116616

loop_
_atom_site_label
_atom_site_type_symbol
_atom_type_description
_atom_site_fract_x
_atom_site_fract_y
_atom_site_fract_z
_atom_type_partial_charge
O1    O     O_R   0.494360 0.415680 0.413760 -0.532843
O2    O     O_R   0.818810 0.432910 0.557230 -0.516169
O3    O     O_R   0.994290 0.584320 0.586240 -0.531371
C1    C     C_R   0.649761 0.415975 0.580632 0.721576
O4    O     O_R   0.823740 0.406440 0.412520 -0.538186
O5    O     O_R   0.999250 0.557660 0.440500 -0.527815
C2    C     C_R   0.655869 0.382646 0.385807 0.689610
O6    O     O_R   0.489400 0.442340 0.559500 -0.511134
O7    O     O_3   0.662500 0.549650 0.509350 -0.366546
V1    V     V_3+5 0.935340 0.490790 0.498270 1.454607
O8    O     O_R   0.329270 0.567090 0.442770 -0.527107
C3    C     C_R   0.161230 0.584158 0.419498 0.704059
O9    O     O_R   0.324340 0.593560 0.587480 -0.534524
C4    C     C_R   0.154651 0.615187 0.615927 0.722939
V2    V     V_3+5 0.435970 0.509210 0.501730 1.446661
O10   O     O_3   0.158940 0.450350 0.490650 -0.347840
C5    C     C_R   0.212270 0.591369 0.766845 -0.042869
C6    C     C_R   0.259817 0.583967 0.836825 -0.139382
C7    C     C_R   0.266408 0.650853 0.898018 -0.135142
C8    C     C_R   0.221362 0.726257 0.890927 -0.133181
C9    C     C_R   0.174717 0.737245 0.821279 0.067745
C10   C     C_R   0.176875 0.669313 0.756601 0.022611
C11   C     C_R   0.122393 0.814704 0.816366 -0.166956
C12   C     C_R   0.079550 0.825937 0.746449 0.069548
C13   C     C_R   0.091628 0.760240 0.681177 0.054935
C14   C     C_R   0.141280 0.682134 0.685708 -0.183724
C15   C     C_R   0.027718 0.902582 0.740091 -0.200714
C16   C     C_R   0.988839 0.914562 0.671357 -0.111050
C17   C     C_R   0.001667 0.850491 0.606294 0.186114
C18   C     C_R   0.053410 0.774269 0.611852 -0.198802
H1    H     H_    0.288355 0.525297 0.844564 0.122496
H2    H     H_    0.301934 0.643934 0.951898 0.122070
H3    H     H_    0.223068 0.775821 0.941114 0.099627
H4    H     H_    0.017264 0.954479 0.788223 0.112293
H5    H     H_    0.949704 0.974518 0.670021 0.128651
H6    H     H_    0.063072 0.725994 0.560747 0.092422
C19   C     C_1   0.111436 0.864081 0.132773 -0.216991
C20   C     C_1   0.118853 0.821634 0.176457 -0.004226
C21   C     C_1   0.128247 0.771559 0.228478 -0.006117
C22   C     C_1   0.136335 0.729333 0.272340 -0.005405
C23   C     C_1   0.145861 0.679084 0.324201 -0.008379
C24   C     C_1   0.153457 0.636380 0.367651 -0.222264
C25   C     C_1   0.641116 0.364015 0.632632 -0.177811
C26   C     C_1   0.637006 0.321380 0.676167 0.012026
C27   C     C_1   0.633823 0.271054 0.727981 0.000239
C28   C     C_1   0.631503 0.228643 0.771729 -0.000597
C29   C     C_1   0.628323 0.178310 0.823539 0.003705
C30   C     C_1   0.624193 0.135660 0.867063 -0.191341
H7    H     H_    0.683042 0.122062 0.441289 0.117131
C31   C     C_R   0.666418 0.412807 0.243455 -0.138380
C32   C     C_R   0.646743 0.431993 0.176980 -0.131392
C33   C     C_R   0.585232 0.373853 0.114413 -0.134643
C34   C     C_R   0.552983 0.294598 0.116439 -0.047525
C35   C     C_R   0.601518 0.270461 0.180820 0.026689
C36   C     C_R   0.640153 0.332915 0.247160 0.067204
C37   C     C_R   0.612697 0.188157 0.182172 -0.185748
C38   C     C_R   0.635910 0.170789 0.251289 0.072557
C39   C     C_R   0.649098 0.234483 0.318358 0.066545
C40   C     C_R   0.649701 0.315473 0.316177 -0.174165
C41   C     C_R   0.641659 0.090308 0.255347 -0.137842
C42   C     C_R   0.659002 0.073321 0.323296 -0.122372
C43   C     C_R   0.670058 0.135620 0.388653 -0.114714
C44   C     C_R   0.664966 0.215416 0.386542 -0.130447
H8    H     H_    0.704259 0.461261 0.291797 0.102581
H9    H     H_    0.668121 0.493400 0.175089 0.122943
H10   H     H_    0.551555 0.392046 0.065198 0.119919
H11   H     H_    0.631173 0.039568 0.206298 0.102946
H12   H     H_    0.662974 0.011415 0.325254 0.117137
H13   H     H_    0.675008 0.261884 0.438794 0.088013
O11   O     O_R   0.775690 0.057750 0.940570 -0.527357
O12   O     O_R   0.441200 0.093570 0.087490 -0.527782
O13   O     O_R   0.265840 0.942320 0.059480 -0.526215
C45   C     C_R   0.609055 0.119873 0.112608 0.704881
O14   O     O_R   0.446270 0.067110 0.942790 -0.510143
O15   O     O_R   0.270950 0.915660 0.913750 -0.536485
C46   C     C_R   0.615378 0.083722 0.919095 0.728000
O16   O     O_R   0.770580 0.084400 0.086300 -0.531699
O17   O     O_3   0.602640 0.950400 0.990690 -0.365468
V3    V     V_3+5 0.329740 0.009200 0.001730 1.463267
O18   O     O_R   0.940900 0.906360 0.912450 -0.536220
C47   C     C_R   0.110573 0.883948 0.884627 0.689096
O19   O     O_R   0.935830 0.932820 0.057160 -0.526733
C48   C     C_R   0.103818 0.915964 0.080615 0.706636
V4    V     V_3+5 0.829130 0.990680 0.998180 1.432542
O20   O     O_3   0.106100 0.049590 0.009310 -0.344884
C49   C     C_3   0.962373 0.859203 0.529523 -0.357931
C50   C     C_3   0.905197 0.943557 0.526774 -0.770704
H14   H     H_    0.770376 0.963026 0.558984 0.226540
H15   H     H_    0.022353 0.987272 0.548825 0.227148
H16   H     H_    0.879601 0.942751 0.468277 0.222068
H17   H     H_    0.093388 0.840855 0.494452 0.182504
H18   H     H_    0.844987 0.816931 0.504159 0.182138
C51   C     C_1   0.426759 0.248836 0.059796 0.259879
N1    N     N_1   0.319450 0.215456 0.014927 -0.323762
C52   C     C_1   0.187568 0.516000 0.710090 0.248209
N2    N     N_1   0.166771 0.454991 0.665571 -0.329410

loop_
_geom_bond_atom_site_label_1
_geom_bond_atom_site_label_2
_ccdc_geom_bond_type
C50   H14   S    
C51   N1    T    
C36   C40   A    
C31   H8    S    
C23   C24   T    
C30   C46   S    
C52   N2    T    
C12   C15   A    
O18   V4    S    
O12   V3    S    
C34   C35   A    
C26   C27   S    
C17   C18   A    
O14   C46   A    
H7    C43   S    
C16   C17   A    
O13   V3    S    
C49   H17   S    
O5    C3    A    
C20   C21   S    
V2    O10   S    
C13   C18   A    
C37   C38   A    
C6    C7    A    
C32   H9    S    
C3    C24   S    
C35   C36   A    
O8    V2    S    
C44   H13   S    
C41   H11   S    
C11   C12   A    
C5    C52   S    
O11   V4    S    
O7    V1    S    
C1    O6    A    
O1    C2    A    
O9    C4    A    
C7    H2    S    
C2    C40   S    
C5    C6    A    
C15   H4    S    
C35   C37   A    
C34   C51   S    
C32   C33   A    
C12   C13   A    
C16   H5    S    
C21   C22   T    
O4    C2    A    
C49   C50   S    
O15   C47   A    
C38   C41   A    
O16   V4    S    
C39   C40   A    
C27   C28   T    
C4    C14   S    
C41   C42   A    
O2    C1    A    
C25   C26   T    
C19   C20   T    
C29   C30   T    
C43   C44   A    
C31   C32   A    
V4    O20   S    
C17   C49   S    
O3    C4    A    
O1    V2    S    
C8    H3    S    
C22   C23   S    
O6    V2    S    
O19   V4    S    
O14   V3    S    
O9    V2    S    
O11   C46   A    
O2    V1    S    
V3    O20   S    
C33   H10   S    
C33   C34   A    
O12   C45   A    
C39   C44   A    
C28   C29   S    
C37   C45   S    
C11   C47   S    
O17   V3    S    
C5    C10   A    
O18   C47   A    
O5    V1    S    
O8    C3    A    
C1    C25   S    
C31   C36   A    
C18   H6    S    
C7    C8    A    
C9    C11   A    
C13   C14   A    
O4    V1    S    
O3    V1    S    
V1    O10   S    
C42   H12   S    
C38   C39   A    
O7    V2    S    
C42   C43   A    
O13   C48   A    
O17   V4    S    
C8    C9    A    
O19   C48   A    
C10   C14   A    
C50   H16   S    
C15   C16   A    
C50   H15   S    
C45   O16   A    
C19   C48   S    
C49   H18   S    
C6    H1    S    
C9    C10   A    
O15   V3    S    
