data_mof_unit_44616.cif
_audit_creation_date              2012-12-11T15:45:06-0500
_audit_creation_method            fapswitch 2.2
_symmetry_space_group_name_H-M    P1
_symmetry_Int_Tables_number       1
_space_group_crystal_system       triclinic
_cell_length_a                    19.21191
_cell_length_b                    11.06717
_cell_length_c                    18.744759
_cell_angle_alpha                 89.137231
_cell_angle_beta                  90.249374
_cell_angle_gamma                 89.910587
_cell_volume                      3985.04342477

loop_
_atom_site_label
_atom_site_type_symbol
_atom_type_description
_atom_site_fract_x
_atom_site_fract_y
_atom_site_fract_z
_atom_type_partial_charge
C1    C     C_R   0.760677 0.534830 0.647195 0.547962
C2    C     C_R   0.239909 0.535502 0.352355 0.560431
C3    C     C_R   0.260677 0.034829 0.647194 0.547957
C4    C     C_R   0.739909 0.035501 0.352355 0.560432
C5    C     C_R   0.828453 0.095353 0.523601 -0.151706
C6    C     C_R   0.249122 0.022712 0.450109 -0.104976
C7    C     C_R   0.328454 0.595356 0.523601 -0.151703
C8    C     C_R   0.749121 0.522714 0.450109 -0.104983
C9    C     C_R   0.822674 0.087863 0.449119 0.054168
C10   C     C_R   0.267453 0.993191 0.520239 0.084023
C11   C     C_R   0.322674 0.587866 0.449118 0.054171
C12   C     C_R   0.767451 0.493192 0.520241 0.084020
C13   C     C_3   0.627616 0.142666 0.461292 -0.259280
C14   C     C_3   0.240456 0.307969 0.576785 -0.279246
C15   C     C_3   0.127616 0.642670 0.461292 -0.259281
C16   C     C_3   0.740458 0.807968 0.576785 -0.279252
C17   C     C_3   0.636330 0.156360 0.541399 -0.260000
C18   C     C_3   0.226242 0.341216 0.499486 -0.282021
C19   C     C_3   0.136330 0.656362 0.541399 -0.260000
C20   C     C_3   0.726245 0.841215 0.499486 -0.282023
C21   C     C_R   0.769602 0.123078 0.565077 0.010615
C22   C     C_R   0.222824 0.137282 0.433728 0.004012
C23   C     C_R   0.269603 0.623080 0.565076 0.010618
C24   C     C_R   0.722823 0.637284 0.433728 0.004014
C25   C     C_R   0.997888 0.325438 0.424629 -0.033466
C26   C     C_R   0.997067 0.356073 0.572917 -0.030069
C27   C     C_R   0.497887 0.825438 0.424628 -0.033467
C28   C     C_R   0.497064 0.856073 0.572917 -0.030067
C29   C     C_R   0.039653 0.113067 0.445380 -0.103152
C30   C     C_R   0.051522 0.156105 0.590132 -0.080420
C31   C     C_R   0.539652 0.613066 0.445379 -0.103152
C32   C     C_R   0.551521 0.656105 0.590131 -0.080420
C33   C     C_R   0.063156 0.021915 0.491556 -0.126569
C34   C     C_R   0.070024 0.043906 0.563720 -0.104345
C35   C     C_R   0.563155 0.521915 0.491555 -0.126570
C36   C     C_R   0.570024 0.543907 0.563719 -0.104346
C37   C     C_R   0.023248 0.247684 0.544806 -0.001946
C38   C     C_R   0.020963 0.229284 0.470602 -0.012723
C39   C     C_R   0.523246 0.747684 0.544805 -0.001946
C40   C     C_R   0.520961 0.729283 0.470601 -0.012722
C41   C     C_R   0.975687 0.455245 0.525669 -0.020601
C42   C     C_R   0.964502 0.426378 0.452994 -0.022123
C43   C     C_R   0.475683 0.955244 0.525668 -0.020594
C44   C     C_R   0.464500 0.926378 0.452993 -0.022123
C45   C     C_R   0.777470 0.135949 0.641990 0.561872
C46   C     C_R   0.208469 0.169936 0.360830 0.553792
C47   C     C_R   0.277471 0.635950 0.641990 0.561866
C48   C     C_R   0.708469 0.669937 0.360830 0.553791
C49   C     C_R   0.959468 0.579300 0.545410 0.119817
C50   C     C_R   0.923144 0.502807 0.408256 0.097730
C51   C     C_R   0.459465 0.079299 0.545409 0.119822
C52   C     C_R   0.423143 0.002807 0.408255 0.097729
C53   C     C_R   0.924804 0.656026 0.496981 -0.135145
C54   C     C_R   0.905226 0.617264 0.430375 -0.120197
C55   C     C_R   0.424801 0.156025 0.496981 -0.135143
C56   C     C_R   0.405225 0.117264 0.430373 -0.120196
C57   C     C_R   0.761642 0.101025 0.084540 0.002926
C58   C     C_R   0.254815 0.085779 0.922785 -0.000752
C59   C     C_R   0.261642 0.601025 0.084540 0.002895
C60   C     C_R   0.754816 0.585779 0.922785 -0.000746
C61   C     C_R   0.817115 0.055332 0.045499 -0.015886
C62   C     C_R   0.192289 0.066356 0.956243 0.037737
C63   C     C_R   0.317117 0.555330 0.045499 -0.015902
C64   C     C_R   0.692290 0.566357 0.956244 0.037747
C65   C     C_R   0.825311 0.083102 0.974793 -0.041877
C66   C     C_R   0.186175 0.074002 0.028450 0.041512
C67   C     C_R   0.325315 0.583104 0.974793 -0.041914
C68   C     C_R   0.686176 0.574000 0.028451 0.041517
C69   C     C_R   0.726092 0.216156 0.979016 0.085181
C70   C     C_R   0.308356 0.112876 0.041551 0.057595
C71   C     C_R   0.226092 0.716155 0.979015 0.085178
C72   C     C_R   0.808356 0.612877 0.041552 0.057592
C73   C     C_R   0.723606 0.196891 0.054288 0.107063
C74   C     C_R   0.314156 0.114294 0.965949 0.064993
C75   C     C_R   0.223606 0.696891 0.054288 0.107052
C76   C     C_R   0.814157 0.614293 0.965949 0.064992
C77   C     C_3   0.841769 0.928648 0.036173 -0.229058
C78   C     C_3   0.123947 0.125645 0.942660 -0.270473
C79   C     C_3   0.341768 0.428645 0.036173 -0.229071
C80   C     C_3   0.623948 0.625650 0.942662 -0.270470
C81   C     C_3   0.850322 0.959340 0.958102 -0.241813
C82   C     C_3   0.117541 0.134934 0.022815 -0.235535
C83   C     C_3   0.350322 0.459339 0.958102 -0.241834
C84   C     C_3   0.617542 0.634933 0.022818 -0.235526
C85   C     C_R   0.777866 0.154903 0.937929 -0.026757
C86   C     C_R   0.242431 0.097945 0.072757 0.012933
C87   C     C_R   0.277866 0.654904 0.937929 -0.026757
C88   C     C_R   0.742432 0.597943 0.072758 0.012937
C89   C     C_R   0.969517 0.350046 0.646094 0.527929
C90   C     C_R   0.030681 0.343427 0.354111 0.560521
C91   C     C_R   0.469516 0.850046 0.646094 0.527922
C92   C     C_R   0.530680 0.843427 0.354111 0.560521
C93   C     C_R   0.000267 0.345542 0.076195 0.021133
C94   C     C_R   0.989879 0.332384 0.927395 0.023346
C95   C     C_R   0.500270 0.845541 0.076194 0.021133
C96   C     C_R   0.489876 0.832384 0.927396 0.023260
C97   C     C_R   0.015846 0.443490 0.031696 0.051971
C98   C     C_R   0.011978 0.435358 0.959622 0.071719
C99   C     C_R   0.515848 0.943490 0.031695 0.051965
C100  C     C_R   0.511975 0.935357 0.959622 0.071652
C101  C     C_R   0.967289 0.235081 0.970827 -0.163016
C102  C     C_R   0.971635 0.241784 0.045616 -0.160671
C103  C     C_R   0.467288 0.735079 0.970828 -0.162986
C104  C     C_R   0.471637 0.741782 0.045616 -0.160655
C105  C     C_3   0.079589 0.520491 0.026288 0.012667
C106  C     C_3   0.074696 0.509193 0.945557 -0.014432
C107  C     C_3   0.579588 0.020499 0.026280 0.012756
C108  C     C_3   0.574685 0.009207 0.945550 -0.014445
C109  C     C_R   0.761432 0.533366 0.851872 0.553601
C110  C     C_R   0.241166 0.536042 0.149700 0.551517
C111  C     C_R   0.261432 0.033367 0.851872 0.553609
C112  C     C_R   0.741166 0.036042 0.149700 0.551520
C113  C     C_R   0.789088 0.169640 0.860404 0.563492
C114  C     C_R   0.226660 0.129136 0.146159 0.596906
C115  C     C_R   0.289088 0.669638 0.860404 0.563546
C116  C     C_R   0.726660 0.629135 0.146160 0.596907
C117  C     C_R   0.968388 0.345061 0.854172 0.538515
C118  C     C_R   0.029197 0.347677 0.147303 0.562058
C119  C     C_R   0.468387 0.845061 0.854173 0.538443
C120  C     C_R   0.529198 0.847677 0.147302 0.562056
C121  C     C_R   0.756633 0.102464 0.416507 0.051099
C122  C     C_R   0.252693 0.075403 0.574903 0.061614
C123  C     C_R   0.256634 0.602465 0.416506 0.051099
C124  C     C_R   0.752691 0.575405 0.574904 0.061617
C125  C     C_R   0.704685 0.158454 0.456007 -0.016427
C126  C     C_R   0.218374 0.182919 0.559095 -0.017563
C127  C     C_R   0.204684 0.658453 0.456007 -0.016421
C128  C     C_R   0.718374 0.682922 0.559096 -0.017567
C129  C     C_R   0.711691 0.168895 0.528721 0.038903
C130  C     C_R   0.204771 0.214303 0.488673 -0.007840
C131  C     C_R   0.211691 0.668892 0.528720 0.038904
C132  C     C_R   0.704772 0.714306 0.488673 -0.007840
Cr1   Cr    Cr6+3 0.885860 0.491680 0.749630 1.085632
Cr2   Cr    Cr6+3 0.114140 0.491680 0.250370 1.052884
Cr3   Cr    Cr6+3 0.385860 0.991680 0.749630 1.085629
Cr4   Cr    Cr6+3 0.614140 0.991680 0.250370 1.052885
Cr5   Cr    Cr6+3 0.730490 0.332970 0.748720 1.068452
Cr6   Cr    Cr6+3 0.269510 0.332970 0.251280 1.060124
Cr7   Cr    Cr6+3 0.230490 0.832970 0.748720 1.068449
Cr8   Cr    Cr6+3 0.769510 0.832970 0.251280 1.060125
Cr9   Cr    Cr6+3 0.887570 0.179310 0.750150 1.027362
Cr10  Cr    Cr6+3 0.112430 0.179310 0.249850 1.033311
Cr11  Cr    Cr6+3 0.387570 0.679310 0.750150 1.027355
Cr12  Cr    Cr6+3 0.612430 0.679310 0.249850 1.033311
H1    H     H_    0.878428 0.076832 0.548504 0.158156
H2    H     H_    0.258141 0.958673 0.408114 0.163387
H3    H     H_    0.378429 0.576838 0.548503 0.158154
H4    H     H_    0.758141 0.458675 0.408114 0.163385
H5    H     H_    0.911976 0.748024 0.510963 0.131206
H6    H     H_    0.876266 0.677588 0.395444 0.167435
H7    H     H_    0.411972 0.248023 0.510962 0.131206
H8    H     H_    0.376265 0.177589 0.395443 0.167437
H9    H     H_    0.800067 0.861163 0.046143 0.165563
H10   H     H_    0.085085 0.063735 0.918873 0.176402
H11   H     H_    0.300063 0.361162 0.046141 0.165534
H12   H     H_    0.585086 0.563745 0.918872 0.176399
H13   H     H_    0.892052 0.911306 0.064058 0.183479
H14   H     H_    0.129337 0.213308 0.914218 0.165624
H15   H     H_    0.392051 0.411300 0.064058 0.183494
H16   H     H_    0.629341 0.713316 0.914224 0.165543
H17   H     H_    0.905463 0.958444 0.940555 0.174336
H18   H     H_    0.120178 0.229423 0.041690 0.136235
H19   H     H_    0.405464 0.458440 0.940556 0.174352
H20   H     H_    0.620180 0.729420 0.041695 0.136240
H21   H     H_    0.813344 0.909738 0.923347 0.178673
H22   H     H_    0.075786 0.077094 0.045728 0.178407
H23   H     H_    0.313342 0.409741 0.923346 0.178634
H24   H     H_    0.575787 0.577091 0.045728 0.178403
H25   H     H_    0.949243 0.153356 0.946666 0.144871
H26   H     H_    0.958725 0.163603 0.078340 0.140229
H27   H     H_    0.449242 0.653351 0.946667 0.144875
H28   H     H_    0.458727 0.663601 0.078341 0.140228
H29   H     H_    0.126760 0.478986 0.051000 0.162215
H30   H     H_    0.061309 0.590714 0.913525 0.214946
H31   H     H_    0.626764 0.978998 0.050984 0.162286
H32   H     H_    0.561286 0.090725 0.913519 0.214950
H33   H     H_    0.109265 0.551557 0.446077 0.160583
H34   H     H_    0.796433 0.813928 0.591769 0.160042
H35   H     H_    0.609267 0.051552 0.446078 0.160581
H36   H     H_    0.296433 0.313931 0.591768 0.160041
H37   H     H_    0.598608 0.218835 0.435756 0.151251
H38   H     H_    0.203939 0.351811 0.614320 0.141051
H39   H     H_    0.098610 0.718842 0.435756 0.151249
H40   H     H_    0.703942 0.851811 0.614320 0.141052
H41   H     H_    0.615302 0.243130 0.560888 0.176872
H42   H     H_    0.181807 0.403945 0.492360 0.130947
H43   H     H_    0.115304 0.743131 0.560890 0.176873
H44   H     H_    0.681812 0.903947 0.492360 0.130948
H45   H     H_    0.623513 0.073339 0.572796 0.153175
H46   H     H_    0.274182 0.362966 0.469224 0.161184
H47   H     H_    0.123512 0.573339 0.572795 0.153174
H48   H     H_    0.774184 0.862962 0.469224 0.161184
H49   H     H_    0.076282 0.933917 0.471079 0.120683
H50   H     H_    0.089811 0.973974 0.599329 0.153884
H51   H     H_    0.576283 0.433917 0.471078 0.120684
H52   H     H_    0.589812 0.473975 0.599328 0.153884
H53   H     H_    0.031688 0.086098 0.391021 0.161630
H54   H     H_    0.060249 0.170931 0.646390 0.127443
H55   H     H_    0.531686 0.586098 0.391020 0.161630
H56   H     H_    0.560248 0.670931 0.646389 0.127440
O1    O     O_R   0.957020 0.451640 0.669920 -0.479675
O2    O     O_R   0.042980 0.451640 0.330080 -0.487401
O3    O     O_R   0.457020 0.951640 0.669920 -0.479675
O4    O     O_R   0.542980 0.951640 0.330080 -0.487401
O5    O     O_R   0.736470 0.210100 0.823360 -0.467608
O6    O     O_R   0.263530 0.210100 0.176640 -0.471832
O7    O     O_R   0.236470 0.710100 0.823360 -0.467587
O8    O     O_R   0.763530 0.710100 0.176640 -0.471832
O9    O     O_R   0.831960 0.093290 0.830130 -0.512092
O10   O     O_R   0.168040 0.093290 0.169870 -0.484268
O11   O     O_R   0.331960 0.593290 0.830130 -0.512092
O12   O     O_R   0.668040 0.593290 0.169870 -0.484271
O13   O     O_R   0.945600 0.250580 0.824860 -0.529958
O14   O     O_R   0.054400 0.250580 0.175140 -0.514057
O15   O     O_R   0.445600 0.750580 0.824860 -0.529950
O16   O     O_R   0.554400 0.750580 0.175140 -0.514058
O17   O     O_3   0.834640 0.334650 0.749500 -0.291316
O18   O     O_3   0.165360 0.334650 0.250500 -0.302674
O19   O     O_3   0.334640 0.834650 0.749500 -0.291321
O20   O     O_3   0.665360 0.834650 0.250500 -0.302673
O21   O     O_R   0.821450 0.543440 0.674610 -0.488762
O22   O     O_R   0.178550 0.543440 0.325390 -0.511657
O23   O     O_R   0.321450 0.043440 0.674610 -0.488765
O24   O     O_R   0.678550 0.043440 0.325390 -0.511657
O25   O     O_R   0.715320 0.458650 0.668100 -0.514121
O26   O     O_R   0.284680 0.458650 0.331900 -0.485241
O27   O     O_R   0.215320 0.958650 0.668100 -0.514124
O28   O     O_R   0.784680 0.958650 0.331900 -0.485242
O29   O     O_R   0.737170 0.209590 0.674530 -0.474150
O30   O     O_R   0.262830 0.209590 0.325470 -0.490201
O31   O     O_R   0.237170 0.709590 0.674530 -0.474159
O32   O     O_R   0.762830 0.709590 0.325470 -0.490200
O33   O     O_R   0.832710 0.092740 0.669580 -0.517640
O34   O     O_R   0.167290 0.092740 0.330420 -0.505904
O35   O     O_R   0.332710 0.592740 0.669580 -0.517641
O36   O     O_R   0.667290 0.592740 0.330420 -0.505903
O37   O     O_R   0.946290 0.250060 0.676040 -0.509906
O38   O     O_R   0.053710 0.250060 0.323960 -0.530265
O39   O     O_R   0.446290 0.750060 0.676040 -0.509910
O40   O     O_R   0.553710 0.750060 0.323960 -0.530266
O41   O     O_R   0.956270 0.452200 0.830470 -0.473613
O42   O     O_R   0.043730 0.452200 0.169530 -0.495928
O43   O     O_R   0.456270 0.952200 0.830470 -0.473613
O44   O     O_R   0.543730 0.952200 0.169530 -0.495932
O45   O     O_R   0.820760 0.543950 0.823440 -0.471094
O46   O     O_R   0.179240 0.543950 0.176560 -0.486520
O47   O     O_R   0.320760 0.043950 0.823440 -0.471088
O48   O     O_R   0.679240 0.043950 0.176560 -0.486524
O49   O     O_R   0.714570 0.459210 0.828640 -0.491601
O50   O     O_R   0.285430 0.459210 0.171360 -0.511829
O51   O     O_R   0.214570 0.959210 0.828640 -0.491601
O52   O     O_R   0.785430 0.959210 0.171360 -0.511834
I1    I     I_    0.637642 0.301206 0.931504 -0.343479
I2    I     I_    0.396779 0.132023 0.109573 -0.337003
I3    I     I_    0.137642 0.801206 0.931504 -0.343463
I4    I     I_    0.896780 0.632027 0.109574 -0.337010
I5    I     I_    0.670578 0.313939 0.125227 -0.288017
I6    I     I_    0.408238 0.181580 0.919673 -0.378487
I7    I     I_    0.170578 0.813940 0.125227 -0.288009
I8    I     I_    0.908240 0.681576 0.919674 -0.378480
N1    N     N_3   0.065737 0.642807 0.050383 -0.575076
H57   H     H_    0.054582 0.640417 0.104751 0.300661
H58   H     H_    0.022723 0.680259 0.024069 0.286231
N2    N     N_3   0.131592 0.438438 0.916136 -0.684814
H59   H     H_    0.177183 0.488616 0.921037 0.252060
H60   H     H_    0.122398 0.429919 0.861413 0.242671
N3    N     N_3   0.565735 0.142811 0.050381 -0.575083
H61   H     H_    0.554582 0.140415 0.104749 0.300654
H62   H     H_    0.522720 0.180264 0.024070 0.286229
N4    N     N_3   0.631587 0.938476 0.916121 -0.684815
H63   H     H_    0.677123 0.988833 0.920811 0.252199
H64   H     H_    0.622285 0.929654 0.861445 0.242555
N5    N     N_3   0.881594 0.053340 0.407721 -0.594144
H65   H     H_    0.912503 0.992429 0.437017 0.223934
H66   H     H_    0.909602 0.131804 0.396561 0.242948
N6    N     N_3   0.302260 0.881292 0.536013 -0.607511
H67   H     H_    0.346870 0.899731 0.565592 0.241301
H68   H     H_    0.319955 0.843012 0.488786 0.229062
N7    N     N_3   0.381595 0.553340 0.407720 -0.594149
H69   H     H_    0.412506 0.492438 0.437018 0.223934
H70   H     H_    0.409600 0.631805 0.396555 0.242950
N8    N     N_3   0.802259 0.381294 0.536015 -0.607491
H71   H     H_    0.846877 0.399744 0.565580 0.241294
H72   H     H_    0.819945 0.343005 0.488786 0.229056
I9    I     I_    0.878561 0.447789 0.308957 -0.306771
I10   I     I_    0.990583 0.688961 0.635138 -0.393109
I11   I     I_    0.378561 0.947790 0.308954 -0.306766
I12   I     I_    0.490582 0.188960 0.635136 -0.393105

loop_
_geom_bond_atom_site_label_1
_geom_bond_atom_site_label_2
_ccdc_geom_bond_type
C53   H5    S    
C52   I11   S    
C2    C123  S    
C76   I8    S    
C109  O49   A    
N8    H71   S    
C6    H2    S    
C94   C117  S    
C73   I5    S    
C29   C33   A    
C1    O21   A    
Cr3   O43   S    
Cr6   O26   S    
Cr8   O20   S    
C70   C74   A    
C9    C121  A    
C80   H12   S    
C7    H3    S    
C97   C105  S    
C34   H50   S    
C15   C127  S    
C22   C130  A    
C20   C132  S    
C41   C49   A    
C14   H38   S    
C47   O35   A    
Cr1   O1    S    
Cr8   O28   S    
C90   O38   A    
Cr11  O39   S    
C51   I12   S    
C23   C47   S    
C62   C66   A    
Cr3   O3    S    
C60   C76   A    
C93   C102  A    
C43   C44   A    
C20   H48   S    
C37   C38   A    
C84   H24   S    
C66   C82   S    
C78   C82   S    
C16   C20   S    
C106  N2    S    
C117  O13   A    
N4    H64   S    
C18   C130  S    
Cr9   O9    S    
C124  C128  A    
C2    O26   A    
Cr11  O15   S    
C18   H46   S    
C10   C122  A    
C98   C106  S    
C16   H40   S    
C57   C61   A    
Cr3   O23   S    
C59   C63   A    
C14   C126  S    
C60   C64   A    
C1    C124  S    
C13   H35   S    
C49   C53   A    
C51   C55   A    
N7    H70   S    
C127  C131  A    
C79   H11   S    
C61   C65   A    
C5    C21   A    
C32   H56   S    
Cr5   O17   S    
C126  C130  A    
Cr7   O31   S    
Cr2   O46   S    
C14   H36   S    
C19   H47   S    
C90   O2    A    
C102  H26   S    
C67   C83   S    
C70   I2    S    
C97   C98   A    
C54   H6    S    
C53   C54   A    
C5    C9    A    
C25   C90   S    
C64   C68   A    
C9    N5    S    
Cr12  O20   S    
C108  N4    S    
N1    H57   S    
Cr12  O40   S    
C57   C73   A    
Cr10  O18   S    
Cr5   O25   S    
C60   C109  S    
C77   H9    S    
C27   C44   A    
C78   H14   S    
C61   C77   S    
N2    H59   S    
Cr2   O22   S    
C29   C38   A    
C107  C108  S    
C19   H43   S    
C44   C52   A    
C109  O45   A    
C105  H29   S    
C103  H27   S    
C16   H34   S    
N5    H65   S    
C21   C45   S    
C74   I6    S    
C49   I10   S    
C100  C108  S    
C5    H1    S    
C30   C34   A    
C24   C48   S    
Cr3   O47   S    
Cr6   O30   S    
C88   C116  S    
C39   C40   A    
Cr12  O16   S    
C82   H18   S    
C83   H23   S    
C113  O5    A    
C36   H52   S    
C121  C125  A    
C125  C129  A    
C25   C38   A    
C20   H44   S    
C123  C127  A    
Cr4   O24   S    
C27   C40   A    
C8    C12   A    
C21   C129  A    
C23   C131  A    
C101  H25   S    
C71   I3    S    
C116  O8    A    
Cr7   O7    S    
C42   C50   A    
Cr9   O33   S    
C30   H54   S    
C75   I7    S    
C13   H37   S    
C46   O34   A    
C50   I9    S    
C93   C97   A    
C69   C85   A    
C58   C74   A    
C92   O40   A    
C3    O23   A    
C87   C115  S    
C62   C78   S    
C10   N6    S    
Cr6   O50   S    
C66   C86   A    
N3    H61   S    
C32   C36   A    
N8    H72   S    
C115  O11   A    
C15   H33   S    
C113  O9    A    
C7    C23   A    
C96   C100  A    
C8    C24   A    
C28   C91   S    
Cr11  O19   S    
Cr7   O19   S    
N6    H67   S    
C111  O47   A    
C118  O42   A    
Cr1   O45   S    
C58   C62   A    
C55   C56   A    
C101  C102  A    
C46   O30   A    
C41   C42   A    
C96   C119  S    
C35   C36   A    
Cr8   O52   S    
C80   C84   S    
C31   H55   S    
Cr6   O6    S    
C110  O50   A    
C15   C19   S    
C50   C54   A    
C45   O33   A    
C79   H15   S    
C80   H16   S    
C94   C98   A    
C95   C99   A    
C6    C22   A    
C2    O22   A    
C31   C40   A    
Cr4   O48   S    
Cr7   O27   S    
C32   C39   A    
Cr2   O42   S    
Cr9   O17   S    
C17   H41   S    
C15   H39   S    
Cr1   O21   S    
N7    H69   S    
C69   C73   A    
C56   H8    S    
C92   O4    A    
C35   H51   S    
C104  H28   S    
C33   H49   S    
C64   C80   S    
C8    H4    S    
C72   I4    S    
Cr8   O8    S    
C11   N7    S    
Cr12  O36   S    
C58   C111  S    
C68   C84   S    
C89   O37   A    
Cr10  O14   S    
Cr5   O29   S    
C78   H10   S    
C63   C79   S    
C28   C39   A    
Cr2   O18   S    
C30   C37   A    
C24   C132  A    
C65   C81   S    
C77   C81   S    
C106  H30   S    
C118  O14   A    
C71   C87   A    
C22   C46   S    
Cr8   O32   S    
C31   C35   A    
C3    O27   A    
Cr12  O12   S    
C82   H22   S    
C1    O25   A    
Cr10  O38   S    
C83   H19   S    
C81   H17   S    
C11   C123  A    
C25   C42   A    
C6    C10   A    
Cr5   O49   S    
C26   C37   A    
Cr4   O20   S    
C13   C17   S    
C95   C120  S    
C99   C107  S    
C105  C106  S    
C28   C43   A    
C116  O12   A    
C79   C83   S    
N3    H62   S    
C43   C51   A    
C107  H31   S    
C108  H32   S    
C85   C113  S    
C4    C121  S    
C4    O28   A    
N2    H60   S    
C96   C103  A    
C103  C104  A    
N4    H63   S    
C13   C125  S    
C91   O3    A    
C89   O1    A    
C119  O15   A    
C115  O7    A    
C14   C18   S    
C72   C76   A    
C112  O52   A    
C69   I1    S    
Cr5   O5    S    
C26   C89   S    
C7    C11   A    
C57   C112  S    
C47   O31   A    
C111  O51   A    
C59   C110  S    
C120  O44   A    
Cr11  O35   S    
Cr1   O41   S    
C94   C101  A    
N5    H66   S    
C84   H20   S    
C3    C122  S    
C110  O46   A    
C45   O29   A    
C128  C132  A    
C72   C88   A    
Cr2   O2    S    
C19   C131  S    
C63   C67   A    
Cr4   O44   S    
C17   C129  S    
Cr9   O13   S    
N1    H58   S    
Cr11  O11   S    
C17   H45   S    
C4    O24   A    
C18   H42   S    
Cr1   O17   S    
C114  O6    A    
C122  C126  A    
C99   C100  A    
C12   C124  A    
Cr3   O19   S    
C33   C34   A    
C27   C92   S    
C16   C128  S    
C77   H13   S    
C48   O36   A    
N6    H68   S    
C29   H53   S    
C107  N3    S    
C68   C88   A    
C93   C118  S    
Cr10  O10   S    
C70   C86   A    
C59   C75   A    
Cr4   O4    S    
C95   C104  A    
C55   H7    S    
C112  O48   A    
Cr9   O37   S    
Cr7   O51   S    
C65   C85   A    
C120  O16   A    
C67   C87   A    
C86   C114  S    
C114  O10   A    
C71   C75   A    
C48   O32   A    
Cr10  O34   S    
Cr6   O18   S    
C105  N1    S    
C91   O39   A    
C81   H21   S    
C119  O43   A    
C52   C56   A    
C26   C41   A    
C12   N8    S    
C117  O41   A    
