data_mof_unit_67786.cif
_audit_creation_date              2013-03-05T15:41:21-0500
_audit_creation_method            fapswitch 2.2
_symmetry_space_group_name_H-M    P1
_symmetry_Int_Tables_number       1
_space_group_crystal_system       triclinic
_cell_length_a                    7.993486
_cell_length_b                    9.079545
_cell_length_c                    11.222347
_cell_angle_alpha                 93.826998
_cell_angle_beta                  84.305452
_cell_angle_gamma                 93.152874
_cell_volume                      807.699438102

loop_
_atom_site_label
_atom_site_type_symbol
_atom_site_description
_atom_site_fract_x
_atom_site_fract_y
_atom_site_fract_z
_atom_type_partial_charge
O1    O     O_R   0.389250 0.738570 0.508370 -0.586833
O2    O     O_R   0.678390 0.711620 0.486510 -0.511469
C1    C     C_R   0.543949 0.792277 0.486400 0.959227
O3    O     O_R   0.355430 0.513500 0.696140 -0.608082
O4    O     O_R   0.644580 0.486550 0.674270 -0.539744
C2    C     C_R   0.498383 0.493646 0.741637 1.093717
Zn1   Zn    Zn3+2 0.306940 0.517990 0.514600 1.152694
Zn2   Zn    Zn3+2 0.693060 0.482010 0.485400 1.179003
O5    O     O_R   0.321610 0.288380 0.513490 -0.621530
O6    O     O_R   0.610750 0.261430 0.491630 -0.655428
O7    O     O_R   0.355420 0.513450 0.325730 -0.627801
O8    O     O_R   0.644570 0.486500 0.303860 -0.539603
C3    C     C_R   0.455608 0.207004 0.492051 1.013118
C4    C     C_R   0.499928 0.495704 0.258036 0.941129
C5    C     C_3   0.341556 0.585374 0.943494 0.147848
C6    C     C_3   0.330895 0.567235 0.086554 -0.372802
C7    C     C_3   0.486001 0.317757 0.918303 0.071097
C8    C     C_3   0.657787 0.566214 0.922143 -0.300430
C9    C     C_3   0.493065 0.487839 0.879107 -0.384132
H1    H     H_    0.769457 0.510927 0.880673 0.261438
H2    H     H_    0.678913 0.677708 0.890131 0.307913
C10   C     C_3   0.498225 0.488781 0.120825 -0.392287
C11   C     C_3   0.515462 0.318151 0.063374 0.453167
C12   C     C_3   0.659758 0.572644 0.059576 0.187283
H3    H     H_    0.768556 0.512451 0.073627 0.228552
C13   C     C_2   0.564341 0.951224 0.459105 -0.300806
C14   C     C_2   0.432052 0.044244 0.482316 -0.310511
N1    N     N_2   0.950330 0.457950 0.465890 -0.092330
N2    N     N_2   0.049670 0.542050 0.534110 0.094656
C15   C     C_2   0.168162 0.543258 0.898038 0.469059
H4    H     H_    0.143154 0.449068 0.838089 0.130005
O9    O     O_2   0.046686 0.614005 0.934190 -0.482319
S1    S     S_3+6 0.639837 0.204335 0.818562 0.139989
O10   O     O_2   0.801566 0.287395 0.780308 -0.221170
O11   O     O_2   0.681000 0.064864 0.869914 -0.121707
O12   O     O_3   0.563725 0.141054 0.693662 -0.564527
H5    H     H_    0.653692 0.078369 0.654770 0.385048
S2    S     S_3+6 0.729013 0.245694 0.084305 0.097552
O13   O     O_2   0.718439 0.081167 0.079498 -0.111910
O14   O     O_2   0.866462 0.291763 0.991675 -0.339949
O15   O     O_3   0.806603 0.292320 0.214268 -0.561100
H6    H     H_    0.913795 0.241678 0.207340 0.381686
C16   C     C_2   0.725409 0.004471 0.392143 0.608264
H7    H     H_    0.736254 0.108486 0.352551 0.136664
O16   O     O_2   0.844343 0.927179 0.367399 -0.419816
C17   C     C_2   0.254824 0.991975 0.484689 0.590347
H8    H     H_    0.165073 0.032008 0.556413 0.147053
O17   O     O_2   0.206210 0.915152 0.400411 -0.491947
C18   C     C_2   0.984508 0.307098 0.465942 0.624934
H9    H     H_    0.008911 0.241705 0.383652 0.068285
O18   O     O_2   0.975471 0.246650 0.560328 -0.555876
S3    S     S_3+6 0.992650 0.703449 0.613773 0.200987
O19   O     O_2   0.954004 0.816450 0.532890 -0.234614
O20   O     O_2   0.848434 0.683944 0.706153 -0.266228
O21   O     O_3   0.154470 0.771331 0.686403 -0.488442
H10   H     H_    0.125189 0.873808 0.712467 0.388968
S4    S     S_3+6 0.381825 0.780366 0.901698 0.120845
O22   O     O_2   0.221251 0.860496 0.910808 -0.183723
O23   O     O_2   0.496264 0.862220 0.983217 -0.166283
O24   O     O_3   0.474979 0.792753 0.761679 -0.549766
H11   H     H_    0.444926 0.889611 0.737200 0.402679
C19   C     C_2   0.304350 0.715367 0.158269 0.836529
H12   H     H_    0.364368 0.743464 0.238656 0.064423
O25   O     O_2   0.191688 0.793536 0.139897 -0.432410
C20   C     C_2   0.169151 0.478405 0.128707 0.563261
H13   H     H_    0.123566 0.386002 0.076411 0.076341
O26   O     O_2   0.084234 0.508549 0.222942 -0.489361
C21   C     C_2   0.315067 0.247438 0.887996 0.427337
H14   H     H_    0.210961 0.230648 0.953056 0.127423
O27   O     O_2   0.283102 0.218125 0.784669 -0.515540
S5    S     S_3+6 0.372855 0.186508 0.150419 0.027936
O28   O     O_2   0.237093 0.252177 0.234199 -0.395309
O29   O     O_2   0.293631 0.067883 0.072957 -0.235186
O30   O     O_3   0.481189 0.100795 0.240767 -0.525369
H15   H     H_    0.416264 0.006366 0.250334 0.414664
S6    S     S_3+6 0.750730 0.741200 0.123664 0.118363
O31   O     O_2   0.623952 0.838211 0.187859 -0.342414
O32   O     O_2   0.866792 0.702804 0.212432 -0.167022
O33   O     O_3   0.862814 0.834531 0.015733 -0.380922
H16   H     H_    0.943471 0.900414 0.058041 0.447217

loop_
_geom_bond_atom_site_label_1
_geom_bond_atom_site_label_2
_geom_bond_distance
_ccdc_geom_bond_type
S2    O14   1.497852 D    
O21   H10   0.990007 S    
Zn1   N2    2.068445 S    
C8    H2    1.095468 S    
O15   H6    0.988427 S    
S6    O33   1.681083 S    
C5    C9    1.622333 S    
C2    C9    1.543445 S    
C13   C14   1.383318 D    
C7    C11   1.667682 S    
C6    C19   1.534501 S    
C8    C12   1.541138 S    
N1    N2    1.332538 D    
S6    O32   1.496648 D    
C15   H4    1.074723 S    
O7    C4    1.329432 A    
S4    O23   1.492176 D    
C5    C6    1.618185 S    
S1    O12   1.639591 S    
C8    C9    1.565434 S    
O5    C3    1.327878 A    
C19   O25   1.218173 D    
C7    C9    1.630220 S    
C21   H14   1.062618 S    
C20   O26   1.222038 D    
S3    O21   1.664887 S    
C5    S4    1.864477 S    
C7    S1    1.880911 S    
O3    Zn1   2.114722 S    
S3    O20   1.483228 D    
C13   C16   1.498033 S    
S2    O13   1.489245 D    
C17   O17   1.219474 D    
O30   H15   0.983998 S    
C11   S5    1.862071 S    
C12   H3    1.082077 S    
S2    O15   1.661110 S    
O3    C2    1.322752 A    
S5    O29   1.491985 D    
C12   S6    1.795181 S    
S4    O24   1.678806 S    
C18   O18   1.219214 D    
O24   H11   0.987498 S    
O1    C1    1.310316 A    
Zn1   O7    2.114596 S    
C16   H7    1.065928 S    
C19   H12   1.072749 S    
S5    O30   1.654474 S    
N1    C18   1.411359 S    
Zn2   O8    2.114721 S    
S1    O10   1.500045 D    
S6    O31   1.480004 D    
C16   O16   1.211778 D    
C14   C17   1.467360 S    
C21   O27   1.221005 D    
O8    C4    1.320068 A    
C20   H13   1.060277 S    
Zn2   N1    2.068445 S    
C10   C12   1.582742 S    
S3    O19   1.478800 D    
C5    C15   1.543850 S    
Zn1   O5    2.093619 S    
C17   H8    1.081543 S    
O12   H5    0.990541 S    
C7    C21   1.535426 S    
C6    C10   1.639454 S    
O1    Zn1   2.076889 S    
C1    C13   1.492097 S    
O2    Zn2   2.093619 S    
O6    C3    1.309145 A    
O4    Zn2   2.114597 S    
C11   S2    1.904106 S    
C4    C10   1.538297 S    
O2    C1    1.333472 A    
S5    O28   1.486960 D    
C15   O9    1.214796 D    
S4    O22   1.501337 D    
O4    C2    1.329599 A    
S1    O11   1.491592 D    
C8    H1    1.095920 S    
O33   H16   0.989621 S    
Zn2   O6    2.076888 S    
C18   H9    1.071072 S    
C10   C11   1.645396 S    
C3    C14   1.477552 S    
C6    C20   1.536462 S    
N2    S3    1.724009 S    
