data_mof_unit_44189.cif
_audit_creation_date              2012-12-10T18:08:20-0500
_audit_creation_method            fapswitch 2.2
_symmetry_space_group_name_H-M    P1
_symmetry_Int_Tables_number       1
_space_group_crystal_system       triclinic
_cell_length_a                    12.623712
_cell_length_b                    12.98877
_cell_length_c                    14.161049
_cell_angle_alpha                 90.438926
_cell_angle_beta                  102.159267
_cell_angle_gamma                 83.274722
_cell_volume                      2253.88240184

loop_
_atom_site_label
_atom_site_type_symbol
_atom_type_description
_atom_site_fract_x
_atom_site_fract_y
_atom_site_fract_z
_atom_type_partial_charge
C1    C     C_R   0.439088 0.692463 0.492559 0.842265
C2    C     C_R   0.524762 0.042109 0.581916 0.063661
C3    C     C_R   0.629069 0.996796 0.628528 0.117888
C4    C     C_R   0.501170 0.500339 0.670720 0.856696
C5    C     C_R   0.643808 0.892512 0.655738 -0.235572
C6    C     C_R   0.560225 0.831678 0.623183 -0.199659
C7    C     C_R   0.504517 0.149966 0.580629 0.000680
C8    C     C_R   0.699799 0.161169 0.614799 0.086483
C9    C     C_R   0.399913 0.804337 0.494105 -0.171899
C10   C     C_R   0.088492 0.347610 0.365340 -0.319701
C11   C     C_R   0.800314 0.627738 0.612971 0.029362
C12   C     C_1   0.496759 0.499003 0.227328 -0.217226
C13   C     C_R   0.903850 0.658697 0.636547 -0.255746
C14   C     C_R   0.984328 0.612714 0.591236 -0.192139
C15   C     C_R   0.961147 0.534592 0.522322 0.003662
C16   C     C_R   0.559959 0.310278 0.525318 0.855870
C17   C     C_R   0.853519 0.507261 0.499567 0.228815
C18   C     C_R   0.040562 0.481234 0.476926 -0.019266
C19   C     C_R   0.010557 0.403252 0.408679 0.198420
C20   C     C_R   0.903628 0.379987 0.385834 -0.287113
C21   C     C_R   0.826542 0.430418 0.431739 -0.202912
C22   C     C_R   0.149806 0.500486 0.497717 -0.057531
C23   C     C_R   0.715254 0.057441 0.648176 -0.242507
C24   C     C_R   0.195219 0.369704 0.389843 -0.002623
C25   C     C_R   0.498812 0.499683 0.329300 0.897123
C26   C     C_1   0.503377 0.500307 0.772691 -0.216142
C27   C     C_1   0.503017 0.499911 0.857921 -0.017712
C28   C     C_1   0.501094 0.499362 0.957543 -0.000008
C29   C     C_1   0.499085 0.499006 0.042456 0.002369
C30   C     C_1   0.497158 0.498837 0.142090 -0.012202
C31   C     C_3   0.799539 0.218750 0.635131 -0.397895
C32   C     C_3   0.872996 0.188705 0.563416 -0.330639
C33   C     C_3   0.983167 0.229978 0.594613 -0.876355
C34   C     C_R   0.591386 0.206318 0.572621 -0.156931
C35   C     C_3   0.406894 0.202980 0.618751 -0.355810
C36   C     C_3   0.378701 0.142252 0.701176 -0.370324
C37   C     C_3   0.294859 0.207102 0.747310 -0.884254
C38   C     C_3   0.220239 0.778090 0.374968 -0.372479
C39   C     C_3   0.116914 0.832888 0.308749 -0.404633
C40   C     C_3   0.043522 0.754204 0.259127 -0.849310
C41   C     C_R   0.300216 0.847534 0.431827 0.092483
C42   C     C_R   0.278628 0.955863 0.421637 -0.154560
C43   C     C_R   0.352136 0.019642 0.469736 -0.239062
C44   C     C_R   0.446069 0.978696 0.536616 0.084073
C45   C     C_R   0.467917 0.870567 0.552003 0.068968
H1    H     H_    0.880136 0.320184 0.334422 0.151260
H2    H     H_    0.032903 0.211277 0.539390 0.255202
H3    H     H_    0.887883 0.102908 0.558833 0.219699
H4    H     H_    0.831769 0.219880 0.490508 0.226970
H5    H     H_    0.779765 0.303752 0.636540 0.228455
H6    H     H_    0.845992 0.197595 0.709645 0.191744
H7    H     H_    0.738022 0.661672 0.649174 0.127411
H8    H     H_    0.063394 0.639434 0.612238 0.136585
H9    H     H_    0.921805 0.717645 0.690105 0.143210
H10   H     H_    0.719585 0.858055 0.701173 0.136114
H11   H     H_    0.795677 0.022608 0.684608 0.141180
H12   H     H_    0.067213 0.287544 0.313618 0.141314
H13   H     H_    0.329527 0.276204 0.782125 0.267046
H14   H     H_    0.220502 0.233050 0.691770 0.267833
H15   H     H_    0.271851 0.159927 0.803222 0.250862
H16   H     H_    0.344181 0.070516 0.673113 0.234296
H17   H     H_    0.453658 0.120257 0.757566 0.231341
H18   H     H_    0.427256 0.279049 0.649194 0.223707
H19   H     H_    0.333591 0.219131 0.559827 0.205206
H20   H     H_    0.087369 0.701612 0.214048 0.262232
H21   H     H_    0.017561 0.707417 0.313734 0.265710
H22   H     H_    0.969620 0.795575 0.211805 0.248594
H23   H     H_    0.180409 0.558499 0.547376 0.124540
H24   H     H_    0.069824 0.884820 0.351985 0.225727
H25   H     H_    0.139866 0.879317 0.252159 0.224736
H26   H     H_    0.264138 0.726208 0.329273 0.214170
H27   H     H_    0.192460 0.730392 0.427826 0.222472
H28   H     H_    0.257014 0.327899 0.356960 0.135577
H29   H     H_    0.747193 0.405349 0.414765 0.211070
H30   H     H_    0.336316 0.101011 0.450463 0.146593
H31   H     H_    0.207086 0.993165 0.372947 0.133707
H32   H     H_    0.570679 0.753229 0.651110 0.157738
H33   H     H_    0.971983 0.315285 0.603247 0.271710
H34   H     H_    0.027871 0.193204 0.664431 0.254224
N1    N     N_R   0.222200 0.444680 0.454480 -0.095509
N2    N     N_R   0.776970 0.554780 0.545050 -0.124363
O1    O     O_R   0.366740 0.627160 0.478260 -0.620298
O2    O     O_R   0.544830 0.662520 0.507340 -0.594390
O3    O     O_R   0.410930 0.482320 0.611740 -0.603065
O4    O     O_R   0.589030 0.517680 0.640820 -0.610661
O5    O     O_R   0.455170 0.337480 0.492660 -0.616353
O6    O     O_R   0.633260 0.372840 0.521740 -0.633357
O7    O     O_R   0.410970 0.482320 0.359180 -0.589097
O8    O     O_R   0.589070 0.517680 0.388260 -0.602235
Zn1   Zn    Zn3+2 0.381090 0.476390 0.480580 0.910177
Zn2   Zn    Zn3+2 0.618910 0.523610 0.519420 0.914303

loop_
_geom_bond_atom_site_label_1
_geom_bond_atom_site_label_2
_ccdc_geom_bond_type
C15   C18   A    
C9    C45   A    
C6    C45   A    
O6    Zn2   S    
C41   C42   A    
C3    C23   A    
C35   C36   S    
C42   H31   S    
O4    Zn2   S    
C23   H11   S    
C11   N2    A    
C26   C27   T    
C28   C29   T    
C38   C39   S    
C33   H33   S    
C8    C23   A    
C18   C19   A    
C11   H7    S    
C2    C7    A    
C16   C34   S    
C24   N1    A    
C19   C20   A    
C2    C44   A    
C40   H22   S    
C16   O6    A    
C35   H19   S    
O8    Zn2   S    
C37   H13   S    
C40   H21   S    
C13   C14   A    
C16   O5    A    
C32   H3    S    
O3    Zn1   S    
C36   H17   S    
C43   H30   S    
C38   H27   S    
C10   H12   S    
C1    C9    S    
C38   C41   S    
O5    Zn1   S    
C39   C40   S    
C33   H34   S    
C6    H32   S    
C4    O4    A    
C10   C24   A    
C1    O1    A    
C21   H29   S    
C25   O7    A    
C17   C21   A    
C43   C44   A    
C29   C30   S    
C31   C32   S    
C4    O3    A    
C10   C19   A    
C39   H24   S    
C8    C34   A    
C22   H23   S    
C37   H14   S    
O7    Zn1   S    
C40   H20   S    
C33   H2    S    
C7    C34   A    
C42   C43   A    
C31   H5    S    
C36   H16   S    
C44   C45   A    
C13   H9    S    
C15   C17   A    
C38   H26   S    
C36   C37   S    
C12   C30   T    
C18   C22   A    
C8    C31   S    
C25   O8    A    
C5    H10   S    
C31   H6    S    
C3    C5    A    
C4    C26   S    
C1    O2    A    
O2    Zn2   S    
C9    C41   A    
O1    Zn1   S    
C12   C25   S    
C32   C33   S    
C2    C3    A    
C22   N1    A    
C11   C13   A    
C5    C6    A    
C7    C35   S    
C39   H25   S    
C17   N2    A    
N1    Zn1   S    
C24   H28   S    
C32   H4    S    
C37   H15   S    
N2    Zn2   S    
C14   H8    S    
C20   C21   A    
C27   C28   S    
C14   C15   A    
C35   H18   S    
C20   H1    S    
