data_mof_unit_59257.cif
_audit_creation_date              2012-10-26T19:20:31-0400
_audit_creation_method            fapswitch 2.2
_symmetry_space_group_name_H-M    P1
_symmetry_Int_Tables_number       1
_space_group_crystal_system       triclinic
_cell_length_a                    10.773069
_cell_length_b                    11.214495
_cell_length_c                    9.913533
_cell_angle_alpha                 108.865209
_cell_angle_beta                  104.186663
_cell_angle_gamma                 90.573717
_cell_volume                      1093.58303087

loop_
_atom_site_label
_atom_site_type_symbol
_atom_type_description
_atom_site_fract_x
_atom_site_fract_y
_atom_site_fract_z
_atom_type_partial_charge
C1    C     C_R   0.495847 0.256681 0.444629 0.584507
C2    C     C_R   0.741111 0.503668 0.509169 0.572339
C3    C     C_R   0.115070 0.283759 0.496038 0.103817
C4    C     C_R   0.890447 0.736282 0.524314 0.106306
C5    C     C_R   0.096385 0.217946 0.589132 -0.020253
C6    C     C_R   0.922748 0.816839 0.452953 -0.012852
C7    C     C_R   0.016304 0.264325 0.682181 -0.103565
C8    C     C_R   0.008204 0.779799 0.365424 -0.102361
C9    C     C_R   0.946282 0.367172 0.672472 0.121201
C10   C     C_R   0.073157 0.672038 0.362071 0.097937
C11   C     C_R   0.960006 0.428122 0.571052 -0.007516
C12   C     C_R   0.503261 0.743822 0.555083 0.585249
C13   C     C_R   0.045577 0.593042 0.440827 -0.008031
C14   C     C_R   0.064432 0.401137 0.508914 -0.006737
C15   C     C_R   0.936419 0.615396 0.497369 -0.010076
C16   C     C_R   0.882857 0.521357 0.537779 0.014860
C17   C     C_R   0.118374 0.493175 0.465870 0.017482
C18   C     C_3   0.169199 0.105796 0.598118 -0.392650
C19   C     C_3   0.865985 0.941012 0.468092 -0.368431
C20   C     C_3   0.648395 0.659915 0.958692 -0.176360
C21   C     C_3   0.343499 0.348736 0.038247 -0.195138
C22   C     C_2   0.483210 0.122742 0.417137 -0.072580
C23   C     C_2   0.504743 0.878743 0.580046 -0.065381
C24   C     C_2   0.529739 0.068052 0.518700 0.044297
C25   C     C_2   0.506130 0.930333 0.475044 0.058923
C26   C     C_2   0.513528 0.506110 0.082336 0.070237
C27   C     C_2   0.492940 0.487746 0.917435 0.067137
C28   C     C_R   0.259618 0.503446 0.492267 0.567432
Cu1   Cu    Cu3+1 0.521920 0.521810 0.644910 1.025233
Cu2   Cu    Cu3+1 0.478080 0.478190 0.355090 1.032134
H1    H     H_    0.026755 0.836816 0.301401 0.158838
H2    H     H_    0.895190 0.988970 0.397094 0.148939
H3    H     H_    0.759794 0.924559 0.434922 0.186160
H4    H     H_    0.897844 0.005299 0.584249 0.178438
H5    H     H_    0.598988 0.743584 0.003650 0.152523
H6    H     H_    0.706727 0.685803 0.892985 0.202584
H7    H     H_    0.716369 0.635350 0.047441 0.120270
H8    H     H_    0.384282 0.268956 0.967829 0.109237
H9    H     H_    0.271037 0.388903 0.968432 0.128757
H10   H     H_    0.293674 0.311420 0.103712 0.197063
H11   H     H_    0.010144 0.222169 0.764722 0.160390
H12   H     H_    0.510750 0.938548 0.692467 0.133199
H13   H     H_    0.426337 0.068102 0.307427 0.156990
H14   H     H_    0.422607 0.412179 0.838281 0.140061
H15   H     H_    0.589992 0.574974 0.161137 0.157871
H16   H     H_    0.146954 0.067573 0.680763 0.140369
H17   H     H_    0.144398 0.029137 0.489537 0.168157
H18   H     H_    0.274182 0.134618 0.630997 0.157529
I1    I     I_    0.166357 0.185430 0.298001 -0.375608
I2    I     I_    0.826492 0.817761 0.718412 -0.341707
I3    I     I_    0.883313 0.457400 0.863314 -0.282041
I4    I     I_    0.172491 0.625468 0.195031 -0.263530
I5    I     I_    0.484435 0.825860 0.244772 -0.400405
I6    I     I_    0.650989 0.167494 0.735418 -0.346672
N1    N     N_2   0.445130 0.445420 0.137360 -0.232155
N2    N     N_2   0.554870 0.554580 0.862640 -0.237475
O1    O     O_R   0.511700 0.332340 0.577400 -0.468075
O2    O     O_R   0.488300 0.667660 0.422600 -0.455817
O3    O     O_R   0.474680 0.295500 0.332650 -0.493804
O4    O     O_R   0.525320 0.704500 0.667350 -0.498332
O5    O     O_R   0.338170 0.518410 0.622370 -0.499414
O6    O     O_R   0.661830 0.481590 0.377630 -0.498339
O7    O     O_R   0.301150 0.481570 0.377630 -0.466646
O8    O     O_R   0.698850 0.518430 0.622370 -0.464516

loop_
_geom_bond_atom_site_label_1
_geom_bond_atom_site_label_2
_ccdc_geom_bond_type
C6    C8    A    
C10   C13   A    
Cu1   Cu2   S    
C20   H7    S    
Cu1   N2    S    
C1    O1    A    
C2    C16   S    
Cu2   N1    S    
C22   H13   S    
C21   H9    S    
Cu1   O4    S    
C13   C17   A    
C20   N2    S    
C12   O2    A    
Cu2   O3    S    
C4    C15   A    
C1    O3    A    
C3    I1    S    
Cu1   O8    S    
C10   I4    S    
C1    C22   S    
Cu2   O7    S    
C18   H17   S    
C6    C19   S    
C9    C11   A    
C14   C17   A    
C26   C27   S    
C23   H12   S    
C3    C14   A    
C19   H2    S    
C18   H16   S    
C4    C6    A    
C8    H1    S    
C26   N1    D    
C25   I5    S    
C22   C24   D    
C21   H10   S    
C13   C15   A    
Cu2   O6    S    
C19   H3    S    
C11   C14   A    
Cu1   O5    S    
Cu1   O1    S    
C28   O5    A    
C24   I6    S    
C15   C16   A    
C12   O4    A    
C28   O7    A    
C7    C9    A    
C23   C25   D    
C24   C25   S    
C8    C10   A    
C11   C16   A    
C4    I2    S    
C5    C7    A    
C27   N2    D    
C9    I3    S    
C20   H6    S    
C12   C23   S    
C5    C18   S    
C26   H15   S    
Cu2   O2    S    
C17   C28   S    
C21   N1    S    
C27   H14   S    
C20   H5    S    
C21   H8    S    
C2    O6    A    
C7    H11   S    
C2    O8    A    
C3    C5    A    
C19   H4    S    
C18   H18   S    
