data_mof_unit_25250.cif
_audit_creation_date              2013-03-05T16:41:16-0500
_audit_creation_method            fapswitch 2.2
_symmetry_space_group_name_H-M    P1
_symmetry_Int_Tables_number       1
_space_group_crystal_system       triclinic
_cell_length_a                    10.655037
_cell_length_b                    10.893801
_cell_length_c                    9.950426
_cell_angle_alpha                 90.733634
_cell_angle_beta                  91.33078
_cell_angle_gamma                 92.089427
_cell_volume                      1153.79734239

loop_
_atom_site_label
_atom_site_type_symbol
_atom_site_description
_atom_site_fract_x
_atom_site_fract_y
_atom_site_fract_z
_atom_type_partial_charge
O1    O     O_R   0.500020 0.316790 0.614690 -0.566356
O2    O     O_R   0.500000 0.316760 0.385350 -0.624435
C1    C     C_R   0.497327 0.260562 0.498494 0.935958
O3    O     O_R   0.319080 0.500020 0.614640 -0.614964
O4    O     O_R   0.319070 0.499980 0.385300 -0.586959
C2    C     C_R   0.262537 0.496073 0.498201 0.844903
Zn1   Zn    Zn3+2 0.500010 0.500020 0.653130 1.032778
Zn2   Zn    Zn3+2 0.499990 0.499980 0.346870 1.034768
O5    O     O_R   0.500000 0.683240 0.614650 -0.636426
O6    O     O_R   0.499980 0.683210 0.385310 -0.610579
O7    O     O_R   0.680930 0.500020 0.614700 -0.599511
O8    O     O_R   0.680920 0.499980 0.385360 -0.623051
C3    C     C_R   0.502079 0.739992 0.499909 0.863764
C4    C     C_R   0.737319 0.508853 0.501973 0.961210
C5    C     C_2   0.935256 0.559245 0.401313 -0.084254
C6    C     C_2   0.868467 0.538863 0.510067 -0.276752
H1    H     H_    0.894012 0.560347 0.300913 0.222728
H2    H     H_    0.912804 0.545188 0.609557 0.201436
C7    C     C_2   0.069741 0.569437 0.418936 -0.189353
C8    C     C_2   0.129481 0.485492 0.490769 0.132181
H3    H     H_    0.120271 0.646006 0.373064 0.199991
C9    C     C_R   0.547647 0.068628 0.604522 0.073299
C10   C     C_R   0.502922 0.129226 0.492637 -0.156578
C11   C     C_R   0.476335 0.061918 0.372349 -0.074946
C12   C     C_R   0.485327 0.934436 0.371617 -0.075576
C13   C     C_R   0.510449 0.872685 0.494856 -0.140780
C14   C     C_R   0.551912 0.943089 0.607646 0.000011
C15   C     C_3   0.526529 0.942574 0.756874 -0.201944
C16   C     C_3   0.518778 0.082774 0.749798 0.064977
H4    H     H_    0.424055 0.117784 0.766511 0.173259
C17   C     C_R   0.415215 0.428678 0.067609 0.086647
N1    N     N_R   0.499170 0.499140 0.142800 -0.100306
C18   C     C_R   0.590253 0.563632 0.075169 0.025733
C19   C     C_R   0.594016 0.558170 0.931522 -0.022609
N2    N     N_R   0.499170 0.499180 0.857150 -0.137744
C20   C     C_R   0.414843 0.428340 0.926907 0.095138
C21   C     C_3   0.273238 0.417626 0.917851 0.037010
C22   C     C_3   0.274282 0.419291 0.072815 0.005702
H5    H     H_    0.240164 0.333105 0.120209 0.176120
N3    N     N_R   0.617452 0.153130 0.826244 0.239490
O9    O     O_R   0.712491 0.205336 0.766587 -0.300279
O10   O     O_R   0.606093 0.169744 0.954946 -0.375082
C23   C     C_1   0.675456 0.647077 0.148811 0.245118
N4    N     N_1   0.742653 0.716300 0.206312 -0.183699
C24   C     C_1   0.702080 0.609666 0.865384 0.284374
N5    N     N_1   0.790790 0.649958 0.814534 -0.169060
C25   C     C_1   0.209808 0.522184 0.856357 0.411089
N6    N     N_1   0.158082 0.603529 0.809619 -0.154236
N7    N     N_R   0.228003 0.299691 0.859599 0.225272
O11   O     O_R   0.135512 0.238280 0.913713 -0.296187
O12   O     O_R   0.262796 0.267672 0.740235 -0.368551
N8    N     N_R   0.213605 0.526705 0.128381 0.215128
O13   O     O_R   0.091532 0.525532 0.128964 -0.380135
O14   O     O_R   0.275769 0.630256 0.149715 -0.389018
N9    N     N_R   0.068923 0.371775 0.529474 0.222093
O15   O     O_R   0.041487 0.287055 0.439030 -0.325486
O16   O     O_R   0.034808 0.355514 0.652744 -0.306712
C26   C     C_1   0.430525 0.118773 0.250142 0.296738
N10   N     N_1   0.393962 0.160770 0.151310 -0.157631
C27   C     C_1   0.464722 0.871905 0.242228 0.307071
N11   N     N_1   0.449064 0.825407 0.137718 -0.146880
C28   C     C_1   0.406517 0.881876 0.792297 0.216616
N12   N     N_1   0.311864 0.834944 0.820590 -0.121923
C29   C     C_1   0.632481 0.904565 0.842169 0.306019
N13   N     N_1   0.716034 0.880122 0.911841 -0.138621

loop_
_geom_bond_atom_site_label_1
_geom_bond_atom_site_label_2
_geom_bond_distance
_ccdc_geom_bond_type
O4    Zn2   1.973962 S    
Zn1   O7    1.973963 S    
C10   C11   1.413190 A    
C16   H4    1.107246 S    
C9    C16   1.492112 S    
C21   C25   1.477607 S    
C21   N7    1.463444 S    
C1    C10   1.434657 S    
C7    C8    1.338053 D    
C17   C22   1.503536 S    
O8    C4    1.295140 A    
Zn2   O8    1.956748 S    
C17   N1    1.361374 A    
N1    C18   1.371513 A    
N7    O11   1.301727 A    
N9    O15   1.301538 A    
N3    O10   1.300115 A    
C18   C19   1.431386 A    
C26   N10   1.155384 T    
C11   C26   1.454075 S    
C19   C24   1.439141 S    
O1    Zn1   2.027577 S    
C24   N5    1.157477 T    
C29   N13   1.156470 T    
C5    C7    1.439662 S    
C15   C16   1.534967 S    
C13   C14   1.404717 A    
C28   N12   1.156311 T    
C2    C8    1.418334 S    
O3    Zn1   1.956748 S    
C15   C29   1.471338 S    
C22   N8    1.465655 S    
Zn2   O6    2.027577 S    
C20   C21   1.509575 S    
C7    H3    1.087380 S    
C21   C22   1.541609 S    
N8    O14   1.299671 A    
O2    C1    1.288790 A    
C9    C14   1.370734 A    
N9    O16   1.299853 A    
C23   N4    1.157257 T    
C15   C28   1.470330 S    
O4    C2    1.287440 A    
O7    C4    1.287734 A    
C4    C6    1.423680 S    
C3    C13   1.446619 S    
O3    C2    1.292914 A    
C8    N9    1.436935 S    
C5    C6    1.325577 D    
Zn2   N1    2.030301 S    
C25   N6    1.157397 T    
Zn1   O5    2.037168 S    
C22   H5    1.109272 S    
C11   C12   1.395481 A    
C16   N3    1.469908 S    
C6    H2    1.087248 S    
C19   N2    1.373907 A    
C14   C15   1.515527 S    
C5    H1    1.082421 S    
O5    C3    1.305566 A    
C17   C20   1.399917 A    
N3    O9    1.302245 A    
N7    O12   1.299638 A    
C12   C13   1.430718 A    
C9    C10   1.385439 A    
Zn1   N2    2.030450 S    
C12   C27   1.457163 S    
O2    Zn2   2.037170 S    
N2    C20   1.369958 A    
N8    O13   1.300437 A    
C27   N11   1.156777 T    
O1    C1    1.300718 A    
O6    C3    1.289640 A    
C18   C23   1.441981 S    
