data_mof_unit_32767.cif
_audit_creation_date              2013-03-05T16:11:29-0500
_audit_creation_method            fapswitch 2.2
_symmetry_space_group_name_H-M    P1
_symmetry_Int_Tables_number       1
_space_group_crystal_system       triclinic
_cell_length_a                    9.407523
_cell_length_b                    10.743585
_cell_length_c                    17.269848
_cell_angle_alpha                 90.295321
_cell_angle_beta                  86.058048
_cell_angle_gamma                 90.08591
_cell_volume                      1741.31887058

loop_
_atom_site_label
_atom_site_type_symbol
_atom_site_description
_atom_site_fract_x
_atom_site_fract_y
_atom_site_fract_z
_atom_type_partial_charge
O1    O     O_R   0.379740 0.682430 0.499960 -0.603351
O2    O     O_R   0.620260 0.682190 0.500020 -0.600685
C1    C     C_R   0.500398 0.740024 0.497750 0.804149
O3    O     O_R   0.365800 0.500150 0.613560 -0.601558
O4    O     O_R   0.606310 0.499910 0.613620 -0.600010
C2    C     C_R   0.481551 0.496430 0.650064 0.782834
Cu1   Cu    Cu3+1 0.357600 0.500140 0.499960 0.922094
Cu2   Cu    Cu3+1 0.642400 0.499860 0.500040 0.919685
O5    O     O_R   0.379740 0.317810 0.499980 -0.582260
O6    O     O_R   0.620260 0.317570 0.500040 -0.595320
O7    O     O_R   0.393690 0.500090 0.386380 -0.582796
O8    O     O_R   0.634200 0.499850 0.386440 -0.588078
C3    C     C_R   0.500406 0.260139 0.496090 0.883849
C4    C     C_R   0.518413 0.502046 0.349976 0.885623
C5    C     C_R   0.472414 0.481196 0.734405 -0.025366
C6    C     C_R   0.597679 0.465152 0.772899 -0.199703
C7    C     C_R   0.590516 0.446346 0.852440 -0.183893
C8    C     C_R   0.458130 0.444163 0.894876 0.174430
C9    C     C_R   0.332544 0.457787 0.856603 -0.166773
C10   C     C_R   0.339556 0.476252 0.776646 -0.210198
C11   C     C_R   0.413573 0.547556 0.146984 -0.172067
C12   C     C_R   0.407732 0.544154 0.227260 -0.185882
C13   C     C_R   0.654111 0.476335 0.222157 -0.143205
C14   C     C_R   0.660666 0.477620 0.140973 0.203059
C15   C     C_R   0.537691 0.511449 0.103441 0.179717
C16   C     C_2   0.451925 0.435055 0.979851 0.115215
C17   C     C_2   0.536106 0.511347 0.018839 -0.236868
C18   C     C_R   0.527343 0.507405 0.265336 -0.056779
H1    H     H_    0.701501 0.466528 0.741666 0.137894
H2    H     H_    0.309612 0.570987 0.259517 0.151011
H3    H     H_    0.747192 0.448585 0.251484 0.166512
H4    H     H_    0.608001 0.575835 0.987534 0.135033
H5    H     H_    0.229597 0.456978 0.888821 0.135139
H6    H     H_    0.320467 0.577672 0.118581 0.146431
H7    H     H_    0.241395 0.487050 0.748097 0.137410
H8    H     H_    0.688464 0.434304 0.881076 0.125406
C19   C     C_3   0.362388 0.926184 0.461835 -0.430321
H9    H     H_    0.268694 0.902094 0.501944 0.145885
H10   H     H_    0.344897 0.878133 0.406096 0.198814
C20   C     C_3   0.368642 0.069127 0.452488 0.202822
H11   H     H_    0.269231 0.106889 0.482278 0.098879
H12   H     H_    0.419975 0.886356 0.617598 0.181425
C21   C     C_3   0.506812 0.928891 0.579298 -0.390671
C22   C     C_3   0.631399 0.926357 0.444731 -0.409042
C23   C     C_3   0.500621 0.877726 0.495775 0.018270
H13   H     H_    0.731978 0.884328 0.462674 0.153016
H14   H     H_    0.620480 0.897952 0.383358 0.220490
C24   C     C_3   0.500827 0.122111 0.493311 -0.074746
C25   C     C_3   0.495931 0.073038 0.579468 -0.090146
C26   C     C_3   0.643682 0.069409 0.452028 0.178199
H15   H     H_    0.730916 0.088781 0.490963 0.070194
H16   H     H_    0.609073 0.900667 0.602932 0.147078
H17   H     H_    0.591059 0.110143 0.607097 0.155964
C27   C     C_3   0.922121 0.402186 0.445551 -0.162773
H18   H     H_    0.891455 0.417308 0.385292 0.165632
H19   H     H_    0.880486 0.308914 0.463007 0.165707
C28   C     C_3   0.089819 0.400462 0.445957 -0.156559
H20   H     H_    0.123877 0.306602 0.463912 0.168352
H21   H     H_    0.136984 0.415089 0.385905 0.181880
H22   H     H_    0.889575 0.642731 0.413229 0.146318
H23   H     H_    0.136941 0.640992 0.414135 0.142237
C29   C     C_3   0.921230 0.620218 0.472456 -0.195955
C30   C     C_3   0.906057 0.474621 0.576761 -0.195581
N1    N     N_3   0.856560 0.499750 0.498270 -0.129137
H24   H     H_    0.864243 0.547395 0.618298 0.142809
H25   H     H_    0.862121 0.384125 0.598503 0.136555
N2    N     N_3   0.143860 0.496700 0.498910 -0.131494
C31   C     C_3   0.088557 0.618509 0.473012 -0.189685
C32   C     C_3   0.073316 0.472735 0.577143 -0.202539
H26   H     H_    0.108819 0.381400 0.598972 0.138006
H27   H     H_    0.106390 0.544648 0.618841 0.144052
H28   H     H_    0.879706 0.696544 0.511367 0.142730
H29   H     H_    0.120774 0.694010 0.512421 0.145253
C33   C     C_3   0.798330 0.439349 0.097532 -0.879260
H30   H     H_    0.792683 0.440172 0.033657 0.226853
H31   H     H_    0.884799 0.503731 0.112566 0.227252
H32   H     H_    0.826590 0.343487 0.114625 0.257575
N3    N     N_R   0.368519 0.105515 0.370443 0.160083
O9    O     O_R   0.297793 0.203488 0.351593 -0.365847
O10   O     O_R   0.427903 0.036173 0.315238 -0.325204
C34   C     C_3   0.366102 0.116851 0.632174 -0.880595
H33   H     H_    0.264742 0.080047 0.612041 0.231599
H34   H     H_    0.376251 0.082804 0.692175 0.240404
H35   H     H_    0.360880 0.219848 0.635565 0.238616
N4    N     N_R   0.690499 0.124032 0.376321 0.153119
O11   O     O_R   0.808713 0.084807 0.340894 -0.363889
O12   O     O_R   0.628503 0.220368 0.348295 -0.333234
C35   C     C_3   0.354104 0.340222 0.020158 -0.795478
H36   H     H_    0.307761 0.277226 0.977334 0.220179
H37   H     H_    0.414552 0.282057 0.059477 0.259441
H38   H     H_    0.265019 0.387332 0.053918 0.225774

loop_
_geom_bond_atom_site_label_1
_geom_bond_atom_site_label_2
_geom_bond_distance
_ccdc_geom_bond_type
C30   H24   1.112180 S    
C9    C10   1.393095 A    
C8    C16   1.468419 S    
C34   H33   1.108844 S    
Cu1   Cu2   2.679365 S    
N4    O11   1.301484 A    
Cu1   O7    1.967541 S    
C16   C17   1.348337 D    
C33   H31   1.110437 S    
C19   C20   1.545611 S    
O4    C2    1.293673 A    
O7    C4    1.292686 A    
N3    O10   1.302587 A    
C21   H16   1.113631 S    
C28   H21   1.111459 S    
C5    C6    1.403507 A    
H22   C29   1.112666 S    
C8    C9    1.401080 A    
C25   C34   1.544752 S    
C32   H27   1.112048 S    
O5    C3    1.291592 A    
C29   N1    1.486696 S    
C26   N4    1.475046 S    
C2    C5    1.463194 S    
C10   H7    1.082957 S    
C30   C32   1.574120 S    
C6    C7    1.386514 A    
C33   H32   1.110513 S    
C13   C14   1.399295 A    
C7    H8    1.083528 S    
C22   H14   1.112931 S    
C24   C26   1.581572 S    
C30   H25   1.112805 S    
C12   C18   1.400071 A    
C11   C12   1.384325 A    
C28   N2    1.488754 S    
O3    Cu1   1.968664 S    
C34   H34   1.110987 S    
C22   H13   1.112766 S    
C7    C8    1.401182 A    
N4    O12   1.300545 A    
C5    C10   1.404275 A    
C27   H19   1.110925 S    
C33   H30   1.108122 S    
N2    C31   1.491101 S    
C14   C15   1.413298 A    
O3    C2    1.295982 A    
C9    H5    1.083288 S    
N3    O9    1.300773 A    
C21   C25   1.552171 S    
C11   H6    1.083538 S    
C31   H29   1.111298 S    
C1    C23   1.479976 S    
N2    C32   1.487247 S    
C13   H3    1.084211 S    
C19   H9    1.113965 S    
O4    Cu2   1.967542 S    
C35   H38   1.108833 S    
Cu2   O8    1.968661 S    
C26   H15   1.114819 S    
C29   H28   1.111667 S    
C13   C18   1.402165 A    
C21   C23   1.545774 S    
Cu2   N1    2.012847 S    
C16   C35   1.511908 S    
C20   H11   1.112086 S    
O8    C4    1.295440 A    
C20   N3    1.471871 S    
H12   C21   1.114174 S    
C19   C23   1.554250 S    
C34   H35   1.108787 S    
C22   C23   1.554800 S    
C22   C26   1.546202 S    
Cu1   O5    1.970235 S    
C11   C15   1.398925 A    
C27   H18   1.111646 S    
C24   C25   1.578790 S    
C12   H2    1.083478 S    
C17   H4    1.087170 S    
O1    Cu1   1.969182 S    
O2    Cu2   1.970236 S    
C35   H37   1.110628 S    
O6    C3    1.290251 A    
C3    C24   1.483446 S    
C15   C17   1.462145 S    
C29   C31   1.574962 S    
C4    C18   1.459788 S    
O2    C1    1.291327 A    
C6    H1    1.082925 S    
C19   H10   1.112024 S    
H23   C31   1.112638 S    
C14   C33   1.507958 S    
C28   H20   1.110641 S    
C27   N1    1.490942 S    
C25   H17   1.114973 S    
C32   H26   1.112949 S    
Cu1   N2    2.012374 S    
C30   N1    1.489330 S    
C35   H36   1.110583 S    
Cu2   O6    1.969182 S    
O1    C1    1.290325 A    
C20   C24   1.575341 S    
C27   C28   1.578253 S    
