data_mof_unit_9798.cif
_audit_creation_date              2012-10-26T20:13:09-0400
_audit_creation_method            fapswitch 2.2
_symmetry_space_group_name_H-M    P1
_symmetry_Int_Tables_number       1
_space_group_crystal_system       triclinic
_cell_length_a                    21.849724
_cell_length_b                    21.124778
_cell_length_c                    13.878012
_cell_angle_alpha                 90.00052
_cell_angle_beta                  89.999604
_cell_angle_gamma                 90.01392
_cell_volume                      6405.68170404

loop_
_atom_site_label
_atom_site_type_symbol
_atom_type_description
_atom_site_fract_x
_atom_site_fract_y
_atom_site_fract_z
_atom_type_partial_charge
C1    C     C_R   0.086470 0.416186 0.500057 0.569676
C2    C     C_R   0.189952 0.717925 0.425947 -0.136429
C3    C     C_3   0.370837 0.881593 0.172780 -0.347092
C4    C     C_3   0.715581 0.908881 0.274089 -0.016269
C5    C     C_3   0.705348 0.963282 0.204214 -0.374392
C6    C     C_3   0.353088 0.128127 0.735099 0.029676
C7    C     C_3   0.359999 0.159529 0.833070 -0.389011
C8    C     C_3   0.284453 0.091139 0.274041 -0.016238
C9    C     C_3   0.294706 0.036760 0.204128 -0.374392
C10   C     C_3   0.646916 0.871882 0.735100 0.029657
C11   C     C_3   0.639983 0.840502 0.833082 -0.389000
C12   C     C_3   0.958092 0.658011 0.233117 0.014450
C13   C     C_R   0.217024 0.687456 0.588080 -0.138753
C14   C     C_3   0.991213 0.716836 0.196922 -0.398613
C15   C     C_3   0.961110 0.342747 0.766303 0.014835
C16   C     C_3   0.992644 0.282291 0.799416 -0.392044
C17   C     C_3   0.041913 0.341990 0.233113 0.014485
C18   C     C_3   0.008796 0.283170 0.196889 -0.398670
C19   C     C_3   0.038893 0.657252 0.766298 0.014855
C20   C     C_3   0.007363 0.717706 0.799434 -0.392080
C21   C     C_3   0.443139 0.154494 0.232424 0.014749
C22   C     C_3   0.472266 0.213501 0.188861 -0.407618
C23   C     C_3   0.447254 0.845766 0.764924 0.016178
C24   C     C_R   0.810044 0.282077 0.425951 -0.136435
C25   C     C_3   0.474067 0.784787 0.805553 -0.403809
C26   C     C_3   0.556861 0.845506 0.232414 0.014771
C27   C     C_3   0.527736 0.786505 0.188829 -0.407675
C28   C     C_3   0.552751 0.154231 0.764931 0.016171
C29   C     C_3   0.525941 0.215220 0.805526 -0.403780
C30   C     C_R   0.216991 0.311044 0.416818 -0.139887
C31   C     C_R   0.808830 0.715385 0.581213 -0.123493
C32   C     C_R   0.782990 0.688930 0.416831 -0.139879
C33   C     C_R   0.191171 0.284616 0.581218 -0.123488
C34   C     C_R   0.277867 0.818996 0.584708 -0.140248
C35   C     C_R   0.690397 0.217771 0.427708 -0.136276
C36   C     C_R   0.722128 0.181010 0.584711 -0.140254
C37   C     C_R   0.913528 0.583811 0.500058 0.569694
C38   C     C_R   0.309595 0.782237 0.427702 -0.136286
C39   C     C_R   0.722594 0.818425 0.420877 -0.141700
C40   C     C_R   0.309828 0.216310 0.578825 -0.123580
C41   C     C_R   0.277390 0.181550 0.420890 -0.141696
C42   C     C_R   0.690172 0.783691 0.578833 -0.123577
C43   C     C_R   0.826327 0.362414 0.585782 0.205326
C44   C     C_R   0.150208 0.666579 0.418237 0.214302
C45   C     C_R   0.173668 0.637594 0.585783 0.205317
C46   C     C_R   0.849791 0.333419 0.418240 0.214304
C47   C     C_R   0.173490 0.360729 0.416525 0.205181
C48   C     C_R   0.913127 0.416616 0.500055 0.572336
C49   C     C_R   0.851086 0.666447 0.584104 0.214174
C50   C     C_R   0.826496 0.639250 0.416537 0.205194
C51   C     C_R   0.148916 0.333556 0.584107 0.214180
C52   C     C_R   0.322491 0.867614 0.582115 0.201947
C53   C     C_R   0.648639 0.168065 0.419633 0.217028
C54   C     C_R   0.677507 0.132389 0.582116 0.201935
C55   C     C_R   0.351357 0.831940 0.419629 0.217039
C56   C     C_R   0.677714 0.866738 0.420919 0.202420
C57   C     C_R   0.353325 0.168519 0.582230 0.214276
C58   C     C_R   0.322274 0.133242 0.420931 0.202435
C59   C     C_R   0.086872 0.583384 0.500055 0.572318
C60   C     C_R   0.646676 0.831483 0.582235 0.214276
C61   C     C_R   0.862376 0.370211 0.501121 0.034246
C62   C     C_R   0.137622 0.629791 0.501121 0.034231
C63   C     C_R   0.136888 0.369496 0.500145 0.027278
C64   C     C_R   0.863108 0.630496 0.500149 0.027286
C65   C     C_R   0.361719 0.871287 0.500491 0.037581
C66   C     C_R   0.638279 0.128715 0.500493 0.037559
C67   C     C_R   0.637411 0.870640 0.500880 0.030850
C68   C     C_R   0.362584 0.129353 0.500883 0.030849
C69   C     C_R   0.000196 0.556720 0.108672 -0.177571
C70   C     C_R   0.586423 0.916321 0.500189 0.578233
C71   C     C_R   0.004809 0.443496 0.891431 -0.170462
C72   C     C_R   0.999812 0.443281 0.108670 -0.177562
C73   C     C_R   0.995197 0.556504 0.891433 -0.170463
C74   C     C_R   0.489058 0.055565 0.108236 -0.176432
C75   C     C_R   0.494204 0.943581 0.891776 -0.170192
C76   C     C_R   0.510944 0.944438 0.108233 -0.176423
C77   C     C_R   0.505790 0.056421 0.891776 -0.170182
C78   C     C_R   0.775521 0.272548 0.508939 -0.040124
C79   C     C_R   0.224472 0.727460 0.508936 -0.040123
C80   C     C_R   0.225267 0.273142 0.498298 -0.043656
C81   C     C_R   0.413576 0.083677 0.500190 0.578253
C82   C     C_R   0.774724 0.726846 0.498299 -0.043661
C83   C     C_R   0.272157 0.776416 0.508414 -0.039382
C84   C     C_R   0.727835 0.223592 0.508419 -0.039386
C85   C     C_R   0.728105 0.776863 0.498812 -0.043745
C86   C     C_R   0.271887 0.223125 0.498812 -0.043749
C87   C     C_R   0.997568 0.556240 0.210425 0.382547
C88   C     C_R   0.001180 0.443801 0.789866 0.376062
C89   C     C_R   0.002436 0.443761 0.210423 0.382570
C90   C     C_R   0.998822 0.556199 0.789867 0.376059
C91   C     C_R   0.489837 0.055418 0.210271 0.381895
C92   C     C_R   0.413137 0.916722 0.499960 0.579587
C93   C     C_R   0.493997 0.943999 0.789880 0.376111
C94   C     C_R   0.510163 0.944583 0.210267 0.381917
C95   C     C_R   0.506001 0.056002 0.789880 0.376102
C96   C     C_R   0.000004 0.500001 0.055038 -0.050917
C97   C     C_R   0.000004 0.500000 0.945142 -0.049548
C98   C     C_R   0.500000 0.000002 0.054925 -0.050051
C99   C     C_R   0.499998 0.000001 0.945163 -0.048272
C100  C     C_3   0.800667 0.393914 0.744921 -0.016489
C101  C     C_3   0.814421 0.444862 0.819426 -0.378177
C102  C     C_3   0.169444 0.640364 0.260907 0.007662
C103  C     C_R   0.586862 0.083278 0.499960 0.579572
C104  C     C_3   0.141872 0.609225 0.172474 -0.348634
C105  C     C_3   0.199341 0.606092 0.744915 -0.016500
C106  C     C_3   0.185597 0.555140 0.819418 -0.378180
C107  C     C_3   0.830567 0.359618 0.260901 0.007672
C108  C     C_3   0.858137 0.390764 0.172477 -0.348627
C109  C     C_3   0.205217 0.393673 0.260828 -0.016864
C110  C     C_3   0.194635 0.445524 0.186762 -0.375952
C111  C     C_3   0.843971 0.617541 0.730718 0.029996
C112  C     C_3   0.842379 0.646129 0.831252 -0.391949
C113  C     C_3   0.794823 0.606342 0.260794 -0.016837
C114  C     C_R   0.782969 0.312555 0.588081 -0.138749
C115  C     C_3   0.805434 0.554513 0.186699 -0.375938
C116  C     C_3   0.156037 0.382469 0.730715 0.029982
C117  C     C_3   0.157645 0.353879 0.831243 -0.391964
C118  C     C_3   0.290772 0.906560 0.734541 -0.015273
C119  C     C_3   0.303283 0.959700 0.805883 -0.378259
C120  C     C_3   0.658072 0.154805 0.255374 0.003069
C121  C     C_3   0.629170 0.118394 0.172784 -0.347097
C122  C     C_3   0.709228 0.093444 0.734537 -0.015286
C123  C     C_3   0.696719 0.040303 0.805874 -0.378256
C124  C     C_3   0.341942 0.845166 0.255360 0.003068
Cu1   Cu    Cu3+1 1.000000 0.500000 0.596430 1.100187
Cu2   Cu    Cu3+1 1.000000 0.500000 0.403570 1.128384
Cu3   Cu    Cu3+1 0.500000 0.000000 0.596430 1.106945
Cu4   Cu    Cu3+1 0.500000 0.000000 0.403570 1.134411
H1    H     H_    0.003844 0.601914 0.073746 0.093554
H2    H     H_    0.195355 0.749716 0.365327 0.107807
H3    H     H_    0.628871 0.920881 0.740092 0.177258
H4    H     H_    0.696998 0.875246 0.719271 0.091769
H5    H     H_    0.655077 0.790375 0.829175 0.139485
H6    H     H_    0.668425 0.865832 0.887056 0.080873
H7    H     H_    0.591644 0.842403 0.856763 0.170162
H8    H     H_    0.930802 0.672179 0.296953 0.178974
H9    H     H_    0.924740 0.641537 0.177815 0.097553
H10   H     H_    0.016426 0.706399 0.129452 0.121876
H11   H     H_    0.957427 0.754856 0.182030 0.084419
H12   H     H_    0.024006 0.733899 0.252297 0.191946
H13   H     H_    0.246501 0.695240 0.649446 0.091750
H14   H     H_    0.932844 0.330822 0.702444 0.175848
H15   H     H_    0.928908 0.358889 0.823480 0.091933
H16   H     H_    0.018326 0.290821 0.867095 0.123489
H17   H     H_    0.957828 0.245056 0.813077 0.081657
H18   H     H_    0.024683 0.265246 0.742976 0.197880
H19   H     H_    0.069191 0.327812 0.296955 0.179036
H20   H     H_    0.075276 0.358472 0.177832 0.097628
H21   H     H_    0.983598 0.293613 0.129409 0.121855
H22   H     H_    0.042584 0.245151 0.182006 0.084438
H23   H     H_    0.975992 0.266106 0.252245 0.191951
H24   H     H_    0.804640 0.250283 0.365333 0.107799
H25   H     H_    0.067149 0.669182 0.702431 0.175867
H26   H     H_    0.071103 0.641106 0.823460 0.091959
H27   H     H_    0.981699 0.709175 0.867129 0.123460
H28   H     H_    0.042181 0.754942 0.813074 0.081668
H29   H     H_    0.975309 0.734749 0.743015 0.197895
H30   H     H_    0.417611 0.169992 0.297272 0.180042
H31   H     H_    0.408462 0.134188 0.182375 0.103218
H32   H     H_    0.495320 0.202332 0.119803 0.117395
H33   H     H_    0.436342 0.249503 0.174777 0.088893
H34   H     H_    0.506336 0.233700 0.239705 0.188226
H35   H     H_    0.245799 0.301604 0.355215 0.091478
H36   H     H_    0.421470 0.832906 0.699011 0.178703
H37   H     H_    0.413276 0.865679 0.816474 0.098678
H38   H     H_    0.495205 0.793326 0.876986 0.115517
H39   H     H_    0.437113 0.749172 0.814515 0.087403
H40   H     H_    0.509089 0.765488 0.755537 0.196794
H41   H     H_    0.582379 0.829998 0.297263 0.180104
H42   H     H_    0.591545 0.865818 0.182381 0.103297
H43   H     H_    0.504695 0.797678 0.119764 0.117379
H44   H     H_    0.563659 0.750499 0.174754 0.088916
H45   H     H_    0.493657 0.766306 0.239658 0.188223
H46   H     H_    0.802479 0.744226 0.645016 0.122187
H47   H     H_    0.578550 0.167078 0.699027 0.178720
H48   H     H_    0.586716 0.134323 0.816504 0.098651
H49   H     H_    0.504771 0.206692 0.876937 0.115553
H50   H     H_    0.562900 0.250826 0.814518 0.087386
H51   H     H_    0.490943 0.234527 0.755473 0.196773
H52   H     H_    0.754168 0.698354 0.355240 0.091490
H53   H     H_    0.197528 0.255784 0.645028 0.122188
H54   H     H_    0.246354 0.813918 0.644210 0.091384
H55   H     H_    0.694548 0.251632 0.369514 0.105166
H56   H     H_    0.753641 0.186089 0.644212 0.091384
H57   H     H_    0.011511 0.398484 0.925932 0.093645
H58   H     H_    0.305443 0.748375 0.369508 0.105145
H59   H     H_    0.754202 0.812632 0.361662 0.091709
H60   H     H_    0.305733 0.248048 0.639838 0.123131
H61   H     H_    0.245768 0.187329 0.361689 0.091715
H62   H     H_    0.694272 0.751961 0.639853 0.123133
H63   H     H_    0.815295 0.347392 0.774754 0.105788
H64   H     H_    0.750409 0.394650 0.732072 0.129483
H65   H     H_    0.793693 0.490406 0.796584 0.132465
H66   H     H_    0.794605 0.431169 0.890104 0.086339
H67   H     H_    0.864540 0.451341 0.827781 0.156200
H68   H     H_    0.996168 0.398087 0.073741 0.093547
H69   H     H_    0.205243 0.607872 0.289968 0.118540
H70   H     H_    0.191307 0.685140 0.236721 0.101924
H71   H     H_    0.107029 0.640725 0.139800 0.157649
H72   H     H_    0.178225 0.600035 0.118331 0.065961
H73   H     H_    0.120725 0.563515 0.192907 0.174437
H74   H     H_    0.184720 0.652613 0.774763 0.105798
H75   H     H_    0.249596 0.605353 0.732044 0.129483
H76   H     H_    0.206317 0.509597 0.796558 0.132463
H77   H     H_    0.205426 0.568828 0.890089 0.086340
H78   H     H_    0.135479 0.548664 0.827795 0.156193
H79   H     H_    0.988498 0.601516 0.925937 0.093643
H80   H     H_    0.794757 0.392101 0.289954 0.118575
H81   H     H_    0.808717 0.314837 0.236708 0.101922
H82   H     H_    0.892989 0.359274 0.139806 0.157657
H83   H     H_    0.821786 0.399949 0.118329 0.065951
H84   H     H_    0.879274 0.436478 0.192919 0.174442
H85   H     H_    0.195523 0.347294 0.225948 0.108206
H86   H     H_    0.253967 0.396841 0.283682 0.129490
H87   H     H_    0.208025 0.491910 0.217786 0.149440
H88   H     H_    0.222963 0.436411 0.121799 0.084177
H89   H     H_    0.145725 0.447092 0.165283 0.150054
H90   H     H_    0.480616 0.099507 0.071713 0.092614
H91   H     H_    0.864422 0.569566 0.735585 0.180840
H92   H     H_    0.795615 0.611649 0.705824 0.095821
H93   H     H_    0.823054 0.694704 0.828266 0.136688
H94   H     H_    0.813392 0.616508 0.879100 0.082747
H95   H     H_    0.889181 0.648128 0.861799 0.164620
H96   H     H_    0.804572 0.652730 0.225980 0.108166
H97   H     H_    0.746054 0.603195 0.283547 0.129487
H98   H     H_    0.791964 0.508126 0.217635 0.149398
H99   H     H_    0.777185 0.563686 0.121671 0.084170
H100  H     H_    0.854364 0.552901 0.165347 0.150091
H101  H     H_    0.489546 0.898765 0.927722 0.092909
H102  H     H_    0.135579 0.430442 0.735595 0.180838
H103  H     H_    0.204389 0.388371 0.705806 0.095816
H104  H     H_    0.176977 0.305308 0.828246 0.136687
H105  H     H_    0.186631 0.383502 0.879086 0.082757
H106  H     H_    0.110845 0.351870 0.861801 0.164608
H107  H     H_    0.301139 0.860738 0.770637 0.105331
H108  H     H_    0.241536 0.909342 0.714470 0.130490
H109  H     H_    0.287721 0.005437 0.775152 0.134400
H110  H     H_    0.277856 0.950845 0.873839 0.085636
H111  H     H_    0.352929 0.962724 0.822282 0.151914
H112  H     H_    0.519390 0.900498 0.071706 0.092608
H113  H     H_    0.701381 0.129849 0.274919 0.109299
H114  H     H_    0.669110 0.203101 0.228752 0.108350
H115  H     H_    0.588766 0.144328 0.145184 0.163705
H116  H     H_    0.662680 0.113113 0.113163 0.066121
H117  H     H_    0.615281 0.070643 0.197670 0.175378
H118  H     H_    0.698858 0.139264 0.770634 0.105337
H119  H     H_    0.758464 0.090665 0.714464 0.130492
H120  H     H_    0.712289 0.994568 0.775145 0.134388
H121  H     H_    0.722143 0.049162 0.873832 0.085634
H122  H     H_    0.647074 0.037273 0.822270 0.151923
H123  H     H_    0.510445 0.101238 0.927722 0.092913
H124  H     H_    0.298615 0.870095 0.274883 0.109320
H125  H     H_    0.330940 0.796861 0.228739 0.108358
H126  H     H_    0.411254 0.855678 0.145186 0.163712
H127  H     H_    0.337331 0.886861 0.113150 0.066115
H128  H     H_    0.384705 0.929350 0.197673 0.175381
H129  H     H_    0.711062 0.863814 0.233151 0.107754
H130  H     H_    0.762508 0.914055 0.304368 0.130630
H131  H     H_    0.710954 0.009080 0.242434 0.156198
H132  H     H_    0.739267 0.960757 0.144762 0.082829
H133  H     H_    0.658580 0.960680 0.173158 0.145582
H134  H     H_    0.753488 0.304776 0.649444 0.091756
H135  H     H_    0.371148 0.079135 0.740120 0.177259
H136  H     H_    0.303010 0.124740 0.719257 0.091779
H137  H     H_    0.344891 0.209650 0.829135 0.139485
H138  H     H_    0.331557 0.134201 0.887047 0.080875
H139  H     H_    0.408335 0.157647 0.856768 0.170130
H140  H     H_    0.289033 0.136222 0.233161 0.107710
H141  H     H_    0.237498 0.085981 0.304221 0.130625
H142  H     H_    0.289029 0.990948 0.242285 0.156178
H143  H     H_    0.260844 0.039343 0.144603 0.082828
H144  H     H_    0.341505 0.039335 0.173184 0.145602
N1    N     N_R   1.000000 0.500000 0.258690 -0.207376
N2    N     N_R   0.000000 0.500000 0.741310 -0.214803
N3    N     N_R   0.500000 0.000000 0.258690 -0.207944
N4    N     N_R   0.500000 0.000000 0.741310 -0.214545
O1    O     O_R   0.064280 0.435730 0.581430 -0.452997
O2    O     O_R   0.435720 0.064270 0.418570 -0.448254
O3    O     O_R   0.435720 0.064270 0.581430 -0.459799
O4    O     O_R   0.564280 0.935730 0.418570 -0.448237
O5    O     O_R   0.435720 0.935730 0.418570 -0.441092
O6    O     O_R   0.564280 0.064270 0.581430 -0.458569
O7    O     O_R   0.564280 0.064270 0.418570 -0.441109
O8    O     O_R   0.435720 0.935730 0.581430 -0.458576
O9    O     O_3   0.832793 0.407621 0.659103 -0.549487
O10   O     O_3   0.123141 0.652700 0.330164 -0.507413
O11   O     O_3   0.167199 0.592392 0.659110 -0.549497
O12   O     O_R   0.935720 0.564270 0.418570 -0.453624
O13   O     O_3   0.876864 0.347293 0.330169 -0.507418
O14   O     O_3   0.165606 0.403227 0.339910 -0.546649
O15   O     O_3   0.881289 0.655305 0.669882 -0.514626
O16   O     O_3   0.834362 0.596728 0.339948 -0.546608
O17   O     O_3   0.118716 0.344704 0.669886 -0.514617
O18   O     O_3   0.328235 0.914826 0.652584 -0.550140
O19   O     O_3   0.616689 0.158507 0.334096 -0.509911
O20   O     O_3   0.671766 0.085176 0.652581 -0.550153
O21   O     O_3   0.383314 0.841495 0.334098 -0.509910
O22   O     O_3   0.671157 0.911970 0.347763 -0.548219
O23   O     O_R   0.935720 0.564270 0.581430 -0.453002
O24   O     O_3   0.387673 0.161846 0.665330 -0.516430
O25   O     O_3   0.328813 0.087984 0.347805 -0.548173
O26   O     O_3   0.612330 0.838161 0.665336 -0.516427
O27   O     O_3   0.001118 0.611901 0.263355 -0.481644
O28   O     O_3   0.005379 0.388055 0.737546 -0.482165
O29   O     O_3   0.998885 0.388099 0.263350 -0.481656
O30   O     O_3   0.994620 0.611945 0.737550 -0.482177
O31   O     O_3   0.488944 0.111425 0.262956 -0.487444
O32   O     O_3   0.494684 0.887947 0.737573 -0.488396
O33   O     O_3   0.511055 0.888575 0.262947 -0.487456
O34   O     O_R   0.064280 0.435730 0.418570 -0.453607
O35   O     O_3   0.505319 0.112054 0.737575 -0.488396
O36   O     O_R   0.935720 0.435730 0.418570 -0.434853
O37   O     O_R   0.064280 0.564270 0.581430 -0.462771
O38   O     O_R   0.064280 0.564270 0.418570 -0.434860
O39   O     O_R   0.935720 0.435730 0.581430 -0.462777
O40   O     O_R   0.564280 0.935730 0.581430 -0.459798

loop_
_geom_bond_atom_site_label_1
_geom_bond_atom_site_label_2
_ccdc_geom_bond_type
C37   O23   A    
C65   C92   S    
C13   C45   A    
C1    O34   A    
C13   C79   A    
C33   C80   A    
C4    H129  S    
C20   H27   S    
Cu2   O12   S    
C38   C83   A    
C35   C53   A    
C21   H31   S    
C21   H30   S    
C111  C112  S    
C88   O28   S    
C21   O31   S    
Cu3   N4    S    
C8    H140  S    
C69   C96   A    
C27   H45   S    
C106  H77   S    
C76   H112  S    
C105  H74   S    
C70   O4    A    
C74   C98   A    
C100  H64   S    
C25   H39   S    
C113  O16   S    
C73   C97   A    
C41   C86   A    
C71   C97   A    
C43   C61   A    
C59   O38   A    
C105  O11   S    
C31   C82   A    
C111  H91   S    
C82   C85   S    
C12   H9    S    
C68   C81   S    
Cu4   O5    S    
Cu3   O6    S    
C16   H18   S    
C28   C29   S    
C17   H19   S    
C71   H57   S    
C73   C90   A    
C123  H121  S    
C109  H85   S    
C102  H70   S    
C43   C114  A    
C47   C63   A    
C123  H120  S    
C22   H34   S    
C9    H143  S    
C105  H75   S    
C55   C65   A    
C9    H142  S    
C76   C98   A    
C15   C16   S    
C15   H14   S    
C26   O33   S    
C45   C62   A    
C5    H131  S    
C111  O15   S    
C116  C117  S    
C48   O39   A    
C75   H101  S    
C115  H99   S    
C112  H93   S    
C40   C86   A    
C32   C82   A    
C7    H137  S    
C110  H89   S    
C88   N2    A    
C10   H3    S    
C80   C86   S    
C2    C79   A    
C24   H24   S    
C123  H122  S    
C76   C94   A    
C40   H60   S    
C118  C119  S    
C24   C46   A    
C118  H107  S    
C55   O21   S    
C38   C55   A    
C14   H10   S    
C60   C67   A    
C2    C44   A    
C8    C9    S    
C107  C108  S    
C77   C99   A    
C6    H135  S    
C77   H123  S    
C13   H13   S    
C18   H21   S    
Cu3   O3    S    
C103  O6    A    
Cu2   O36   S    
C69   C87   A    
Cu1   O39   S    
C122  H118  S    
C30   C80   A    
C57   O24   S    
C121  H117  S    
Cu3   O40   S    
C73   H79   S    
C69   H1    S    
C49   C64   A    
C29   H49   S    
C21   C22   S    
C89   N1    A    
C104  H72   S    
C19   O30   S    
C74   H90   S    
C23   O32   S    
C78   C114  A    
C4    O22   S    
C30   H35   S    
C31   C49   A    
C1    C63   S    
C37   O12   A    
C103  O7    A    
C108  H84   S    
C87   N1    A    
C101  H65   S    
C107  H81   S    
C24   C78   A    
C3    H127  S    
Cu1   N2    S    
C25   H40   S    
C116  O17   S    
C51   O17   S    
C46   C61   A    
C81   O2    A    
C30   C47   A    
Cu4   O2    S    
C51   C63   A    
C26   H41   S    
C115  H98   S    
Cu1   O37   S    
C109  H86   S    
C102  H69   S    
C42   C60   A    
C94   N3    A    
C22   H33   S    
C119  H109  S    
C50   C64   A    
C8    H141  S    
C44   C62   A    
C72   H68   S    
C38   H58   S    
C100  O9    S    
C77   C95   A    
C5    H132  S    
C95   N4    A    
C113  C115  S    
C16   H17   S    
C46   O13   S    
C48   O36   A    
C74   C91   A    
C121  H116  S    
C110  H88   S    
Cu4   N3    S    
C1    O1    A    
C92   O5    A    
C89   O29   S    
C5    H133  S    
C42   H62   S    
C113  H97   S    
C39   C56   A    
C117  H105  S    
C70   O40   A    
C95   O35   S    
C96   C97   S    
C17   H20   S    
C9    H144  S    
C75   C99   A    
C17   C18   S    
C26   C27   S    
C107  O13   S    
C90   N2    A    
C42   C85   A    
C120  H114  S    
C102  C104  S    
C53   C66   A    
C16   H16   S    
C32   C50   A    
C107  H80   S    
C93   N4    A    
C36   H56   S    
C3    C124  S    
C58   C68   A    
C15   O28   S    
C106  H78   S    
C93   O32   S    
Cu3   O8    S    
C29   H50   S    
C116  H103  S    
C33   H53   S    
Cu1   Cu2   S    
C19   H25   S    
C7    H138  S    
C15   H15   S    
C11   H6    S    
C100  H63   S    
C122  O20   S    
C34   C83   A    
C39   C85   A    
C57   C68   A    
C50   O16   S    
C18   H23   S    
C56   C67   A    
C27   H43   S    
C41   C58   A    
Cu2   O38   S    
C108  H83   S    
C44   O10   S    
C101  H66   S    
C75   C93   A    
C23   H36   S    
C109  O14   S    
C121  H115  S    
C118  H108  S    
C8    O25   S    
C104  H71   S    
C59   C62   S    
C4    H130  S    
C40   C57   A    
C20   H28   S    
C117  H104  S    
C116  H102  S    
C81   O3    A    
C113  H96   S    
C112  H94   S    
C66   C103  S    
C118  O18   S    
C28   H48   S    
C11   H7    S    
C120  O19   S    
C14   H12   S    
C124  H125  S    
C10   O26   S    
C22   H32   S    
C108  H82   S    
C35   C84   A    
C90   O30   S    
C119  H110  S    
C59   O37   A    
C6    C7    S    
C54   C66   A    
C41   H61   S    
C25   H38   S    
C33   C51   A    
C111  H92   S    
C60   O26   S    
C105  C106  S    
C94   O33   S    
C34   C52   A    
C45   O11   S    
C23   H37   S    
C20   H29   S    
C67   C70   S    
C56   O22   S    
C104  H73   S    
C102  O10   S    
C19   C20   S    
C11   H5    S    
C112  H95   S    
C12   C14   S    
C3    H126  S    
C39   H59   S    
C115  H100  S    
C92   O8    A    
C6    O24   S    
C109  C110  S    
C7    H139  S    
C29   H51   S    
C79   C83   S    
C72   C89   A    
C119  H111  S    
C48   C61   S    
Cu1   O1    S    
C117  H106  S    
C36   C84   A    
C12   O27   S    
Cu1   O23   S    
C91   N3    A    
C100  C101  S    
C2    H2    S    
C28   O35   S    
Cu4   O4    S    
C34   H54   S    
Cu2   N1    S    
C120  H113  S    
C23   C25   S    
C28   H47   S    
C114  H134  S    
C3    H128  S    
C10   H4    S    
C78   C84   S    
Cu2   O34   S    
C58   O25   S    
C49   O15   S    
C10   C11   S    
C52   C65   A    
C106  H76   S    
C71   C88   A    
C72   C96   A    
C101  H67   S    
C87   O27   S    
C4    C5    S    
C14   H11   S    
C26   H42   S    
C124  H124  S    
C98   C99   S    
C12   H8    S    
C110  H87   S    
C17   O29   S    
C122  C123  S    
C19   H26   S    
C120  C121  S    
C32   H52   S    
C6    H136  S    
C36   C54   A    
Cu4   O7    S    
C52   O18   S    
C37   C64   S    
C18   H22   S    
C47   O14   S    
C35   H55   S    
C27   H44   S    
C53   O19   S    
C124  O21   S    
Cu3   Cu4   S    
C54   O20   S    
C122  H119  S    
C43   O9    S    
C31   H46   S    
C91   O31   S    
