data_mof_unit_30903.cif
_audit_creation_date              2012-12-10T18:34:28-0500
_audit_creation_method            fapswitch 2.2
_symmetry_space_group_name_H-M    P1
_symmetry_Int_Tables_number       1
_space_group_crystal_system       triclinic
_cell_length_a                    14.972153
_cell_length_b                    15.54655
_cell_length_c                    15.703627
_cell_angle_alpha                 90.856227
_cell_angle_beta                  104.755405
_cell_angle_gamma                 80.623722
_cell_volume                      3486.14091269

loop_
_atom_site_label
_atom_site_type_symbol
_atom_type_description
_atom_site_fract_x
_atom_site_fract_y
_atom_site_fract_z
_atom_type_partial_charge
C1    C     C_R   0.440655 0.662080 0.482336 0.879966
C2    C     C_R   0.557691 0.099466 0.488937 -0.070056
C3    C     C_R   0.350574 0.936961 0.457188 -0.083769
C4    C     C_R   0.652609 0.063529 0.526576 -0.065659
C5    C     C_R   0.514989 0.954268 0.478812 0.041994
C6    C     C_R   0.487876 0.045614 0.474871 0.027524
C7    C     C_R   0.393062 0.080667 0.468319 -0.239552
C8    C     C_R   0.611145 0.919677 0.509952 -0.288655
C9    C     C_R   0.324946 0.027491 0.459202 0.455687
C10   C     C_R   0.679949 0.972933 0.533965 0.473186
C11   C     C_R   0.857285 0.582929 0.669320 0.331528
C12   C     C_R   0.559218 0.337922 0.510076 0.922819
C13   C     C_R   0.153544 0.373923 0.354560 0.289470
C14   C     C_R   0.761589 0.588204 0.629626 0.441702
C15   C     C_R   0.236077 0.409618 0.371903 0.499309
C16   C     C_R   0.501188 0.500573 0.661987 0.875259
C17   C     C_R   0.498671 0.499726 0.338014 0.862118
C18   C     C_R   0.793373 0.516786 0.502735 0.489483
C19   C     C_R   0.213392 0.463777 0.508721 0.479856
C20   C     C_R   0.891603 0.501743 0.543666 -0.207342
C21   C     C_R   0.123014 0.437710 0.489579 -0.186454
C22   C     C_R   0.922156 0.535727 0.628515 -0.068365
C23   C     C_R   0.283317 0.882359 0.451137 -0.265940
C24   C     C_R   0.094703 0.391730 0.411261 -0.076974
C25   C     C_R   0.960828 0.455770 0.504021 0.141348
C26   C     C_R   0.057250 0.459930 0.541565 0.156580
C27   C     C_R   0.083695 0.482957 0.630131 -0.229556
C28   C     C_R   0.938874 0.401566 0.431841 -0.227178
C29   C     C_R   0.017207 0.519801 0.672934 -0.149766
C30   C     C_R   0.005708 0.367768 0.388188 -0.175101
C31   C     C_3   0.427071 0.558295 0.010060 0.573743
C32   C     C_3   0.570332 0.444353 0.989615 0.590723
C33   C     C_3   0.508254 0.582544 0.976680 -0.318777
C34   C     C_R   0.718212 0.119275 0.557734 -0.260199
C35   C     C_3   0.489171 0.420148 0.022965 -0.317780
C36   C     C_1   0.503338 0.502034 0.751570 -0.125167
C37   C     C_1   0.495858 0.499327 0.248369 -0.181945
C38   C     C_3   0.417857 0.479677 0.949428 -0.317750
C39   C     C_3   0.579605 0.522961 0.050212 -0.323058
C40   C     C_3   0.500432 0.502788 0.917300 0.069470
C41   C     C_3   0.497030 0.499865 0.082330 0.075678
C42   C     C_1   0.502967 0.502760 0.826906 0.017506
C43   C     C_1   0.495307 0.499397 0.172862 -0.017998
C44   C     C_R   0.403609 0.755351 0.462375 -0.293042
C45   C     C_R   0.309313 0.791715 0.454380 0.453951
C46   C     C_R   0.596613 0.244753 0.510430 -0.294717
C47   C     C_3   0.211825 0.599034 0.569118 -0.195043
C48   C     C_3   0.753167 0.567663 0.362205 -0.311176
C49   C     C_3   0.244708 0.492882 0.258968 -0.292287
C50   C     C_3   0.660587 0.706193 0.654834 -0.237822
C51   C     C_3   0.893384 0.704807 0.746497 0.153305
C52   C     C_3   0.995476 0.717586 0.773000 -0.918252
C53   C     C_3   0.080889 0.360654 0.207599 0.128143
C54   C     C_3   0.021576 0.299695 0.151407 -0.877273
C55   C     C_3   0.298740 0.662181 0.950169 0.095427
C56   C     C_R   0.690041 0.209868 0.553059 0.444080
C57   C     C_3   0.218880 0.725840 0.970593 -0.833458
C58   C     C_3   0.700205 0.342272 0.050057 0.092105
C59   C     C_3   0.774611 0.272713 0.028601 -0.794199
C60   C     C_3   0.187653 0.102107 0.376773 0.110241
C61   C     C_3   0.085319 0.132891 0.374449 -0.786995
C62   C     C_3   0.807674 0.875370 0.516956 0.079259
C63   C     C_3   0.914060 0.863712 0.541649 -0.829794
C64   C     C_3   0.475077 0.226531 0.323335 -0.241287
C65   C     C_3   0.517951 0.771669 0.329410 -0.307748
C66   C     C_3   0.814894 0.271361 0.544025 -0.249346
C67   C     C_R   0.465781 0.809918 0.450358 0.412058
C68   C     C_3   0.192919 0.734728 0.361404 -0.344028
C69   C     C_R   0.535300 0.188989 0.468132 0.408048
C70   C     C_R   0.444813 0.900213 0.461639 -0.068312
H1    H     H_    0.515010 0.648450 0.955465 0.154727
H2    H     H_    0.633929 0.851645 0.524838 0.182292
H3    H     H_    0.041178 0.537132 0.741006 0.195651
H4    H     H_    0.984719 0.327570 0.332281 0.179248
H5    H     H_    0.164152 0.617864 0.502727 0.155707
H6    H     H_    0.272270 0.634220 0.580528 0.227091
H7    H     H_    0.173067 0.622047 0.618867 0.140888
H8    H     H_    0.824181 0.582728 0.365698 0.145185
H9    H     H_    0.707727 0.626026 0.379090 0.180077
H10   H     H_    0.721651 0.551881 0.293045 0.182705
H11   H     H_    0.276867 0.494811 0.202848 0.205175
H12   H     H_    0.482487 0.354221 0.044205 0.153735
H13   H     H_    0.261958 0.548765 0.301569 0.175554
H14   H     H_    0.167570 0.503019 0.231956 0.087411
H15   H     H_    0.588212 0.719095 0.663065 0.179656
H16   H     H_    0.656974 0.723135 0.585523 0.159242
H17   H     H_    0.701262 0.749740 0.699614 0.134666
H18   H     H_    0.857797 0.740227 0.793809 0.173015
H19   H     H_    0.859277 0.736439 0.680249 0.108793
H20   H     H_    0.030728 0.693884 0.720906 0.242549
H21   H     H_    0.999270 0.788039 0.781599 0.227246
H22   H     H_    0.032495 0.681852 0.836071 0.269713
H23   H     H_    0.155408 0.470397 0.668745 0.204399
H24   H     H_    0.128483 0.378413 0.169380 0.182266
H25   H     H_    0.033123 0.420383 0.218701 0.114398
H26   H     H_    0.970478 0.281593 0.185320 0.236131
H27   H     H_    0.982609 0.332700 0.087414 0.222838
H28   H     H_    0.067038 0.239528 0.138743 0.265721
H29   H     H_    0.267927 0.616259 0.900433 0.138405
H30   H     H_    0.341900 0.700118 0.921962 0.137923
H31   H     H_    0.247208 0.772639 0.020312 0.256255
H32   H     H_    0.176886 0.762758 0.909649 0.212218
H33   H     H_    0.172805 0.689838 0.996693 0.253796
H34   H     H_    0.871523 0.381346 0.409626 0.192839
H35   H     H_    0.657677 0.309576 0.084276 0.127864
H36   H     H_    0.736054 0.389261 0.094980 0.136882
H37   H     H_    0.819694 0.303189 0.995832 0.264930
H38   H     H_    0.818786 0.238296 0.090158 0.194442
H39   H     H_    0.740897 0.224500 0.984058 0.261300
H40   H     H_    0.190663 0.054162 0.323608 0.125132
H41   H     H_    0.218613 0.159412 0.363744 0.201140
H42   H     H_    0.079731 0.181325 0.426302 0.266815
H43   H     H_    0.047497 0.163549 0.309098 0.221359
H44   H     H_    0.052293 0.076639 0.386010 0.236024
H45   H     H_    0.645352 0.539471 0.093453 0.146359
H46   H     H_    0.782122 0.895959 0.445943 0.139915
H47   H     H_    0.787285 0.811272 0.526560 0.130257
H48   H     H_    0.942370 0.843031 0.612025 0.261562
H49   H     H_    0.942343 0.813090 0.500425 0.205713
H50   H     H_    0.937011 0.926146 0.530678 0.257409
H51   H     H_    0.503322 0.160843 0.303164 0.135609
H52   H     H_    0.525001 0.272584 0.324364 0.134741
H53   H     H_    0.409572 0.251519 0.272840 0.218018
H54   H     H_    0.581300 0.747409 0.306246 0.174102
H55   H     H_    0.488049 0.837562 0.298476 0.162242
H56   H     H_    0.352061 0.463163 0.906292 0.158255
H57   H     H_    0.467575 0.725574 0.307068 0.157726
H58   H     H_    0.860573 0.318541 0.575423 0.196725
H59   H     H_    0.777235 0.297131 0.476396 0.159063
H60   H     H_    0.860968 0.208222 0.540908 0.143283
H61   H     H_    0.144748 0.686699 0.356771 0.167634
H62   H     H_    0.240963 0.711966 0.318943 0.158051
H63   H     H_    0.149594 0.798677 0.336105 0.164742
H64   H     H_    0.210749 0.909411 0.446438 0.206055
H65   H     H_    0.790310 0.092996 0.590084 0.212593
H66   H     H_    0.371163 0.149008 0.477958 0.213542
N1    N     N_R   0.731710 0.552730 0.549140 -0.196147
N2    N     N_R   0.268290 0.447270 0.450860 -0.199494
O1    O     O_R   0.383110 0.605620 0.475230 -0.593606
O2    O     O_3   0.758044 0.495023 0.416870 -0.594964
O3    O     O_3   0.280407 0.411901 0.305466 -0.551825
O4    O     O_3   0.698570 0.618193 0.678264 -0.540796
O5    O     O_3   0.886649 0.615279 0.752727 -0.583209
O6    O     O_3   0.134785 0.316174 0.286459 -0.600817
O7    O     O_3   0.352488 0.617089 0.028460 -0.616307
O8    O     O_3   0.644443 0.384954 0.971192 -0.594304
O9    O     O_3   0.234585 0.063804 0.460426 -0.619268
O10   O     O_3   0.772974 0.937843 0.572084 -0.622171
O11   O     O_3   0.453808 0.222084 0.405410 -0.590382
O12   O     O_R   0.616890 0.394380 0.524770 -0.572003
O13   O     O_3   0.544183 0.775083 0.422076 -0.620828
O14   O     O_3   0.751854 0.263370 0.595453 -0.571055
O15   O     O_3   0.242372 0.739407 0.450325 -0.615229
O16   O     O_R   0.531900 0.639510 0.506760 -0.572642
O17   O     O_R   0.468100 0.360490 0.493240 -0.553625
O18   O     O_R   0.425620 0.483070 0.607460 -0.567061
O19   O     O_R   0.574380 0.516930 0.392540 -0.564165
O20   O     O_R   0.574400 0.516960 0.638990 -0.549614
O21   O     O_R   0.425600 0.483040 0.361010 -0.576421
O22   O     O_3   0.246063 0.508811 0.583454 -0.606970
Zn1   Zn    Zn3+2 0.400660 0.477370 0.478940 1.020104
Zn2   Zn    Zn3+2 0.599340 0.522630 0.521060 1.036054

loop_
_geom_bond_atom_site_label_1
_geom_bond_atom_site_label_2
_ccdc_geom_bond_type
C21   C26   A    
C14   O4    S    
C34   C56   A    
C23   C45   A    
C22   C29   A    
C27   C29   A    
C36   C42   T    
C39   C41   S    
C53   C54   S    
O17   Zn1   S    
C25   C28   A    
C62   H46   S    
C57   H32   S    
C26   C27   A    
C33   C39   S    
C17   O21   A    
C19   O22   S    
C65   H57   S    
C48   H9    S    
C68   H63   S    
C19   C21   A    
C47   H6    S    
N1    Zn2   S    
C30   H4    S    
C11   C14   A    
C55   O7    S    
C32   O8    S    
C20   C25   A    
C48   H8    S    
C64   H51   S    
C13   O6    S    
C49   H11   S    
C68   H62   S    
C46   C69   A    
C50   H15   S    
C15   O3    S    
C3    C23   A    
C62   H47   S    
C49   O3    S    
C55   H30   S    
C16   O18   A    
C31   C33   S    
C54   H27   S    
C60   O9    S    
C56   O14   S    
C2    C69   A    
C17   O19   A    
C54   H26   S    
C1    O1    A    
C15   N2    A    
C40   C42   S    
C62   O10   S    
C41   C43   S    
C55   H29   S    
C2    C6    A    
O12   Zn2   S    
C38   H56   S    
C35   H12   S    
C47   O22   S    
C57   H33   S    
C4    C34   A    
C8    H2    S    
C33   C40   S    
C48   O2    S    
C67   O13   S    
C51   C52   S    
C32   C35   S    
C12   O12   A    
O1    Zn1   S    
C3    C70   A    
C12   C46   S    
C68   O15   S    
C63   H48   S    
O20   Zn2   S    
C25   C26   A    
C16   O20   A    
C9    O9    S    
C59   H37   S    
C13   C24   A    
C60   C61   S    
C58   H36   S    
C65   H55   S    
C37   C43   T    
C18   N1    A    
C2    C4    A    
C66   O14   S    
C62   C63   S    
C3    C9    A    
C31   O7    S    
C53   H25   S    
C63   H49   S    
C28   H34   S    
C1    C44   S    
C14   N1    A    
C35   C38   S    
O21   Zn1   S    
C17   C37   S    
C18   O2    S    
C50   H17   S    
C20   C22   A    
O18   Zn1   S    
C39   H45   S    
C55   C57   S    
C61   H43   S    
C27   H23   S    
C45   O15   S    
C47   H7    S    
C12   O17   A    
C4    C10   A    
C44   C45   A    
C49   H14   S    
C7    C9    A    
C52   H20   S    
C31   C41   S    
C23   H64   S    
C53   H24   S    
O16   Zn2   S    
C54   H28   S    
C52   H21   S    
C5    C70   A    
C51   H18   S    
C5    C8    A    
C58   O8    S    
C6    C7    A    
C68   H61   S    
C51   O5    S    
C64   H53   S    
C57   H31   S    
C11   C22   A    
C65   O13   S    
C59   H38   S    
C31   C38   S    
C64   O11   S    
C53   O6    S    
C69   O11   S    
C66   H59   S    
C13   C15   A    
C58   C59   S    
C47   H5    S    
C7    H66   S    
C60   H41   S    
C48   H10   S    
C51   H19   S    
C38   C40   S    
C63   H50   S    
C49   H13   S    
C5    C6    A    
C34   H65   S    
C19   N2    A    
C64   H52   S    
C28   C30   A    
C59   H39   S    
C66   H58   S    
N2    Zn1   S    
C18   C20   A    
C32   C40   S    
C1    O16   A    
C35   C41   S    
C24   C30   A    
C60   H40   S    
C50   H16   S    
C33   H1    S    
C65   H54   S    
C29   H3    S    
C8    C10   A    
C21   C24   A    
C46   C56   A    
C61   H44   S    
C32   C39   S    
C58   H35   S    
C44   C67   A    
C67   C70   A    
C61   H42   S    
C11   O5    S    
O19   Zn2   S    
C52   H22   S    
C16   C36   S    
C50   O4    S    
C10   O10   S    
C66   H60   S    
