data_mof_unit_8055.cif
_audit_creation_date              2012-12-11T14:45:27-0500
_audit_creation_method            fapswitch 2.2
_symmetry_space_group_name_H-M    P1
_symmetry_Int_Tables_number       1
_space_group_crystal_system       triclinic
_cell_length_a                    24.890095
_cell_length_b                    7.166428
_cell_length_c                    14.457
_cell_angle_alpha                 89.750708
_cell_angle_beta                  102.608399
_cell_angle_gamma                 93.244103
_cell_volume                      2512.43512912

loop_
_atom_site_label
_atom_site_type_symbol
_atom_type_description
_atom_site_fract_x
_atom_site_fract_y
_atom_site_fract_z
_atom_type_partial_charge
O1    O     O_R   0.319150 0.364170 0.330530 -0.539167
O2    O     O_R   0.680850 0.635830 0.669470 -0.538912
O3    O     O_R   0.180850 0.864170 0.169470 -0.545026
O4    O     O_R   0.819150 0.135830 0.830530 -0.541720
O5    O     O_R   0.210330 0.696850 0.354180 -0.541044
O6    O     O_R   0.789670 0.303150 0.645820 -0.536879
O7    O     O_R   0.289670 0.196850 0.145820 -0.535847
O8    O     O_R   0.710330 0.803150 0.854180 -0.537610
C1    C     C_R   0.197420 0.522285 0.378412 0.690086
C2    C     C_R   0.802586 0.477631 0.621548 0.680288
C3    C     C_R   0.302999 0.028414 0.121801 0.670646
C4    C     C_R   0.696913 0.971565 0.878055 0.681756
O9    O     O_R   0.320550 0.694110 0.341970 -0.549536
O10   O     O_R   0.679450 0.305890 0.658030 -0.546793
O11   O     O_R   0.179450 0.194110 0.158030 -0.539190
O12   O     O_R   0.820550 0.805890 0.841970 -0.542693
O13   O     O_R   0.291860 0.861000 0.157170 -0.530735
O14   O     O_R   0.708140 0.139000 0.842830 -0.536805
O15   O     O_R   0.208140 0.361000 0.342830 -0.530226
O16   O     O_R   0.791860 0.639000 0.657170 -0.537733
C5    C     C_R   0.342333 0.530557 0.361931 0.689761
C6    C     C_R   0.657644 0.469423 0.638149 0.696375
C7    C     C_R   0.158037 0.020435 0.137929 0.701294
C8    C     C_R   0.841916 0.979612 0.862240 0.691176
O17   O     O_3   0.240460 0.529330 0.189380 -0.374119
O18   O     O_3   0.759540 0.470670 0.810620 -0.376659
O19   O     O_3   0.259540 0.029330 0.310620 -0.378254
O20   O     O_3   0.740460 0.970670 0.689380 -0.376563
V1    V     V_3+5 0.251770 0.805510 0.261240 1.430767
V2    V     V_3+5 0.748230 0.194490 0.738760 1.421401
V3    V     V_3+5 0.248230 0.305510 0.238760 1.454722
V4    V     V_3+5 0.751770 0.694490 0.761240 1.422934
C9    C     C_R   0.101937 0.992037 0.076837 -0.074366
C10   C     C_R   0.897921 0.008109 0.923702 -0.063792
C11   C     C_R   0.398973 0.540724 0.423152 -0.064146
C12   C     C_R   0.600955 0.459163 0.577111 -0.059324
C13   C     C_R   0.968738 0.222470 0.017439 -0.136369
C14   C     C_R   0.030985 0.777442 0.983819 -0.191747
C15   C     C_R   0.526086 0.273497 0.474197 -0.195198
C16   C     C_R   0.473799 0.726229 0.526268 -0.178155
C17   C     C_R   0.914421 0.182737 0.968777 -0.154329
C18   C     C_R   0.085335 0.817203 0.032126 -0.164787
C19   C     C_R   0.580733 0.294493 0.524852 -0.166630
C20   C     C_R   0.419170 0.705318 0.475499 -0.170085
C21   C     C_R   0.936863 0.871662 0.930419 -0.231458
C22   C     C_R   0.062997 0.128544 0.070292 -0.179986
C23   C     C_R   0.565112 0.604332 0.576256 -0.188780
C24   C     C_R   0.434797 0.395467 0.424129 -0.230844
C25   C     C_R   0.991795 0.911440 0.978827 0.142881
C26   C     C_R   0.008000 0.088707 0.022154 0.170819
C27   C     C_R   0.509829 0.583389 0.525826 0.162512
C28   C     C_R   0.490062 0.416350 0.474637 0.155748
H1    H     H_    0.114329 0.708840 0.035720 0.142226
H2    H     H_    0.885365 0.290887 0.965223 0.128830
H3    H     H_    0.392796 0.820057 0.476549 0.136593
H4    H     H_    0.607107 0.179775 0.523752 0.131463
C29   C     C_R   0.664084 0.966757 0.950879 -0.035409
C30   C     C_R   0.335248 0.033211 0.048098 -0.042249
C31   C     C_R   0.835310 0.497729 0.549284 -0.033930
C32   C     C_R   0.165070 0.501165 0.451106 -0.044673
C33   C     C_R   0.648914 0.835612 0.097858 -0.162187
C34   C     C_R   0.349704 0.166214 0.901031 -0.122684
C35   C     C_R   0.846947 0.614754 0.397785 -0.151655
C36   C     C_R   0.155002 0.383832 0.603416 -0.149013
C37   C     C_R   0.684059 0.879721 0.037219 -0.168934
C38   C     C_R   0.315045 0.122760 0.962551 -0.144032
C39   C     C_R   0.814213 0.586113 0.463861 -0.168113
C40   C     C_R   0.187533 0.418637 0.537532 -0.164861
C41   C     C_R   0.609522 0.020032 0.928305 -0.222808
C42   C     C_R   0.389503 0.976817 0.068899 -0.116928
C43   C     C_R   0.890087 0.448001 0.570571 -0.233097
C44   C     C_R   0.109331 0.539535 0.428831 -0.128140
C45   C     C_R   0.573912 0.987746 0.991688 0.075137
C46   C     C_R   0.424597 0.009270 0.004660 0.100984
C47   C     C_R   0.926297 0.501732 0.511060 0.075165
C48   C     C_R   0.073936 0.481609 0.489084 0.102510
C49   C     C_R   0.593429 0.880025 0.073250 0.153378
C50   C     C_R   0.404973 0.119033 0.924008 0.088945
C51   C     C_R   0.902440 0.569512 0.420022 0.152349
C52   C     C_R   0.098680 0.418423 0.580495 0.079388
C53   C     C_R   0.518063 0.042125 0.972024 -0.053277
C54   C     C_R   0.480187 0.953214 0.022983 0.045674
C55   C     C_R   0.984652 0.482881 0.536827 -0.055213
C56   C     C_R   0.015419 0.493709 0.463477 0.042799
C57   C     C_R   0.499860 0.814493 0.091386 -0.014322
C58   C     C_R   0.498441 0.180893 0.903539 -0.024742
C59   C     C_R   0.986287 0.517806 0.367718 0.003770
C60   C     C_R   0.013729 0.456044 0.632531 -0.003438
C61   C     C_R   0.556430 0.798254 0.123127 -0.285654
C62   C     C_R   0.441724 0.199714 0.873356 -0.149587
C63   C     C_R   0.932668 0.577194 0.349668 -0.266599
C64   C     C_R   0.068290 0.404061 0.650478 -0.179791
H5    H     H_    0.074917 0.262857 0.105205 0.140615
H6    H     H_    0.925017 0.737459 0.895334 0.131595
H7    H     H_    0.420243 0.268640 0.383592 0.122729
H8    H     H_    0.579676 0.731165 0.616782 0.124947
H9    H     H_    0.980126 0.358670 0.050426 0.109530
H10   H     H_    0.019498 0.640912 0.951430 0.167079
H11   H     H_    0.511908 0.144613 0.435303 0.115806
H12   H     H_    0.487967 0.855084 0.565196 0.129166
H13   H     H_    0.571177 0.700970 0.179520 0.114770
H14   H     H_    0.426661 0.297466 0.817439 0.164547
H15   H     H_    0.912192 0.609630 0.277600 0.114429
H16   H     H_    0.089263 0.372228 0.722309 0.161885
H17   H     H_    0.405091 0.923543 0.139074 0.096316
H18   H     H_    0.594179 0.069718 0.857323 0.117703
H19   H     H_    0.094408 0.613251 0.363816 0.110450
H20   H     H_    0.903421 0.367573 0.633880 0.123670
H21   H     H_    0.273392 0.169444 0.946241 0.109714
H22   H     H_    0.725937 0.835199 0.054804 0.108772
H23   H     H_    0.230482 0.385308 0.554673 0.109086
H24   H     H_    0.771990 0.627362 0.447291 0.106203
H25   H     H_    0.664273 0.756251 0.161180 0.112318
H26   H     H_    0.334200 0.247231 0.838365 0.113073
H27   H     H_    0.828885 0.671801 0.329208 0.112437
H28   H     H_    0.173886 0.330432 0.672419 0.115601
C65   C     C_2   0.464220 0.663458 0.121553 0.347188
H29   H     H_    0.476768 0.599992 0.190691 0.040253
O21   O     O_2   0.422423 0.600559 0.067457 -0.519349
C66   C     C_2   0.535443 0.328426 0.873509 0.368942
H30   H     H_    0.575872 0.363778 0.917737 0.059296
O22   O     O_2   0.520859 0.414669 0.800061 -0.527987
C67   C     C_2   0.005703 0.456811 0.283208 0.330190
H31   H     H_    0.992324 0.525898 0.215781 0.040988
O23   O     O_2   0.033938 0.321946 0.286614 -0.533035
C68   C     C_2   0.992301 0.508509 0.716495 0.333810
H32   H     H_    0.962781 0.616016 0.710962 0.055187
O24   O     O_2   0.007853 0.433766 0.793020 -0.543457

loop_
_geom_bond_atom_site_label_1
_geom_bond_atom_site_label_2
_ccdc_geom_bond_type
O17   V3    S    
C59   C67   S    
O1    C5    A    
C68   H32   S    
C36   H28   S    
C24   H7    S    
C59   C63   A    
O19   V1    S    
O13   V1    S    
O3    C7    A    
C56   C59   A    
C44   C48   A    
O15   V3    S    
C48   C56   A    
C13   H9    S    
C53   C54   A    
C67   H31   S    
C14   C25   A    
C35   C51   A    
C50   C62   A    
O7    C3    A    
C49   C61   A    
O5    C1    A    
C9    C18   A    
C36   C40   A    
O9    V1    S    
O10   V2    S    
C14   C18   A    
C65   O21   D    
C18   H1    S    
O4    C8    A    
C67   O23   D    
C32   C44   A    
O1    V3    S    
C12   C23   A    
O2    V4    S    
O3    V1    S    
C62   H14   S    
C60   C68   S    
C31   C39   A    
C1    O15   A    
C60   C64   A    
C2    O16   A    
C7    C9    S    
O2    C6    A    
C23   H8    S    
C41   C45   A    
O14   V2    S    
C3    C30   S    
C63   H15   S    
C16   C20   A    
C51   C63   A    
C53   C58   A    
C14   H10   S    
C35   H27   S    
O11   C7    A    
C55   C60   A    
O12   C8    A    
C43   H20   S    
C9    C22   A    
C36   C52   A    
C10   C17   A    
C46   C54   A    
C21   H6    S    
C45   C53   A    
C66   O22   D    
O5    V1    S    
C17   H2    S    
C35   C39   A    
O7    V3    S    
C34   C38   A    
C27   C28   A    
O8    V4    S    
C58   C62   A    
C33   C49   A    
C57   C61   A    
O18   V4    S    
C30   C42   A    
C15   C19   A    
O11   V3    S    
C8    C10   S    
C40   H23   S    
C52   C64   A    
C42   C46   A    
C39   H24   S    
C15   H11   S    
C55   C56   A    
C44   H19   S    
C21   C25   A    
O8    C4    A    
O9    C5    A    
C10   C21   A    
C57   C65   S    
C11   C20   A    
C4    C29   S    
O6    V2    S    
C33   H25   S    
C54   C57   A    
C66   H30   S    
C30   C38   A    
O16   V4    S    
C3    O13   A    
C68   O24   D    
C61   H13   S    
C34   C50   A    
C48   C52   A    
C29   C37   A    
C42   H17   S    
C16   H12   S    
C23   C27   A    
C41   H18   S    
C34   H26   S    
C5    C11   S    
O12   V4    S    
C16   C27   A    
C6    C12   S    
C22   C26   A    
C1    C32   S    
O10   C6    A    
O20   V2    S    
C2    C31   S    
C65   H29   S    
C43   C47   A    
C13   C26   A    
C20   H3    S    
C47   C55   A    
C22   H5    S    
C15   C28   A    
C38   H21   S    
C13   C17   A    
C37   H22   S    
C11   C24   A    
O6    C2    A    
C64   H16   S    
C33   C37   A    
C19   H4    S    
C24   C28   A    
C32   C40   A    
C25   C26   A    
C46   C50   A    
C4    O14   A    
C45   C49   A    
C12   C19   A    
C58   C66   S    
C29   C41   A    
C47   C51   A    
O4    V2    S    
C31   C43   A    
