data_mof_unit_12565.cif
_audit_creation_date              2012-12-10T20:21:38-0500
_audit_creation_method            fapswitch 2.2
_symmetry_space_group_name_H-M    P1
_symmetry_Int_Tables_number       1
_space_group_crystal_system       triclinic
_cell_length_a                    19.205254
_cell_length_b                    18.448852
_cell_length_c                    8.889298
_cell_angle_alpha                 90.056868
_cell_angle_beta                  90.721504
_cell_angle_gamma                 90.045118
_cell_volume                      3149.35835209

loop_
_atom_site_label
_atom_site_type_symbol
_atom_type_description
_atom_site_fract_x
_atom_site_fract_y
_atom_site_fract_z
_atom_type_partial_charge
C1    C     C_R   0.365330 0.500273 0.506084 0.904861
C2    C     C_R   0.634680 0.500325 0.493981 0.904048
C3    C     C_R   0.541537 0.725944 0.600364 0.559740
C4    C     C_R   0.461429 0.274233 0.393747 0.581039
C5    C     C_R   0.458398 0.725877 0.399909 0.560261
C6    C     C_R   0.538176 0.273974 0.606227 0.561586
C7    C     C_R   0.540380 0.802478 0.604735 -0.329263
C8    C     C_R   0.458982 0.197224 0.397023 -0.372737
C9    C     C_R   0.459477 0.802420 0.396024 -0.329702
C10   C     C_R   0.540594 0.197495 0.604115 -0.353076
C11   C     C_R   0.499910 0.841561 0.500505 0.176026
C12   C     C_R   0.499814 0.158505 0.500743 0.160761
C13   C     C_R   0.437272 0.961616 0.521749 0.356770
C14   C     C_R   0.561601 0.038614 0.472229 0.349663
C15   C     C_R   0.562499 0.961744 0.479961 0.356212
C16   C     C_R   0.438138 0.038491 0.529721 0.349900
C17   C     C_R   0.499858 0.077319 0.500993 -0.206147
C18   C     C_R   0.499891 0.922939 0.500746 -0.195461
C19   C     C_R   0.499342 0.499966 0.218414 0.936447
C20   C     C_R   0.500655 0.500015 0.781583 0.935374
C21   C     C_1   0.499718 0.499916 0.065353 -0.193492
C22   C     C_1   0.500273 0.499988 0.934641 -0.200291
C23   C     C_R   0.754188 0.461715 0.577192 -0.030666
C24   C     C_R   0.260527 0.560001 0.608597 0.032291
C25   C     C_R   0.245661 0.461790 0.423179 -0.027364
C26   C     C_R   0.739729 0.560497 0.393387 0.033128
C27   C     C_R   0.823169 0.484584 0.604743 0.477420
C28   C     C_R   0.191386 0.581162 0.583273 0.419534
C29   C     C_R   0.176655 0.484675 0.396593 0.477040
C30   C     C_R   0.808833 0.581660 0.419719 0.418931
C31   C     C_R   0.851447 0.541530 0.518811 -0.199335
C32   C     C_R   0.148591 0.541356 0.483706 -0.199943
C33   C     C_R   0.710793 0.504305 0.482420 -0.216563
C34   C     C_R   0.289251 0.504124 0.518335 -0.217388
C35   C     C_R   0.968701 0.555491 0.642286 -0.168039
C36   C     C_R   0.031404 0.556066 0.360679 -0.168174
C37   C     C_R   0.040554 0.552055 0.632322 -0.127836
C38   C     C_R   0.959550 0.552678 0.370557 -0.127708
C39   C     C_R   0.072620 0.551439 0.491144 0.208050
C40   C     C_R   0.927466 0.551513 0.511706 0.207270
H1    H     H_    0.946005 0.558974 0.752187 0.153294
H2    H     H_    0.054119 0.560018 0.250874 0.152852
H3    H     H_    0.070958 0.548366 0.735474 0.164672
H4    H     H_    0.929157 0.549455 0.267301 0.165030
H5    H     H_    0.570295 0.831080 0.689902 0.165622
H6    H     H_    0.426396 0.167156 0.318841 0.172886
H7    H     H_    0.429520 0.830985 0.311061 0.165598
H8    H     H_    0.573336 0.168613 0.683883 0.174803
N1    N     N_R   0.500000 0.689440 0.500000 -0.179419
N2    N     N_R   0.500000 0.310560 0.500000 -0.166613
O1    O     O_R   0.398180 0.560840 0.499960 -0.613075
O2    O     O_R   0.601820 0.439160 0.500040 -0.596444
O3    O     O_R   0.601820 0.560840 0.500040 -0.612760
O4    O     O_R   0.398180 0.439160 0.499960 -0.596198
O5    O     O_R   0.500000 0.560800 0.285330 -0.570316
O6    O     O_R   0.500000 0.439200 0.714670 -0.601111
O7    O     O_R   0.500000 0.560800 0.714670 -0.568273
O8    O     O_R   0.500000 0.439200 0.285330 -0.589291
Zn1   Zn    Zn3+2 0.500000 0.581210 0.500000 1.006975
Zn2   Zn    Zn3+2 0.500000 0.418790 0.500000 0.996024
C41   C     C_3   0.729417 0.389855 0.641134 -0.314076
C42   C     C_3   0.723696 0.332052 0.517935 -0.744807
H9    H     H_    0.702963 0.281029 0.566151 0.257865
H10   H     H_    0.688992 0.349242 0.424059 0.260085
H11   H     H_    0.776064 0.320831 0.471646 0.241822
H12   H     H_    0.766016 0.367340 0.726013 0.228485
H13   H     H_    0.679714 0.397313 0.700800 0.241570
C43   C     C_3   0.300982 0.593615 0.740667 -0.331200
C44   C     C_3   0.316358 0.537235 0.862336 -0.886665
H14   H     H_    0.266884 0.514314 0.904775 0.252833
H15   H     H_    0.348756 0.492528 0.817836 0.244717
H16   H     H_    0.344866 0.563129 0.957696 0.258542
H17   H     H_    0.349870 0.619765 0.704875 0.219259
H18   H     H_    0.271381 0.637869 0.795046 0.244035
C45   C     C_3   0.270317 0.390220 0.357638 -0.317767
C46   C     C_3   0.276157 0.331936 0.479571 -0.751168
H19   H     H_    0.296721 0.281107 0.430104 0.254065
H20   H     H_    0.311044 0.348753 0.573536 0.260253
H21   H     H_    0.223852 0.320524 0.526030 0.242696
H22   H     H_    0.233637 0.367971 0.272474 0.226700
H23   H     H_    0.319942 0.398045 0.297921 0.241983
C47   C     C_3   0.699559 0.594501 0.261534 -0.331217
C48   C     C_3   0.684087 0.538446 0.138980 -0.886082
H24   H     H_    0.651429 0.493739 0.182636 0.244855
H25   H     H_    0.655803 0.564644 0.043834 0.258202
H26   H     H_    0.733514 0.515474 0.096497 0.253063
H27   H     H_    0.650745 0.620728 0.297393 0.219118
H28   H     H_    0.729405 0.638788 0.207911 0.244090
O9    O     O_3   0.864826 0.448206 0.708165 -0.589295
C49   C     C_3   0.848296 0.472642 0.854717 -0.370217
H29   H     H_    0.800139 0.446825 0.896515 0.161396
H30   H     H_    0.842180 0.532640 0.861624 0.146096
H31   H     H_    0.891357 0.457203 0.932591 0.203723
O10   O     O_3   0.163802 0.638286 0.664299 -0.617178
C50   C     C_3   0.166210 0.701178 0.574571 -0.348649
H32   H     H_    0.135356 0.694610 0.468570 0.166367
H33   H     H_    0.220842 0.716337 0.549055 0.151488
H34   H     H_    0.142986 0.746659 0.638316 0.200555
O11   O     O_3   0.134772 0.448561 0.292924 -0.589163
C51   C     C_3   0.151006 0.473424 0.146591 -0.370037
H35   H     H_    0.198699 0.447282 0.103382 0.160508
H36   H     H_    0.157751 0.533385 0.140757 0.146215
H37   H     H_    0.107493 0.458707 0.069162 0.203286
O12   O     O_3   0.836589 0.639076 0.339940 -0.617351
C52   C     C_3   0.834523 0.701577 0.431127 -0.348210
H38   H     H_    0.865449 0.694479 0.536835 0.166491
H39   H     H_    0.779982 0.716762 0.457229 0.151212
H40   H     H_    0.857865 0.747274 0.368321 0.200524
O13   O     O_3   0.580601 0.686846 0.703689 -0.564578
C53   C     C_3   0.652038 0.700009 0.680476 -0.298567
H41   H     H_    0.667469 0.754297 0.723684 0.146092
H42   H     H_    0.666067 0.694398 0.559849 0.150009
H43   H     H_    0.682597 0.659012 0.744264 0.181661
O14   O     O_3   0.422617 0.315368 0.292342 -0.573469
C54   C     C_3   0.415806 0.282165 0.149857 -0.402508
H44   H     H_    0.371989 0.242839 0.149442 0.171209
H45   H     H_    0.464954 0.255757 0.113633 0.149081
H46   H     H_    0.402877 0.324698 0.065921 0.194599
O15   O     O_3   0.419306 0.686723 0.296456 -0.564601
C55   C     C_3   0.347870 0.699704 0.319916 -0.298344
H47   H     H_    0.332381 0.753980 0.277109 0.145992
H48   H     H_    0.333888 0.693981 0.440535 0.150114
H49   H     H_    0.317310 0.658674 0.255903 0.181684
O16   O     O_3   0.577780 0.312980 0.708714 -0.588522
C56   C     C_3   0.555149 0.298195 0.855894 -0.331063
H50   H     H_    0.573104 0.243988 0.894295 0.142538
H51   H     H_    0.497531 0.302823 0.864862 0.156453
H52   H     H_    0.578476 0.338992 0.933272 0.195732
O17   O     O_3   0.376792 0.923200 0.550090 -0.582912
C57   C     C_3   0.328211 0.933855 0.431538 -0.258497
H53   H     H_    0.352839 0.936456 0.318726 0.123263
H54   H     H_    0.296897 0.983393 0.451273 0.215089
H55   H     H_    0.291700 0.887221 0.429534 0.159139
O18   O     O_3   0.621844 0.076139 0.439337 -0.588740
C58   C     C_3   0.626033 0.083248 0.281815 -0.277811
H56   H     H_    0.581017 0.114254 0.235029 0.142928
H57   H     H_    0.629771 0.029391 0.225955 0.183067
H58   H     H_    0.673986 0.113971 0.255209 0.182014
O19   O     O_3   0.623000 0.923450 0.451533 -0.583287
C59   C     C_3   0.671556 0.934227 0.570159 -0.257267
H59   H     H_    0.646907 0.936738 0.682965 0.123594
H60   H     H_    0.702817 0.983859 0.550681 0.215558
H61   H     H_    0.708117 0.887699 0.571965 0.159036
O20   O     O_3   0.377869 0.075889 0.562677 -0.589082
C60   C     C_3   0.373825 0.083342 0.720181 -0.282799
H62   H     H_    0.418788 0.114684 0.766560 0.142768
H63   H     H_    0.370317 0.029594 0.776376 0.183519
H64   H     H_    0.325806 0.113886 0.746850 0.180467

loop_
_geom_bond_atom_site_label_1
_geom_bond_atom_site_label_2
_ccdc_geom_bond_type
C58   H58   S    
C11   C18   S    
O5    Zn1   S    
C15   C18   A    
C36   H2    S    
C50   H32   S    
C46   H21   S    
C6    O16   S    
C4    C8    A    
O14   C54   S    
C3    N1    A    
C50   H34   S    
C58   H56   S    
O4    Zn2   S    
C38   H4    S    
C52   H39   S    
C13   C18   A    
C5    O15   S    
C7    H5    S    
C4    O14   S    
C16   O20   S    
C59   H60   S    
C29   C32   A    
C3    C7    A    
C44   H14   S    
C60   H62   S    
C30   C31   A    
O7    Zn1   S    
C43   H18   S    
C54   H44   S    
C31   C40   S    
C28   O10   S    
C32   C39   S    
C44   H15   S    
C53   H41   S    
C42   H10   S    
O2    Zn2   S    
C41   H12   S    
O11   C51   S    
C43   C44   S    
C23   C33   A    
C12   C17   S    
C56   H52   S    
C59   H61   S    
C23   C27   A    
C45   H22   S    
C55   H49   S    
C20   O6    A    
C25   C34   A    
C26   C47   S    
C21   C22   T    
C25   C29   A    
C14   C17   A    
C5    N1    A    
O10   C50   S    
C10   C12   A    
O12   C52   S    
C60   H63   S    
C55   H48   S    
C1    C34   S    
C7    C11   A    
C15   O19   S    
C19   O8    A    
O3    Zn1   S    
C52   H40   S    
C29   O11   S    
C27   C31   A    
C28   C32   A    
C46   H19   S    
C16   C17   A    
C14   O18   S    
C54   H45   S    
C43   H17   S    
C51   H37   S    
C24   C34   A    
O6    Zn2   S    
C4    N2    A    
C25   C45   S    
C37   H3    S    
C44   H16   S    
C57   H54   S    
C45   C46   S    
C5    C9    A    
C42   H9    S    
C1    O1    A    
C41   H13   S    
C26   C33   A    
C49   H30   S    
C48   H24   S    
C8    C12   A    
C54   H46   S    
C51   H36   S    
C59   H59   S    
O15   C55   S    
C9    C11   A    
C53   H43   S    
C2    O2    A    
C1    O4    A    
C2    C33   S    
C48   H25   S    
C20   C22   S    
C9    H7    S    
C10   H8    S    
C56   H50   S    
C57   H55   S    
O1    Zn1   S    
C60   H64   S    
C55   H47   S    
C49   H31   S    
O17   C57   S    
C19   O5    A    
C35   C40   A    
C58   H57   S    
C6    N2    A    
C42   H11   S    
C35   C37   A    
C36   C39   A    
C45   H23   S    
C24   C28   A    
C46   H20   S    
O20   C60   S    
C2    O3    A    
C6    C10   A    
O19   C59   S    
C50   H33   S    
C26   C30   A    
O18   C58   S    
C52   H38   S    
N1    Zn1   S    
N2    Zn2   S    
C36   C38   A    
C57   H53   S    
O9    C49   S    
C37   C39   A    
O13   C53   S    
C38   C40   A    
C49   H29   S    
C3    O13   S    
C47   H28   S    
C51   H35   S    
C27   O9    S    
C41   C42   S    
C35   H1    S    
C53   H42   S    
C24   C43   S    
C23   C41   S    
C48   H26   S    
C47   C48   S    
C13   C16   A    
C30   O12   S    
C56   H51   S    
C13   O17   S    
C14   C15   A    
C8    H6    S    
C20   O7    A    
O8    Zn2   S    
C47   H27   S    
O16   C56   S    
C19   C21   S    
