data_mof_unit_67172.cif
_audit_creation_date              2013-03-05T15:58:59-0500
_audit_creation_method            fapswitch 2.2
_symmetry_space_group_name_H-M    P1
_symmetry_Int_Tables_number       1
_space_group_crystal_system       triclinic
_cell_length_a                    8.256986
_cell_length_b                    12.910183
_cell_length_c                    15.028444
_cell_angle_alpha                 96.240788
_cell_angle_beta                  97.978989
_cell_angle_gamma                 99.227338
_cell_volume                      1551.86262714

loop_
_atom_site_label
_atom_site_type_symbol
_atom_site_description
_atom_site_fract_x
_atom_site_fract_y
_atom_site_fract_z
_atom_type_partial_charge
P1    P     P_3+3 0.998730 0.403530 0.291970 0.551159
O1    O     O_2   0.827880 0.435260 0.277750 -0.305239
O2    O     O_3   0.100280 0.438960 0.391170 -0.428397
O3    O     O_3   0.625580 0.634130 0.333250 -0.365144
O4    O     O_2   0.718898 0.563365 0.178565 -0.346120
O5    O     O_3   0.952725 0.265267 0.273017 -0.490260
O6    O     O_3   0.618972 0.743518 0.183360 -0.549310
H1    H     H_    0.553592 0.830869 0.291125 0.104139
C1    C     C_3   0.502724 0.899379 0.168044 -0.686228
H2    H     H_    0.630786 0.944237 0.174139 0.224315
P2    P     P_3+3 0.687380 0.751030 0.571310 0.478932
P3    P     P_3+3 0.113546 0.821366 0.362104 0.515845
O7    O     O_2   0.857130 0.766340 0.543890 -0.382103
O8    O     O_3   0.056550 0.691050 0.379010 -0.336729
O9    O     O_2   0.978053 0.881896 0.392225 -0.404303
O10   O     O_3   0.730749 0.794201 0.688021 -0.623308
O11   O     O_3   0.115010 0.817106 0.244433 -0.580115
C2    C     C_3   0.994167 0.866258 0.198008 0.182461
H3    H     H_    0.893608 0.880541 0.236948 0.123574
C3    C     C_3   0.078405 0.971369 0.172757 0.219176
H4    H     H_    0.165443 0.017883 0.231096 0.156278
C4    C     C_3   0.267390 0.775479 0.647084 0.306858
H5    H     H_    0.386030 0.756538 0.630566 0.077876
H6    H     H_    0.165822 0.744107 0.589400 0.138382
C5    C     C_3   0.279529 0.894768 0.663304 -0.766371
H7    H     H_    0.368769 0.928119 0.725854 0.275165
H8    H     H_    0.321743 0.931361 0.605407 0.205129
H9    H     H_    0.155784 0.914143 0.671254 0.272503
Ba1   Ba    Ba6+2 0.843750 0.550210 0.455600 1.641728
C6    C     C_3   0.919794 0.225824 0.352793 0.464540
H10   H     H_    0.809999 0.254004 0.373486 0.074874
H11   H     H_    0.027415 0.250068 0.408293 0.110653
C7    C     C_3   0.885270 0.105997 0.333574 -0.848063
H12   H     H_    0.790020 0.079496 0.272597 0.285624
H13   H     H_    0.840341 0.069378 0.390166 0.200724
H14   H     H_    0.001632 0.078135 0.323651 0.296158
C8    C     C_3   0.745105 0.710920 0.738454 0.203043
H15   H     H_    0.875314 0.698114 0.744423 0.112467
H16   H     H_    0.656105 0.637682 0.709060 0.180761
C9    C     C_3   0.707815 0.744091 0.832463 0.285923
H17   H     H_    0.798985 0.814670 0.865500 0.138899
H18   H     H_    0.581467 0.764377 0.827375 0.128526
P4    P     P_3+3 0.190990 0.596560 0.708040 0.541122
O12   O     O_2   0.361830 0.564780 0.722310 -0.381887
O13   O     O_3   0.089430 0.561130 0.608830 -0.307598
O14   O     O_3   0.564130 0.365960 0.666760 -0.258800
O15   O     O_3   0.237439 0.735019 0.726960 -0.564156
P5    P     P_3+3 0.096355 0.168517 0.619223 0.533857
O16   O     O_3   0.601940 0.368240 0.453770 -0.381164
O17   O     O_3   0.133170 0.309040 0.621000 -0.335881
O18   O     O_2   0.211882 0.123232 0.559029 -0.312136
O19   O     O_3   0.173194 0.137668 0.726353 -0.535282
Ba2   Ba    Ba6+2 0.346090 0.449880 0.544410 1.709265
P6    P     P_3+3 0.582986 0.617218 0.215260 0.477647
C10   C     C_3   0.508118 0.802983 0.217993 0.223417
H19   H     H_    0.379901 0.756987 0.209912 0.140584
H20   H     H_    0.427463 0.951662 0.200696 0.144132
O20   O     O_3   0.587780 0.631850 0.546230 -0.371923
C11   C     C_3   0.419190 0.281994 0.267821 0.341015
H21   H     H_    0.327925 0.319614 0.301848 0.064332
H22   H     H_    0.532037 0.341910 0.268823 0.136353
C12   C     C_3   0.339703 0.242036 0.169352 -0.709326
H23   H     H_    0.210479 0.201018 0.168754 0.237630
H24   H     H_    0.333153 0.309996 0.130456 0.134458
P7    P     P_3+3 0.507574 0.233193 0.427310 0.507497
O21   O     O_2   0.332590 0.233690 0.456160 -0.309625
O22   O     O_3   0.461932 0.196337 0.310188 -0.537803
H25   H     H_    0.151727 0.957515 0.117795 0.124885
C13   C     C_3   0.107201 0.194758 0.793379 1.190258
H26   H     H_    0.970367 0.178583 0.778251 -0.143057
C14   C     C_3   0.158478 0.162497 0.886410 -0.737769
H27   H     H_    0.295148 0.182462 0.905197 0.235801
H28   H     H_    0.104802 0.209914 0.937394 0.165142
P8    P     P_3+3 0.599848 0.382858 0.786267 0.631534
C15   C     C_3   0.646505 0.197223 0.832193 0.352864
H29   H     H_    0.774840 0.242660 0.842667 0.019419
O23   O     O_2   0.476164 0.450178 0.817957 -0.298392
O24   O     O_3   0.524741 0.261894 0.822597 -0.495305
H30   H     H_    0.735276 0.100740 0.932365 0.294646
C16   C     C_3   0.628583 0.141404 0.915919 -0.891427
H31   H     H_    0.512282 0.081660 0.904367 0.281864
H32   H     H_    0.625708 0.199327 0.975261 0.267360
C17   C     C_R   0.813752 0.455181 0.834870 0.152795
C18   C     C_R   0.887782 0.454171 0.925078 -0.173680
C19   C     C_R   0.035290 0.451117 0.108129 -0.213209
C20   C     C_R   0.869992 0.401262 0.074246 0.811298
C21   C     C_R   0.796293 0.409204 0.987108 -0.323616
C22   C     C_R   0.107489 0.459253 0.201608 0.309477
H33   H     H_    0.664995 0.378677 0.968955 0.192824
C23   C     C_R   0.272607 0.508511 0.228601 -0.506652
C24   C     C_R   0.077779 0.543848 0.799411 0.094047
C25   C     C_R   0.152685 0.545132 0.891339 -0.060253
C26   C     C_R   0.057642 0.498397 0.953761 0.053458
C27   C     C_R   0.318251 0.592859 0.923598 -0.004079
C28   C     C_R   0.391927 0.589888 0.012436 -0.121996
C29   C     C_R   0.300263 0.544384 0.075088 0.029560
C30   C     C_R   0.131297 0.497704 0.045727 0.026749
C31   C     C_R   0.370525 0.547783 0.167083 0.155573
C32   C     C_R   0.907181 0.505669 0.775634 0.360702
H34   H     H_    0.521254 0.625982 0.031490 0.202917
H35   H     H_    0.392798 0.634645 0.881075 0.182727
H36   H     H_    0.327238 0.515318 0.299217 0.161928
C33   C     C_R   0.767918 0.173862 0.539689 -0.532241
C34   C     C_R   0.422773 0.806164 0.460448 -0.623008
C35   C     C_R   0.389467 0.980812 0.427212 0.636292
C36   C     C_R   0.325157 0.873979 0.422865 0.101439
C37   C     C_R   0.583534 0.844759 0.507422 0.289444
C38   C     C_R   0.651787 0.954883 0.513060 -0.132514
C39   C     C_R   0.551135 0.024422 0.473613 -0.182674
C40   C     C_R   0.612953 0.135611 0.486038 0.263640
C41   C     C_R   0.875485 0.106959 0.568968 0.104990
C42   C     C_R   0.816841 0.997957 0.556740 -0.103335
H37   H     H_    0.900343 0.949623 0.584495 0.168347
H38   H     H_    0.370711 0.722959 0.455806 0.196105
F1    F     F_    0.716861 0.663038 0.884663 -0.734387
C43   C     C_2   0.432782 0.166655 0.122913 1.175618
O25   O     O_2   0.360797 0.104987 0.056820 -0.692441
O26   O     O_R   0.599450 0.165747 0.155356 -0.706718
H39   H     H_    0.648026 0.113136 0.116663 0.359999
C44   C     C_2   0.430032 0.868497 0.069370 1.225340
O27   O     O_2   0.509635 0.897645 0.011032 -0.579674
O28   O     O_R   0.270495 0.808329 0.044556 -0.831243
H40   H     H_    0.232731 0.796481 0.976533 0.319343
F2    F     F_    0.168264 0.302000 0.799205 -0.698066
C45   C     C_2   0.102355 0.047117 0.890978 1.149751
O29   O     O_2   0.152558 0.979959 0.843663 -0.636558
O30   O     O_R   0.000752 0.017416 0.953990 -0.725379
H41   H     H_    0.986775 0.938947 0.958241 0.336847
C46   C     C_2   0.619963 0.114354 0.750884 1.005443
O31   O     O_2   0.521301 0.119443 0.683594 -0.579125
O32   O     O_R   0.705340 0.029568 0.753896 -0.840006
H42   H     H_    0.663551 0.973612 0.699745 0.333677
F3    F     F_    0.775519 0.342068 0.122798 -0.666101
F4    F     F_    0.833906 0.507605 0.689468 -0.666681
F5    F     F_    0.287901 0.040485 0.387852 -0.689756
C47   C     C_2   0.807582 0.280372 0.586342 1.177666
O33   O     O_2   0.861304 0.355134 0.549246 -0.544828
O34   O     O_R   0.826656 0.287482 0.679720 -0.852841
H43   H     H_    0.931043 0.336283 0.709168 0.315864
C48   C     C_2   0.915791 0.794213 0.112004 1.133180
O35   O     O_2   0.812014 0.822041 0.057891 -0.595650
O36   O     O_R   0.960673 0.695119 0.094392 -0.738912
H44   H     H_    0.896233 0.653525 0.035741 0.352857
F6    F     F_    0.960500 0.030522 0.143705 -0.651848

loop_
_geom_bond_atom_site_label_1
_geom_bond_atom_site_label_2
_geom_bond_distance
_ccdc_geom_bond_type
P3    C36   1.841124 S    
C10   H19   1.111396 S    
P2    O7    1.504206 D    
C3    F6    1.383667 S    
C28   C29   1.407120 A    
C18   C21   1.396151 A    
O6    C10   1.403148 S    
P8    C17   1.868021 S    
P4    O12   1.524776 D    
C34   C36   1.393779 A    
Ba1   O16   2.823600 S    
C19   C20   1.410846 A    
C43   O25   1.219075 D    
C5    H9    1.109141 S    
C12   H23   1.110899 S    
O16   P7    1.769893 S    
C33   C40   1.398417 A    
O7    Ba1   2.934949 S    
C48   O36   1.396319 S    
P1    O1    1.524543 D    
C8    C9    1.518467 S    
C6    H10   1.100179 S    
C9    F1    1.379578 S    
C33   C47   1.439398 S    
C7    H14   1.101685 S    
C38   C39   1.437473 A    
C13   C14   1.525197 S    
C2    H3    1.107440 S    
O2    Ba1   2.954609 S    
O26   H39   1.013204 S    
C23   H36   1.082395 S    
C12   H24   1.110113 S    
O19   C13   1.405189 S    
C11   O22   1.403104 S    
O12   Ba2   2.888718 S    
P4    Ba2   3.451501 S    
P5    O18   1.540616 D    
C41   C42   1.396100 A    
C27   H35   1.075154 S    
P7    O22   1.744383 S    
C4    C5    1.517663 S    
C29   C31   1.416297 A    
P3    O11   1.765063 S    
C37   C38   1.431669 A    
C1    C10   1.525064 S    
P2    O20   1.602451 S    
C15   C16   1.529409 S    
C2    C3    1.533559 S    
O3    Ba1   2.817683 S    
O10   C8    1.391989 S    
C35   F5    1.347319 S    
P1    C22   1.874013 S    
P5    O17   1.787378 S    
C4    O15   1.397245 S    
O13   Ba2   2.955455 S    
C11   H21   1.111587 S    
C17   C32   1.402864 A    
C13   H26   1.102058 S    
H1    C10   1.111116 S    
C25   C27   1.401610 A    
C42   H37   1.073999 S    
C44   O28   1.396501 S    
C7    H12   1.104900 S    
C11   H22   1.108694 S    
O17   Ba2   2.777308 S    
O36   H44   1.011754 S    
P1    O5    1.747460 S    
O4    P6    1.544524 D    
C48   O35   1.222074 D    
C16   H32   1.105296 S    
C24   C25   1.430374 A    
C14   H28   1.112463 S    
C28   H34   1.079796 S    
C47   O33   1.219640 D    
C13   F2    1.384298 S    
C5    H7    1.109030 S    
P8    O23   1.534557 D    
P4    C24   1.891571 S    
C38   C42   1.423624 A    
C32   F4    1.355707 S    
Ba1   O13   2.824666 S    
P1    O2    1.586364 S    
C15   H29   1.107255 S    
C12   C43   1.505299 S    
C8    H15   1.106686 S    
P2    O10   1.750546 S    
C20   F3    1.346478 S    
C17   C18   1.409978 A    
P3    O9    1.552827 D    
C29   C30   1.416319 A    
P1    Ba1   3.450948 S    
O11   C2    1.411057 S    
C3    H4    1.103624 S    
C2    C48   1.505949 S    
Ba2   O21   2.935260 S    
P4    O13   1.586519 S    
C34   H38   1.082044 S    
C47   O34   1.381494 S    
C9    H17   1.105158 S    
O5    C6    1.396219 S    
P3    O8    1.728798 S    
C21   H33   1.078223 S    
P2    C37   1.864975 S    
C45   O29   1.221565 D    
C4    H6    1.109850 S    
O8    Ba1   2.776729 S    
O32   H42   1.008694 S    
C26   C30   1.432209 A    
O14   P8    1.762757 S    
C44   O27   1.222562 D    
C46   O31   1.222096 D    
C1    H2    1.107727 S    
C19   C22   1.433643 A    
C35   C39   1.414346 A    
C11   C12   1.530559 S    
C6    C7    1.515401 S    
O3    P6    1.741752 S    
C20   C21   1.386968 A    
C3    H25   1.105538 S    
C14   C45   1.499338 S    
C22   C23   1.392866 A    
C16   H31   1.110981 S    
Ba2   O20   2.823061 S    
C33   C41   1.395942 A    
C5    H8    1.105682 S    
C35   C36   1.387240 A    
C14   H27   1.105472 S    
C8    H16   1.106976 S    
C39   C40   1.426980 A    
C6    H11   1.109774 S    
O2    Ba2   2.825414 S    
Ba1   Ba2   4.531655 S    
O16   Ba2   2.937708 S    
O14   Ba2   2.817028 S    
C9    H18   1.110241 S    
C25   C26   1.426716 A    
C7    H13   1.096918 S    
C43   O26   1.397095 S    
C1    H20   1.108936 S    
C18   C26   1.414482 A    
C27   C28   1.395408 A    
C15   O24   1.408488 S    
P7    C40   1.871698 S    
C19   C30   1.430294 A    
O34   H43   0.997516 S    
H30   C16   1.108545 S    
C15   C46   1.500671 S    
P5    O19   1.757869 S    
P5    C41   1.884209 S    
O1    Ba1   2.888152 S    
Ba1   O20   2.938462 S    
P2    Ba1   3.482720 S    
P7    O21   1.565845 D    
P8    O24   1.757918 S    
C45   O30   1.394254 S    
C1    C44   1.505288 S    
C4    H5    1.100994 S    
P6    C31   1.845871 S    
O6    P6    1.740972 S    
C24   C32   1.397909 A    
O28   H40   1.013864 S    
P4    O15   1.750023 S    
C23   C31   1.394071 A    
C34   C37   1.399960 A    
O30   H41   1.011083 S    
C46   O32   1.395195 S    
