data_mof_unit_51434.cif
_audit_creation_date              2012-10-26T20:22:08-0400
_audit_creation_method            fapswitch 2.2
_symmetry_space_group_name_H-M    P1
_symmetry_Int_Tables_number       1
_space_group_crystal_system       triclinic
_cell_length_a                    10.823337
_cell_length_b                    9.630211
_cell_length_c                    10.679472
_cell_angle_alpha                 89.93452
_cell_angle_beta                  93.051802
_cell_angle_gamma                 89.864571
_cell_volume                      1111.5496128

loop_
_atom_site_label
_atom_site_type_symbol
_atom_type_description
_atom_site_fract_x
_atom_site_fract_y
_atom_site_fract_z
_atom_type_partial_charge
C1    C     C_R   0.871578 0.502338 0.503068 0.070418
C2    C     C_3   0.593419 0.422955 0.047818 0.204122
C3    C     C_3   0.489064 0.368931 0.956269 -0.105263
C4    C     C_3   0.510932 0.631069 0.043730 -0.105261
C5    C     C_3   0.502807 0.501236 0.876908 -0.035899
C6    C     C_3   0.497191 0.498764 0.123092 -0.035898
C7    C     C_R   0.422287 0.074451 0.419136 0.337619
C8    C     C_R   0.577713 0.925549 0.580864 0.337618
C9    C     C_R   0.576806 0.073331 0.581692 0.328745
C10   C     C_R   0.423194 0.926669 0.418307 0.328745
C11   C     C_R   0.072335 0.444302 0.603254 -0.002910
C12   C     C_R   0.128422 0.497661 0.496932 0.070419
C13   C     C_R   0.927665 0.555701 0.396749 -0.002911
C14   C     C_R   0.942762 0.450796 0.608012 -0.001806
C15   C     C_R   0.057238 0.549204 0.391988 -0.001807
C16   C     C_3   0.152955 0.379812 0.709537 -0.319779
C17   C     C_3   0.847045 0.620200 0.290470 -0.319782
C18   C     C_3   0.882791 0.409477 0.727389 -0.283639
C19   C     C_3   0.117210 0.590525 0.272612 -0.283637
C20   C     C_R   0.262723 0.499699 0.497372 0.535701
C21   C     C_R   0.737277 0.500301 0.502628 0.535702
C22   C     C_R   0.497634 0.499793 0.259651 0.576995
C23   C     C_R   0.502365 0.500207 0.740349 0.576993
C24   C     C_3   0.392906 0.446137 0.032451 0.208318
C25   C     C_3   0.607091 0.553863 0.967549 0.208318
C26   C     C_3   0.406578 0.577045 0.952182 0.204121
Cl1   Cl    Cl    0.317121 0.162313 0.315715 -0.384622
Cl2   Cl    Cl    0.682879 0.837686 0.684284 -0.384622
Cl3   Cl    Cl    0.674771 0.159128 0.692217 -0.497574
Cl4   Cl    Cl    0.325231 0.840872 0.307781 -0.497577
Cl5   Cl    Cl    0.249325 0.370304 0.067429 -0.496108
Cl6   Cl    Cl    0.750671 0.629698 0.932570 -0.496107
Cl7   Cl    Cl    0.283337 0.684733 0.891353 -0.476092
Cl8   Cl    Cl    0.716658 0.315264 0.108647 -0.476086
Cu1   Cu    Cu3+1 0.500000 0.640660 0.500000 1.124150
Cu2   Cu    Cu3+1 0.500000 0.359340 0.500000 1.124153
H1    H     H_    0.480293 0.261190 0.920011 0.214886
H2    H     H_    0.924263 0.470602 0.806859 0.209757
H3    H     H_    0.782069 0.429702 0.725639 0.197665
H4    H     H_    0.101246 0.702614 0.253883 0.204092
H5    H     H_    0.217930 0.570291 0.274358 0.197664
H6    H     H_    0.075730 0.529410 0.193139 0.209756
H7    H     H_    0.519703 0.738811 0.079989 0.214887
H8    H     H_    0.226888 0.453008 0.741010 0.177796
H9    H     H_    0.103720 0.351131 0.793743 0.182440
H10   H     H_    0.196296 0.283208 0.675896 0.174021
H11   H     H_    0.773117 0.547003 0.258987 0.177799
H12   H     H_    0.803697 0.716796 0.324123 0.174025
H13   H     H_    0.896282 0.648900 0.206269 0.182434
H14   H     H_    0.898762 0.297390 0.746127 0.204092
N1    N     N_R   0.500000 0.852070 0.500000 -0.280855
N2    N     N_R   0.500000 0.147930 0.500000 -0.280855
O1    O     O_R   0.319640 0.618740 0.499990 -0.461704
O2    O     O_R   0.680360 0.381260 0.500010 -0.461702
O3    O     O_R   0.680360 0.618740 0.500010 -0.483022
O4    O     O_R   0.319640 0.381260 0.499990 -0.483018
O5    O     O_R   0.499970 0.618770 0.316850 -0.494247
O6    O     O_R   0.500030 0.381230 0.683150 -0.494248
O7    O     O_R   0.500030 0.618770 0.683150 -0.423210
O8    O     O_R   0.499970 0.381230 0.316850 -0.423210

loop_
_geom_bond_atom_site_label_1
_geom_bond_atom_site_label_2
_ccdc_geom_bond_type
C16   H9    S    
C7    C10   A    
C4    C26   S    
C11   C12   A    
C12   C15   A    
C1    C21   S    
Cu2   O4    S    
C4    H7    S    
C13   C17   S    
Cu1   O1    S    
C11   C16   S    
C16   H8    S    
C26   Cl7   S    
Cu1   Cu2   S    
Cu2   N2    S    
C19   H6    S    
C9    Cl3   S    
Cu1   O5    S    
C17   H12   S    
C6    C24   S    
C12   C20   S    
C22   O5    A    
C4    C25   S    
C18   H2    S    
C24   Cl5   S    
C7    Cl1   S    
Cu1   N1    S    
C23   O7    A    
C8    N1    A    
C3    H1    S    
C3    C24   S    
C2    C6    S    
C9    N2    A    
C25   Cl6   S    
C5    C25   S    
C10   N1    A    
C4    C6    S    
C24   C26   S    
C7    N2    A    
C2    C3    S    
C23   O6    A    
Cu2   O6    S    
C20   O4    A    
C13   C15   A    
C22   O8    A    
C21   O2    A    
C8    Cl2   S    
C11   C14   A    
C10   Cl4   S    
Cu2   O2    S    
C19   H4    S    
Cu1   O3    S    
C5    C26   S    
C6    C22   S    
C19   H5    S    
C2    C25   S    
C1    C13   A    
C18   H14   S    
Cu1   O7    S    
C16   H10   S    
C21   O3    A    
C18   H3    S    
C14   C18   S    
C20   O1    A    
C1    C14   A    
C3    C5    S    
C2    Cl8   S    
C15   C19   S    
C17   H13   S    
C17   H11   S    
C8    C9    A    
Cu2   O8    S    
C5    C23   S    
