data_mof_unit_61709.cif
_audit_creation_date              2013-03-05T16:23:42-0500
_audit_creation_method            fapswitch 2.2
_symmetry_space_group_name_H-M    P1
_symmetry_Int_Tables_number       1
_space_group_crystal_system       triclinic
_cell_length_a                    13.98202
_cell_length_b                    15.12104
_cell_length_c                    17.349465
_cell_angle_alpha                 91.352846
_cell_angle_beta                  86.656399
_cell_angle_gamma                 89.775421
_cell_volume                      3660.75411994

loop_
_atom_site_label
_atom_site_type_symbol
_atom_site_description
_atom_site_fract_x
_atom_site_fract_y
_atom_site_fract_z
_atom_type_partial_charge
O1    O     O_R   0.418570 0.628550 0.499990 -0.557946
O2    O     O_R   0.581430 0.371450 0.500010 -0.548370
O3    O     O_R   0.581440 0.628540 0.499990 -0.573817
O4    O     O_R   0.418560 0.371460 0.500010 -0.550849
C1    C     C_R   0.499663 0.670410 0.497624 0.828273
C2    C     C_R   0.500162 0.330653 0.499792 0.818268
O5    O     O_R   0.409120 0.500020 0.613600 -0.549771
O6    O     O_R   0.590880 0.499980 0.386400 -0.562530
O7    O     O_R   0.571990 0.500010 0.613600 -0.552357
O8    O     O_R   0.428010 0.499990 0.386400 -0.552344
C3    C     C_R   0.488421 0.498089 0.649429 0.810374
C4    C     C_R   0.511674 0.500795 0.350597 0.792193
Cu1   Cu    Cu3+1 0.403570 0.500010 0.500000 1.073250
Cu2   Cu    Cu3+1 0.596430 0.499990 0.500000 1.065943
C5    C     C_R   0.486365 0.496973 0.733472 -0.060282
C6    C     C_R   0.513929 0.499802 0.266643 -0.063443
C7    C     C_R   0.551407 0.443355 0.771256 -0.058551
C8    C     C_R   0.455903 0.558921 0.228040 -0.059299
C9    C     C_R   0.558357 0.453379 0.851382 -0.027095
C10   C     C_R   0.444979 0.546650 0.148615 -0.021140
C11   C     C_R   0.499400 0.516141 0.892904 0.102390
C12   C     C_R   0.495905 0.477575 0.107893 0.099496
C13   C     C_R   0.435153 0.568198 0.854843 -0.125459
C14   C     C_R   0.553511 0.419923 0.146942 -0.116278
C15   C     C_R   0.428329 0.558413 0.775699 -0.116962
C16   C     C_R   0.562187 0.430736 0.225856 -0.120342
C17   C     C_2   0.504056 0.530365 0.976144 -0.193899
C18   C     C_2   0.491015 0.463428 0.024448 -0.185799
H1    H     H_    0.603128 0.382736 0.255614 0.203791
H2    H     H_    0.381109 0.601993 0.746948 0.217859
H3    H     H_    0.482287 0.396319 0.002174 0.176489
H4    H     H_    0.514106 0.597466 0.997844 0.174309
H5    H     H_    0.390630 0.617106 0.886583 0.173509
H6    H     H_    0.591407 0.365946 0.116183 0.173883
C19   C     C_R   0.421524 0.910079 0.472435 -0.086048
C20   C     C_R   0.485238 0.093501 0.558922 -0.070915
C21   C     C_R   0.415844 0.817584 0.477780 -0.074626
C22   C     C_R   0.478750 0.186074 0.563439 -0.070944
C23   C     C_R   0.499370 0.768052 0.491727 -0.148110
C24   C     C_R   0.501010 0.234825 0.497026 -0.098049
C25   C     C_R   0.586296 0.812550 0.499026 -0.198842
C26   C     C_R   0.525135 0.192429 0.426276 -0.150729
H7    H     H_    0.651053 0.775555 0.506366 0.235402
H8    H     H_    0.541034 0.231895 0.375785 0.186351
C27   C     C_R   0.592222 0.904443 0.496823 0.374668
C28   C     C_R   0.528434 0.100263 0.419695 0.387977
C29   C     C_R   0.509068 0.953358 0.483013 -0.019926
C30   C     C_R   0.510216 0.050598 0.487205 -0.043863
C31   C     C_R   0.895969 0.443295 0.450384 -0.269022
C32   C     C_R   0.101921 0.535155 0.561359 -0.274228
H9    H     H_    0.934315 0.395611 0.412743 0.187636
H10   H     H_    0.062066 0.561286 0.612110 0.190077
C33   C     C_R   0.795116 0.444142 0.450922 0.489264
C34   C     C_R   0.202702 0.536994 0.560711 0.486018
N1    N     N_R   0.741310 0.499980 0.500000 -0.302368
N2    N     N_R   0.258690 0.500020 0.500000 -0.293302
C35   C     C_R   0.787872 0.555481 0.549178 0.468182
C36   C     C_R   0.212976 0.463252 0.438609 0.468108
C37   C     C_R   0.888674 0.558599 0.547121 -0.268796
C38   C     C_R   0.112281 0.466182 0.436224 -0.276857
H11   H     H_    0.921165 0.606083 0.584913 0.189325
H12   H     H_    0.080716 0.439705 0.385243 0.189080
C39   C     C_R   0.945372 0.501394 0.498223 0.050640
C40   C     C_R   0.054144 0.501139 0.498390 0.055840
C41   C     C_1   0.611816 0.378966 0.727998 0.313784
N3    N     N_1   0.660039 0.327745 0.693495 -0.215584
C42   C     C_1   0.407421 0.632010 0.269721 0.295879
N4    N     N_1   0.368699 0.690541 0.302556 -0.245926
N5    N     N_R   0.750504 0.385059 0.398973 0.138265
O9    O     O_R   0.756860 0.402460 0.325836 -0.363843
O10   O     O_R   0.737453 0.303435 0.418950 -0.319371
N6    N     N_R   0.244103 0.578411 0.625566 0.134564
O11   O     O_R   0.288014 0.653459 0.617254 -0.355531
O12   O     O_R   0.216035 0.554530 0.694792 -0.363297
N7    N     N_R   0.735822 0.608725 0.606393 0.145960
O13   O     O_R   0.720732 0.576768 0.674952 -0.337516
O14   O     O_R   0.738645 0.694155 0.600313 -0.337520
N8    N     N_R   0.265562 0.419415 0.375698 0.146468
O15   O     O_R   0.302267 0.341687 0.385604 -0.325582
O16   O     O_R   0.255066 0.445270 0.305670 -0.348081
C43   C     C_1   0.377273 0.601285 0.110559 0.279971
N9    N     N_1   0.323210 0.644833 0.080286 -0.219822
C44   C     C_1   0.629319 0.403006 0.889892 0.272631
N10   N     N_1   0.685927 0.362847 0.920588 -0.216517
C45   C     C_1   0.336727 0.961488 0.457773 0.289162
N11   N     N_1   0.269279 0.002541 0.446108 -0.192018
C46   C     C_1   0.464664 0.042149 0.627518 0.303913
N12   N     N_1   0.448284 0.001101 0.682137 -0.208682
C47   C     C_1   0.323931 0.775581 0.468538 0.394282
N13   N     N_1   0.250353 0.742590 0.461089 -0.211101
C48   C     C_1   0.447870 0.230860 0.635514 0.270352
N14   N     N_1   0.422613 0.266384 0.692971 -0.257945
N15   N     N_R   0.682588 0.946368 0.510144 0.139373
O17   O     O_R   0.706407 0.020554 0.477948 -0.283720
O18   O     O_R   0.745112 0.906818 0.550315 -0.281006
N16   N     N_R   0.549125 0.059195 0.344496 0.146984
O19   O     O_R   0.587508 0.980746 0.336848 -0.303350
O20   O     O_R   0.535142 0.102932 0.282373 -0.310618

loop_
_geom_bond_atom_site_label_1
_geom_bond_atom_site_label_2
_geom_bond_distance
_ccdc_geom_bond_type
C46   N12   1.157252 T    
N15   O17   1.300808 A    
C31   C39   1.405350 A    
C32   C40   1.402007 A    
N7    O13   1.300583 A    
C33   N5    1.425310 S    
C43   N9    1.157411 T    
C23   C25   1.402247 A    
C45   N11   1.157269 T    
O5    C3    1.302950 A    
C32   C34   1.408900 A    
O1    C1    1.299759 A    
C9    C11   1.411197 A    
C14   C16   1.387416 A    
N8    O16   1.301246 A    
C35   C37   1.408783 A    
C36   C38   1.411485 A    
C38   H12   1.080559 S    
C26   C28   1.395986 A    
C27   C29   1.410813 A    
O4    Cu1   1.954265 S    
N5    O10   1.300517 A    
C3    C5    1.457193 S    
C44   N10   1.157367 T    
C31   H9    1.080614 S    
N16   O20   1.301729 A    
C32   H10   1.080080 S    
C8    C10   1.403319 A    
Cu1   N2    2.025714 S    
C24   C26   1.394396 A    
Cu2   N1    2.025714 S    
C11   C17   1.460320 S    
C19   C29   1.409620 A    
N15   O18   1.301655 A    
C12   C18   1.464035 S    
Cu1   Cu2   2.696571 S    
C25   H7    1.077865 S    
O2    C2    1.295232 A    
C26   H8    1.084385 S    
C9    C44   1.451363 S    
C28   C30   1.417372 A    
C33   N1    1.374855 A    
C20   C46   1.451731 S    
C6    C16   1.396626 A    
C34   N2    1.381089 A    
C37   H11   1.080226 S    
C42   N4    1.156472 T    
C4    C6    1.454788 S    
N6    O12   1.301349 A    
C48   N14   1.157204 T    
N8    O15   1.299778 A    
C13   H5    1.083905 S    
C8    C42   1.450204 S    
C22   C48   1.450319 S    
C14   H6    1.083861 S    
O7    Cu2   1.980560 S    
N7    O14   1.299137 A    
C29   C30   1.470647 S    
O6    C4    1.301139 A    
N16   O19   1.300787 A    
C28   N16   1.444917 S    
O7    C3    1.291879 A    
O3    Cu2   1.954263 S    
O8    C4    1.292321 A    
O4    C2    1.294767 A    
C10   C12   1.413419 A    
C27   N15   1.444018 S    
C11   C13   1.396708 A    
C12   C14   1.397754 A    
O1    Cu1   1.955761 S    
C15   H2    1.081436 S    
C5    C7    1.415263 A    
C1    C23   1.482394 S    
O6    Cu2   1.976942 S    
C19   C21   1.406118 A    
C17   H4    1.086379 S    
C7    C41   1.452496 S    
C18   H3    1.087150 S    
N6    O11   1.299389 A    
O3    C1    1.308029 A    
O8    Cu1   1.980564 S    
C37   C39   1.406378 A    
C21   C47   1.451298 S    
C38   C40   1.403877 A    
C35   N7    1.427098 S    
N1    C35   1.375280 A    
C21   C23   1.420606 A    
C22   C24   1.402840 A    
C19   C45   1.453278 S    
C31   C33   1.409614 A    
C20   C22   1.402430 A    
C7    C9    1.403853 A    
N2    C36   1.380694 A    
C20   C30   1.414360 A    
C2    C24   1.448645 S    
C13   C15   1.386451 A    
N5    O9    1.299999 A    
O2    Cu2   1.955761 S    
C5    C15   1.396750 A    
C36   N8    1.428182 S    
C39   C40   1.521010 S    
O5    Cu1   1.976938 S    
C34   N6    1.427909 S    
C16   H1    1.081649 S    
C6    C8    1.411330 A    
C41   N3    1.157478 T    
C17   C18   1.335553 D    
C25   C27   1.393602 A    
C47   N13   1.157768 T    
C10   C43   1.451605 S    
