data_mof_unit_63075.cif
_audit_creation_date              2012-12-10T21:06:58-0500
_audit_creation_method            fapswitch 2.2
_symmetry_space_group_name_H-M    P1
_symmetry_Int_Tables_number       1
_space_group_crystal_system       triclinic
_cell_length_a                    10.667898
_cell_length_b                    15.839813
_cell_length_c                    15.082551
_cell_angle_alpha                 90.204656
_cell_angle_beta                  90.038886
_cell_angle_gamma                 89.758153
_cell_volume                      2548.57237996

loop_
_atom_site_label
_atom_site_type_symbol
_atom_type_description
_atom_site_fract_x
_atom_site_fract_y
_atom_site_fract_z
_atom_type_partial_charge
C1    C     C_R   0.499190 0.338933 0.499814 0.929888
C2    C     C_R   0.500810 0.661067 0.500186 0.929889
C3    C     C_R   0.872250 0.499673 0.500543 -0.187445
C4    C     C_R   0.127750 0.500327 0.499457 -0.187445
C5    C     C_R   0.936553 0.431446 0.539220 -0.110975
C6    C     C_R   0.063446 0.568554 0.460780 -0.110974
C7    C     C_R   0.434240 0.957083 0.566680 0.277639
C8    C     C_R   0.565728 0.042917 0.433311 0.277647
C9    C     C_R   0.502062 0.913035 0.501702 0.011350
C10   C     C_R   0.497912 0.086965 0.498291 0.011353
C11   C     C_R   0.567348 0.955395 0.435330 -0.236519
C12   C     C_R   0.432622 0.044605 0.564661 -0.236511
C13   C     C_1   0.503701 0.824186 0.501300 0.027475
C14   C     C_1   0.496284 0.175814 0.498698 0.027475
C15   C     C_1   0.496898 0.250637 0.499286 -0.099681
C16   C     C_1   0.503095 0.749363 0.500714 -0.099682
C17   C     C_R   0.407256 0.543884 0.953249 -0.132695
C18   C     C_R   0.592744 0.456116 0.046751 -0.132695
C19   C     C_R   0.500008 0.499949 0.905031 0.072487
C20   C     C_R   0.499992 0.500051 0.094969 0.072487
C21   C     C_R   0.592751 0.456056 0.953022 -0.158372
C22   C     C_R   0.407249 0.543944 0.046978 -0.158372
C23   C     C_R   0.259852 0.500495 0.499882 0.947066
C24   C     C_R   0.740148 0.499505 0.500117 0.947065
C25   C     C_1   0.500047 0.499946 0.807145 0.068385
C26   C     C_1   0.499953 0.500054 0.192854 0.068385
C27   C     C_R   0.205561 0.785469 0.433963 -0.120955
C28   C     C_R   0.794430 0.214534 0.566039 -0.120964
C29   C     C_R   0.146433 0.715684 0.471686 -0.113832
C30   C     C_R   0.853559 0.284318 0.528315 -0.113841
C31   C     C_R   0.130745 0.641362 0.422039 0.136346
C32   C     C_R   0.869255 0.358639 0.577962 0.136354
C33   C     C_R   0.175380 0.637485 0.334558 -0.065421
C34   C     C_R   0.824625 0.362516 0.665445 -0.065420
C35   C     C_R   0.236417 0.706922 0.297614 -0.120279
C36   C     C_R   0.763587 0.293081 0.702390 -0.120279
C37   C     C_R   0.251238 0.780941 0.347214 -0.104660
C38   C     C_R   0.748759 0.219062 0.652789 -0.104654
C39   C     C_R   0.933739 0.568205 0.461731 0.228913
C40   C     C_R   0.066260 0.431795 0.538269 0.228913
H1    H     H_    0.298083 0.834791 0.318490 0.151227
H2    H     H_    0.701913 0.165214 0.681514 0.151226
H3    H     H_    0.334544 0.578290 0.918369 0.146965
H4    H     H_    0.665456 0.421710 0.081631 0.146966
H5    H     H_    0.216587 0.842942 0.472108 0.176398
H6    H     H_    0.783398 0.157062 0.527894 0.176391
H7    H     H_    0.111743 0.719727 0.539044 0.164725
H8    H     H_    0.888245 0.280275 0.460956 0.164721
H9    H     H_    0.163035 0.580754 0.295264 0.136077
H10   H     H_    0.836975 0.419247 0.704738 0.136075
H11   H     H_    0.271609 0.703494 0.230400 0.133493
H12   H     H_    0.728400 0.296509 0.769605 0.133492
H13   H     H_    0.380838 0.079507 0.614703 0.199965
H14   H     H_    0.619134 0.920493 0.385289 0.199964
H15   H     H_    0.334547 0.578390 0.082039 0.131595
H16   H     H_    0.665453 0.421610 0.917961 0.131594
N1    N     N_1   0.499960 0.500020 0.270550 -0.080048
N2    N     N_1   0.500040 0.499980 0.729450 -0.080048
O1    O     O_R   0.500000 0.378020 0.573650 -0.598770
O2    O     O_R   0.500000 0.621980 0.426350 -0.598771
O3    O     O_R   0.500060 0.378020 0.426320 -0.605868
O4    O     O_R   0.499940 0.621980 0.573680 -0.605870
O5    O     O_R   0.316730 0.500010 0.573660 -0.585821
O6    O     O_R   0.683270 0.499990 0.426340 -0.585821
O7    O     O_R   0.316790 0.500010 0.426330 -0.629881
O8    O     O_R   0.683210 0.499990 0.573670 -0.629880
Zn1   Zn    Zn3+2 0.499960 0.500000 0.598370 1.016347
Zn2   Zn    Zn3+2 0.500040 0.500000 0.401630 1.016347
Br1   Br    Br    0.841087 0.662680 0.412570 -0.500289
Br2   Br    Br    0.158912 0.337320 0.587429 -0.500289
Br3   Br    Br    0.343192 0.900308 0.658459 -0.504834
Br4   Br    Br    0.656767 0.099692 0.341527 -0.504826

loop_
_geom_bond_atom_site_label_1
_geom_bond_atom_site_label_2
_ccdc_geom_bond_type
C21   H16   S    
C30   C32   A    
C17   H3    S    
C7    C9    A    
C22   H15   S    
C1    C15   S    
C18   H4    S    
C27   C29   A    
C18   C21   A    
C2    C16   S    
C18   C20   A    
C17   C22   A    
C36   H12   S    
C4    C40   A    
C28   C38   A    
C3    C5    A    
O7    Zn2   S    
C6    C39   A    
C5    C40   A    
C23   O7    A    
C36   C38   A    
C6    C31   S    
C39   Br1   S    
C3    C39   A    
C35   C37   A    
C29   C31   A    
C5    C32   S    
C35   H11   S    
C9    C11   A    
O3    Zn2   S    
C28   H6    S    
C3    C24   S    
C11   H14   S    
C40   Br2   S    
O4    Zn1   S    
C27   C37   A    
C8    C11   A    
C10   C12   A    
C28   C30   A    
C33   C35   A    
C29   H7    S    
C38   H2    S    
C34   C36   A    
C1    O1    A    
C7    Br3   S    
C7    C12   A    
C19   C25   S    
C26   N1    T    
O5    Zn1   S    
C23   O5    A    
C8    Br4   S    
C4    C6    A    
C34   H10   S    
C27   H5    S    
N1    Zn2   S    
C33   H9    S    
C10   C14   S    
O6    Zn2   S    
N2    Zn1   S    
C2    O2    A    
O8    Zn1   S    
C24   O8    A    
O2    Zn2   S    
C24   O6    A    
C25   N2    T    
C13   C16   T    
C30   H8    S    
C2    O4    A    
C4    C23   S    
C9    C13   S    
C14   C15   T    
C17   C19   A    
C31   C33   A    
C1    O3    A    
O1    Zn1   S    
C19   C21   A    
C37   H1    S    
C8    C10   A    
C12   H13   S    
C20   C22   A    
C20   C26   S    
C32   C34   A    
