data_mof_unit_11311.cif
_audit_creation_date              2012-12-10T18:20:36-0500
_audit_creation_method            fapswitch 2.2
_symmetry_space_group_name_H-M    P1
_symmetry_Int_Tables_number       1
_space_group_crystal_system       triclinic
_cell_length_a                    14.0675
_cell_length_b                    13.617324
_cell_length_c                    14.979137
_cell_angle_alpha                 89.685494
_cell_angle_beta                  89.379651
_cell_angle_gamma                 82.078071
_cell_volume                      2841.85573084

loop_
_atom_site_label
_atom_site_type_symbol
_atom_type_description
_atom_site_fract_x
_atom_site_fract_y
_atom_site_fract_z
_atom_type_partial_charge
C1    C     C_R   0.500477 0.501396 0.327002 0.904614
C2    C     C_R   0.499390 0.499430 0.673405 0.907102
C3    C     C_R   0.509362 0.491507 0.954241 -0.106395
C4    C     C_R   0.512136 0.491146 0.047312 -0.106008
C5    C     C_R   0.448729 0.432810 0.909800 -0.098549
C6    C     C_R   0.567867 0.554716 0.092210 -0.094690
C7    C     C_R   0.624326 0.612176 0.949572 0.301445
C8    C     C_R   0.408266 0.359842 0.051297 0.310692
C9    C     C_R   0.628235 0.610741 0.043243 0.426322
C10   C     C_R   0.402377 0.363150 0.957888 0.428554
C11   C     C_R   0.807358 0.427232 0.546029 0.534507
C12   C     C_R   0.191590 0.576679 0.459765 0.541885
C13   C     C_R   0.789309 0.570594 0.452715 -0.119352
C14   C     C_R   0.211571 0.422589 0.537749 -0.154754
C15   C     C_R   0.889411 0.571427 0.450711 0.013591
C16   C     C_R   0.111552 0.419985 0.537612 0.015923
C17   C     C_R   0.949741 0.496563 0.495849 0.056814
C18   C     C_R   0.050843 0.496820 0.495496 0.060685
C19   C     C_R   0.909166 0.421216 0.540928 -0.096225
C20   C     C_R   0.091098 0.573600 0.452516 -0.096952
C21   C     C_R   0.930520 0.644244 0.403234 -0.167446
C22   C     C_R   0.071093 0.341430 0.576967 -0.188945
C23   C     C_R   0.517803 0.314087 0.499843 0.905593
C24   C     C_R   0.482279 0.685881 0.500764 0.892039
C25   C     C_R   0.030098 0.644901 0.403461 -0.179433
C26   C     C_R   0.971280 0.341854 0.578480 -0.179654
C27   C     C_1   0.468318 0.789752 0.504697 -0.189046
C28   C     C_1   0.532238 0.210104 0.497678 -0.136298
C29   C     C_2   0.459417 0.982081 0.510348 0.406678
C30   C     C_2   0.541930 0.017587 0.493978 0.394117
C31   C     C_1   0.540591 0.122177 0.495630 -0.035978
C32   C     C_1   0.460484 0.877587 0.507920 -0.062798
C33   C     C_R   0.436414 0.445123 0.817335 0.477401
C34   C     C_R   0.559954 0.561817 0.185589 0.485492
C35   C     C_R   0.498668 0.498335 0.769454 -0.218944
C36   C     C_R   0.502946 0.501438 0.231623 -0.206287
C37   C     C_R   0.563459 0.549464 0.812788 -0.305595
C38   C     C_R   0.451747 0.436836 0.187882 -0.278195
C39   C     C_R   0.565284 0.552332 0.905371 0.014231
C40   C     C_R   0.457387 0.428607 0.095755 0.007936
H1    H     H_    0.610952 0.588586 0.772979 0.186712
H2    H     H_    0.407405 0.393399 0.227078 0.191847
H3    H     H_    0.742453 0.626446 0.416611 0.181709
H4    H     H_    0.258990 0.362908 0.568440 0.189628
H5    H     H_    0.885607 0.701134 0.366249 0.156634
H6    H     H_    0.116554 0.279569 0.606876 0.151572
H7    H     H_    0.058900 0.702052 0.365442 0.179519
H8    H     H_    0.943217 0.279331 0.608770 0.174379
N1    N     N_R   0.750030 0.500040 0.500070 -0.142352
N2    N     N_R   0.249970 0.499960 0.499930 -0.143438
O1    O     O_R   0.580280 0.500020 0.367860 -0.580739
O2    O     O_R   0.419720 0.499980 0.632140 -0.608755
O3    O     O_R   0.419730 0.500030 0.367840 -0.594919
O4    O     O_R   0.580270 0.499970 0.632160 -0.619954
O5    O     O_R   0.591830 0.359650 0.500030 -0.568356
O6    O     O_R   0.408170 0.640350 0.499970 -0.596264
O7    O     O_R   0.431280 0.359660 0.500010 -0.608271
O8    O     O_R   0.568720 0.640340 0.499990 -0.614669
Zn1   Zn    Zn3+2 0.607200 0.499990 0.500020 1.002207
Zn2   Zn    Zn3+2 0.392800 0.500010 0.499980 0.989564
O9    O     O_3   0.625594 0.954614 0.475301 -0.797281
H9    H     H_    0.677800 0.995591 0.464863 0.339210
O10   O     O_3   0.375811 0.045086 0.529153 -0.784288
H10   H     H_    0.323717 0.004129 0.540135 0.330692
O11   O     O_3   0.366659 0.402056 0.773161 -0.552755
C41   C     C_3   0.277039 0.463292 0.782964 0.161856
H11   H     H_    0.268466 0.518883 0.728065 0.141137
H12   H     H_    0.268396 0.503955 0.847744 0.106910
C42   C     C_3   0.196112 0.400053 0.777368 -0.758008
H13   H     H_    0.190361 0.358325 0.840577 0.268688
H14   H     H_    0.126855 0.448095 0.765878 0.192298
H15   H     H_    0.210018 0.346262 0.721996 0.253892
O12   O     O_3   0.607060 0.627714 0.232681 -0.552323
C43   C     C_3   0.543723 0.716766 0.245011 0.109168
H16   H     H_    0.481572 0.704284 0.288231 0.110898
H17   H     H_    0.516651 0.748547 0.179852 0.147983
C44   C     C_3   0.596871 0.792431 0.290376 -0.716240
H18   H     H_    0.658455 0.807945 0.248097 0.267090
H19   H     H_    0.547578 0.862530 0.300831 0.207104
H20   H     H_    0.623937 0.763751 0.356156 0.258802
O13   O     O_3   0.677552 0.673943 0.903195 -0.786121
H21   H     H_    0.635594 0.709822 0.857490 0.336146
O14   O     O_3   0.365123 0.289273 0.097179 -0.780252
H22   H     H_    0.408319 0.262591 0.145977 0.337818
O15   O     O_3   0.689154 0.664520 0.088417 -0.714280
H23   H     H_    0.730475 0.695760 0.046067 0.379590
O16   O     O_3   0.357258 0.295191 0.911612 -0.713812
H24   H     H_    0.325888 0.252751 0.953262 0.377372
O17   O     O_3   0.764831 0.357247 0.593539 -0.592983
C45   C     C_3   0.767685 0.378258 0.685877 0.094759
H25   H     H_    0.738486 0.456700 0.700561 0.161543
H26   H     H_    0.842059 0.364807 0.711666 0.122963
C46   C     C_3   0.708606 0.310583 0.737032 -0.744323
H27   H     H_    0.741892 0.232188 0.729719 0.243791
H28   H     H_    0.705573 0.330300 0.808956 0.210234
H29   H     H_    0.634412 0.318320 0.710916 0.259835
O18   O     O_3   0.232323 0.653814 0.421539 -0.586418
C47   C     C_3   0.209237 0.740496 0.473907 0.078377
H30   H     H_    0.253377 0.735739 0.535173 0.161730
H31   H     H_    0.132814 0.753922 0.496035 0.116639
C48   C     C_3   0.228929 0.829988 0.419055 -0.801458
H32   H     H_    0.179755 0.840022 0.361223 0.248171
H33   H     H_    0.217040 0.897714 0.460847 0.205967
H34   H     H_    0.304055 0.819265 0.393748 0.259748

loop_
_geom_bond_atom_site_label_1
_geom_bond_atom_site_label_2
_ccdc_geom_bond_type
C2    C35   S    
C41   H12   S    
O16   H24   S    
C29   O10   S    
C46   H27   S    
O5    Zn1   S    
C8    O14   S    
O12   C43   S    
C24   C27   S    
C6    C9    A    
O18   C47   S    
C33   O11   S    
O15   H23   S    
C11   C19   A    
C48   H32   S    
C43   H17   S    
C35   C37   A    
C38   H2    S    
C29   C32   S    
C30   C31   S    
C33   C35   A    
C41   C42   S    
C20   C25   A    
C7    C9    A    
C42   H14   S    
C19   C26   A    
C1    O3    A    
O2    Zn2   S    
C9    O15   S    
C4    C40   A    
C43   C44   S    
C5    C33   A    
C25   H7    S    
C18   C20   A    
C26   H8    S    
C41   H11   S    
C3    C39   A    
C46   H28   S    
C42   H13   S    
O3    Zn2   S    
O13   H21   S    
C21   H5    S    
O4    Zn1   S    
C44   H19   S    
C10   O16   S    
C43   H16   S    
C4    C6    A    
C2    O4    A    
O7    Zn2   S    
O8    Zn1   S    
C44   H18   S    
C6    C34   A    
C42   H15   S    
C29   C30   D    
C11   N1    A    
C11   O17   S    
C45   H26   S    
O14   H22   S    
C12   C20   A    
C17   C18   A    
C23   C28   S    
C23   O5    A    
C1    O1    A    
C12   O18   S    
C2    O2    A    
C13   N1    A    
C16   C18   A    
C7    O13   S    
O11   C41   S    
C46   H29   S    
C47   H31   S    
C13   C15   A    
C14   C16   A    
C8    C10   A    
O1    Zn1   S    
C3    C4    A    
C13   H3    S    
C45   C46   S    
C14   H4    S    
C48   H33   S    
C44   H20   S    
C23   O7    A    
C21   C25   A    
C16   C22   A    
C22   H6    S    
C27   C32   T    
C28   C31   T    
C3    C5    A    
C12   N2    A    
C15   C17   A    
C24   O6    A    
C47   C48   S    
N1    Zn1   S    
N2    Zn2   S    
C36   C38   A    
C5    C10   A    
C37   C39   A    
C38   C40   A    
C45   H25   S    
C14   N2    A    
C17   C19   A    
C34   C36   A    
C37   H1    S    
O9    H9    S    
C34   O12   S    
O10   H10   S    
O6    Zn2   S    
C15   C21   A    
C24   O8    A    
C47   H30   S    
C22   C26   A    
C30   O9    S    
C7    C39   A    
C48   H34   S    
C8    C40   A    
O17   C45   S    
C1    C36   S    
