data_mof_unit_61746.cif
_audit_creation_date              2012-10-26T18:16:20-0400
_audit_creation_method            fapswitch 2.2
_symmetry_space_group_name_H-M    P1
_symmetry_Int_Tables_number       1
_space_group_crystal_system       triclinic
_cell_length_a                    26.01343
_cell_length_b                    25.944031
_cell_length_c                    26.240908
_cell_angle_alpha                 108.832544
_cell_angle_beta                  110.467062
_cell_angle_gamma                 108.3603
_cell_volume                      13754.5069536

loop_
_atom_site_label
_atom_site_type_symbol
_atom_type_description
_atom_site_fract_x
_atom_site_fract_y
_atom_site_fract_z
_atom_type_partial_charge
C1    C     C_R   0.414562 0.914938 0.999669 0.548364
C2    C     C_R   0.195960 0.640561 0.019900 -0.023467
C3    C     C_R   0.257827 0.528917 0.087255 -0.106563
C4    C     C_R   0.212294 0.502031 0.024938 -0.105886
C5    C     C_R   0.191482 0.538073 0.002750 -0.063329
C6    C     C_R   0.133952 0.631675 0.997583 0.006268
C7    C     C_R   0.586453 0.999989 0.086402 0.536837
C8    C     C_R   0.118253 0.669974 0.974913 -0.143449
C9    C     C_R   0.163033 0.716742 0.974934 -0.126549
C10   C     C_R   0.224110 0.725510 0.996897 0.016808
C11   C     C_R   0.275007 0.014600 0.842135 -0.127553
C12   C     C_R   0.327392 0.020967 0.887289 -0.134531
C13   C     C_R   0.358226 0.989310 0.869593 0.016647
C14   C     C_R   0.333919 0.947725 0.807107 -0.142689
C15   C     C_1   0.870691 0.000312 0.370323 -0.042374
C16   C     C_R   0.282115 0.942111 0.761976 -0.128577
C17   C     C_R   0.254314 0.977365 0.779627 0.037032
C18   C     C_R   0.162893 0.930418 0.677626 -0.130718
C19   C     C_R   0.584187 0.084962 0.999128 0.548301
C20   C     C_R   0.126446 0.936865 0.630266 -0.141467
C21   C     C_R   0.138079 0.996311 0.638717 0.018369
C22   C     C_R   0.187254 0.050162 0.694355 -0.031881
C23   C     C_R   0.224186 0.043205 0.741538 -0.125296
C24   C     C_R   0.211540 0.983514 0.733073 0.019363
C25   C     C_R   0.726715 0.231953 0.055584 -0.124946
C26   C     C_R   0.282358 0.835302 0.022458 -0.120565
C27   C     C_R   0.679712 0.186337 0.054480 -0.141336
C28   C     C_R   0.631418 0.133055 0.997995 0.011649
C29   C     C_R   0.630031 0.126141 0.941726 -0.021782
C30   C     C_R   0.677746 0.172074 0.943502 -0.121919
C31   C     C_R   0.413962 0.997575 0.916515 0.551945
C32   C     C_R   0.725939 0.225152 0.000104 0.017600
C33   C     C_R   0.757307 0.294473 0.957183 -0.121510
C34   C     C_R   0.802967 0.340334 0.957171 -0.131609
C35   C     C_R   0.866494 0.366412 0.000643 0.014466
C36   C     C_R   0.883613 0.346185 0.044421 -0.130522
C37   C     C_R   0.329364 0.881538 0.024066 -0.129552
C38   C     C_R   0.837838 0.300457 0.044595 -0.120164
C39   C     C_R   0.774406 0.274099 0.000774 0.032934
C40   C     C_R   0.007242 0.085113 0.592372 0.553234
C41   C     C_R   0.922854 0.000149 0.422682 0.537031
C42   C     C_R   0.010160 0.914971 0.424932 0.545193
C43   C     C_1   0.638867 0.000016 0.138699 -0.043338
C44   C     C_R   0.092381 0.999431 0.592195 0.557494
C45   C     C_R   0.998801 0.585885 0.084083 0.556241
C46   C     C_R   0.085579 0.584458 0.998854 0.551464
C47   C     C_R   0.001603 0.414379 0.915984 0.553382
C48   C     C_R   0.365291 0.866603 0.998502 0.017413
C49   C     C_R   0.914547 0.414509 0.000228 0.557377
C50   C     C_R   0.958849 0.162283 0.701537 -0.132049
C51   C     C_R   0.960309 0.116673 0.656905 -0.132979
C52   C     C_R   0.005365 0.133294 0.639052 0.016147
C53   C     C_R   0.048493 0.196313 0.666155 -0.135412
C54   C     C_R   0.047710 0.241758 0.711633 -0.116860
C55   C     C_1   0.681871 0.000078 0.181631 -0.035092
C56   C     C_R   0.003005 0.224762 0.729478 0.031567
C57   C     C_R   0.051547 0.303943 0.840975 -0.003857
C58   C     C_R   0.050475 0.350324 0.885704 -0.138447
C59   C     C_R   0.353448 0.804839 0.971208 -0.129137
C60   C     C_R   0.002306 0.365735 0.868650 -0.001265
C61   C     C_R   0.954543 0.334003 0.806249 -0.137207
C62   C     C_R   0.954780 0.287365 0.761509 -0.136281
C63   C     C_R   0.003109 0.272344 0.778323 0.018586
C64   C     C_R   0.953762 0.762089 0.288235 -0.121193
C65   C     C_R   0.956362 0.807027 0.337346 -0.129552
C66   C     C_R   0.008495 0.866890 0.374756 0.016100
C67   C     C_1   0.733333 0.000168 0.233022 -0.004519
C68   C     C_R   0.058153 0.880983 0.362603 -0.130390
C69   C     C_R   0.055953 0.835762 0.314136 -0.121771
C70   C     C_R   0.307070 0.758881 0.970332 -0.121815
C71   C     C_R   0.003672 0.776139 0.276555 0.030515
C72   C     C_R   0.053133 0.716499 0.239485 -0.121970
C73   C     C_R   0.051716 0.670133 0.192892 -0.129508
C74   C     C_R   0.999733 0.635209 0.132318 0.015556
C75   C     C_R   0.949100 0.647403 0.118987 -0.131951
C76   C     C_R   0.950106 0.693268 0.166042 -0.120118
C77   C     C_R   0.002236 0.728108 0.226507 0.030621
C78   C     C_1   0.776332 0.000240 0.275973 -0.004438
C79   C     C_1   0.827764 0.000308 0.327372 -0.034676
C80   C     C_R   0.198615 0.113313 0.705733 0.038972
C81   C     C_R   0.271392 0.773864 0.996063 0.031852
C82   C     C_R   0.236151 0.145081 0.686937 -0.068602
C83   C     C_R   0.247076 0.205033 0.698048 -0.108709
C84   C     C_R   0.220932 0.233575 0.728253 -0.109958
C85   C     C_R   0.183853 0.202218 0.747395 -0.115233
C86   C     C_R   0.172560 0.142179 0.736143 -0.092331
C87   C     C_R   0.577476 0.074034 0.880189 0.044510
C88   C     C_R   0.588079 0.032248 0.841110 -0.088108
C89   C     C_R   0.538649 0.984284 0.782082 -0.113454
C90   C     C_R   0.478693 0.978366 0.761421 -0.106555
C91   C     C_R   0.468053 0.020313 0.799809 -0.108610
C92   C     C_R   0.240269 0.687554 0.019353 -0.123329
C93   C     C_R   0.517092 0.067738 0.859212 -0.070584
C94   C     C_R   0.102942 0.288719 0.860889 0.031144
C95   C     C_R   0.165338 0.334267 0.888555 -0.114272
C96   C     C_R   0.213977 0.320143 0.907850 -0.120115
C97   C     C_R   0.200671 0.260551 0.899712 -0.110733
C98   C     C_R   0.138671 0.214921 0.872065 -0.122443
C99   C     C_R   0.089913 0.228888 0.852782 -0.084005
C100  C     C_R   0.216349 0.601514 0.043122 0.047922
C101  C     C_R   0.262534 0.628365 0.105574 -0.092032
C102  C     C_R   0.282943 0.592044 0.127547 -0.116916
Cu1   Cu    Cu3+1 0.500810 0.955960 0.956750 0.936453
Cu2   Cu    Cu3+1 0.499190 0.044040 0.043250 0.918691
Cu3   Cu    Cu3+1 0.053200 0.044090 0.509100 0.930996
Cu4   Cu    Cu3+1 0.965100 0.955990 0.509100 0.920404
Cu5   Cu    Cu3+1 0.043250 0.499980 0.043240 0.933527
Cu6   Cu    Cu3+1 0.956750 0.499990 0.956740 0.915600
H1    H     H_    0.255397 0.847615 0.042848 0.108012
H2    H     H_    0.337379 0.928804 0.045005 0.126325
H3    H     H_    0.676775 0.166813 0.900416 0.107554
H4    H     H_    0.708526 0.275292 0.923476 0.106420
H5    H     H_    0.788509 0.355239 0.923037 0.126178
H6    H     H_    0.932320 0.365636 0.078478 0.126806
H7    H     H_    0.851990 0.285020 0.078325 0.107562
H8    H     H_    0.924152 0.148893 0.715214 0.108166
H9    H     H_    0.926204 0.068501 0.636451 0.129990
H10   H     H_    0.083441 0.210457 0.652976 0.133535
H11   H     H_    0.081953 0.290112 0.733058 0.110177
H12   H     H_    0.344444 0.051696 0.935653 0.129486
H13   H     H_    0.380472 0.792118 0.951147 0.128220
H14   H     H_    0.086978 0.373941 0.933948 0.123488
H15   H     H_    0.916756 0.344930 0.792065 0.130013
H16   H     H_    0.917596 0.263369 0.713453 0.116737
H17   H     H_    0.913302 0.716089 0.259978 0.108595
H18   H     H_    0.917270 0.795176 0.345524 0.127673
H19   H     H_    0.098844 0.926812 0.390779 0.125588
H20   H     H_    0.094829 0.847398 0.305605 0.107772
H21   H     H_    0.093541 0.742645 0.285994 0.107034
H22   H     H_    0.091470 0.661757 0.204254 0.125733
H23   H     H_    0.356310 0.921646 0.792883 0.131610
H24   H     H_    0.908505 0.620911 0.072598 0.123101
H25   H     H_    0.298857 0.711523 0.949405 0.107805
H26   H     H_    0.910531 0.701923 0.155254 0.109024
H27   H     H_    0.287726 0.694572 0.036504 0.109888
H28   H     H_    0.071354 0.664326 0.957886 0.129195
H29   H     H_    0.149870 0.745669 0.957184 0.112019
H30   H     H_    0.252789 0.041277 0.855600 0.104865
H31   H     H_    0.256671 0.123347 0.663602 0.103676
H32   H     H_    0.275841 0.229378 0.683298 0.099704
H33   H     H_    0.229350 0.279951 0.736797 0.102344
H34   H     H_    0.266413 0.913587 0.713429 0.105977
H35   H     H_    0.163553 0.224346 0.770582 0.136572
H36   H     H_    0.143562 0.118208 0.750976 0.103604
H37   H     H_    0.634480 0.036777 0.856437 0.104226
H38   H     H_    0.546915 0.951969 0.752190 0.103563
H39   H     H_    0.440579 0.941536 0.715534 0.102516
H40   H     H_    0.421915 0.016387 0.783351 0.108640
H41   H     H_    0.508292 0.100086 0.888445 0.097624
H42   H     H_    0.176179 0.380408 0.894529 0.095843
H43   H     H_    0.261971 0.355347 0.928943 0.107229
H44   H     H_    0.238344 0.249623 0.914474 0.109259
H45   H     H_    0.153603 0.884305 0.671037 0.111502
H46   H     H_    0.128399 0.168731 0.865586 0.103565
H47   H     H_    0.042134 0.193275 0.831943 0.110014
H48   H     H_    0.282481 0.677301 0.137190 0.103625
H49   H     H_    0.318358 0.612879 0.175765 0.104589
H50   H     H_    0.273798 0.500872 0.104256 0.106467
H51   H     H_    0.193446 0.453334 0.993902 0.095164
H52   H     H_    0.156296 0.516739 0.954293 0.096219
H53   H     H_    0.088133 0.895413 0.587346 0.122798
H54   H     H_    0.263222 0.084191 0.784447 0.111032
H55   H     H_    0.763243 0.272959 0.099682 0.111303
H56   H     H_    0.681450 0.192326 0.097976 0.125251
O1    O     O_R   0.436410 0.898530 0.963480 -0.512153
O2    O     O_R   0.962300 0.564250 0.026560 -0.510191
O3    O     O_R   0.100790 0.564260 0.036510 -0.494834
O4    O     O_R   0.435050 0.972920 0.036520 -0.510921
O5    O     O_R   0.027750 0.564260 0.963460 -0.512969
O6    O     O_R   0.037700 0.435720 0.973410 -0.509936
O7    O     O_R   0.964660 0.435720 0.900370 -0.511277
O8    O     O_R   0.972250 0.435710 0.036510 -0.510396
O9    O     O_R   0.899210 0.435710 0.963470 -0.513405
O10   O     O_R   0.563780 0.962800 0.026580 -0.489523
O11   O     O_R   0.562420 0.037190 0.099620 -0.488949
O12   O     O_R   0.970770 0.027100 0.572200 -0.511637
O13   O     O_R   0.564950 0.027080 0.963480 -0.490919
O14   O     O_R   0.563590 0.101470 0.036520 -0.510241
O15   O     O_R   0.437580 0.962810 0.900380 -0.506728
O16   O     O_R   0.436220 0.037200 0.973420 -0.516561
O17   O     O_R   0.045170 0.101500 0.572190 -0.503182
O18   O     O_R   0.983250 0.037240 0.445990 -0.488475
O19   O     O_R   0.908850 0.962840 0.446000 -0.490586
O20   O     O_R   0.047530 0.972970 0.446000 -0.510517
O21   O     O_R   0.973130 0.898570 0.446000 -0.512615
O22   O     O_R   0.109450 0.037230 0.572200 -0.500741
O23   O     O_R   0.035050 0.962830 0.572200 -0.509343
O24   O     O_R   0.035340 0.564250 0.099610 -0.511312

loop_
_geom_bond_atom_site_label_1
_geom_bond_atom_site_label_2
_ccdc_geom_bond_type
C59   H13   S    
C66   C68   A    
C87   C88   A    
C98   H46   S    
C101  C102  A    
C8    H28   S    
C73   C74   A    
C93   H41   S    
C95   C96   A    
C36   H6    S    
C85   H35   S    
C49   O9    A    
C97   C98   A    
C90   C91   A    
C86   H36   S    
C72   H21   S    
C26   C37   A    
C85   C86   A    
C52   C53   A    
C34   H5    S    
C12   C13   A    
C62   C63   A    
C18   C24   A    
C94   C99   A    
C21   C22   A    
C28   C29   A    
C11   H30   S    
Cu4   O23   S    
C38   C39   A    
C64   C71   A    
C4    H51   S    
C91   C93   A    
C58   C60   A    
C7    O10   A    
C18   C20   A    
C34   C35   A    
C32   C39   S    
C69   C71   A    
C70   C81   A    
C83   H32   S    
C80   C86   A    
Cu1   Cu2   S    
C72   C77   A    
C47   C60   S    
C12   H12   S    
C9    H29   S    
C15   C79   T    
C35   C36   A    
C69   H20   S    
C68   C69   A    
C99   H47   S    
C35   C49   S    
C3    H50   S    
Cu5   Cu6   S    
C7    C43   S    
Cu3   O18   S    
C6    C46   S    
C9    C10   A    
C19   O13   A    
Cu1   O15   S    
Cu5   O8    S    
C23   H54   S    
C25   C32   A    
C2    C100  S    
C13   C14   A    
Cu6   O9    S    
C2    C6    A    
C67   C78   T    
C102  H49   S    
C62   H16   S    
C91   H40   S    
C57   C63   A    
Cu2   O11   S    
Cu5   O3    S    
C14   H23   S    
C89   H38   S    
C54   C56   A    
C58   H14   S    
C90   H39   S    
C74   C75   A    
C51   C52   A    
C17   C24   S    
C84   C85   A    
C15   C41   S    
C72   C73   A    
C80   C82   A    
C46   O3    A    
C40   O12   A    
C76   H26   S    
C78   C79   S    
C16   C17   A    
C6    C8    A    
C44   O23   A    
C101  H48   S    
C42   O20   A    
C40   C52   S    
C96   H43   S    
Cu5   O24   S    
C82   C83   A    
Cu1   O10   S    
C50   C56   A    
C7    O11   A    
C45   C74   S    
Cu1   O13   S    
Cu3   O22   S    
C16   H34   S    
C75   C76   A    
C29   C30   A    
C27   H56   S    
Cu2   O4    S    
C21   C44   S    
C47   O7    A    
C83   C84   A    
C26   H1    S    
C5    C100  A    
C1    O1    A    
C88   H37   S    
C5    H52   S    
C96   C97   A    
C20   C21   A    
C82   H31   S    
C50   C51   A    
C8    C9    A    
C56   C63   S    
C94   C95   A    
C1    C48   S    
C95   H42   S    
C33   C39   A    
C76   C77   A    
C37   C48   A    
C2    C92   A    
C19   C28   S    
C68   H19   S    
C37   H2    S    
C18   H45   S    
C42   O21   A    
C43   C55   T    
C98   C99   A    
C26   C81   A    
Cu6   O5    S    
C57   C94   S    
C14   C16   A    
C41   O18   A    
C92   H27   S    
C53   C54   A    
C3    C4    A    
C71   C77   S    
C47   O6    A    
C75   H24   S    
C3    C102  A    
C48   C59   A    
C40   O17   A    
C45   O2    A    
C33   H4    S    
Cu6   O2    S    
C73   H22   S    
C11   C17   A    
C23   C24   A    
C53   H10   S    
C13   C31   S    
C41   O19   A    
Cu4   O21   S    
C4    C5    A    
C49   O8    A    
C55   C67   S    
C11   C12   A    
C45   O24   A    
Cu1   O1    S    
C19   O14   A    
C25   C27   A    
Cu3   Cu4   S    
C30   H3    S    
C10   C81   S    
C1    O4    A    
C46   O5    A    
C31   O16   A    
C61   H15   S    
C64   C65   A    
C36   C38   A    
C22   C80   S    
C65   H18   S    
C30   C32   A    
C38   H7    S    
C57   C58   A    
Cu2   O16   S    
C84   H33   S    
C25   H55   S    
C70   H25   S    
C20   H53   S    
C87   C93   A    
C100  C101  A    
C51   H9    S    
C97   H44   S    
C33   C34   A    
C50   H8    S    
C65   C66   A    
Cu3   O20   S    
C61   C62   A    
Cu4   O19   S    
C29   C87   S    
C59   C70   A    
C10   C92   A    
C88   C89   A    
C64   H17   S    
Cu6   O7    S    
C31   O15   A    
C27   C28   A    
C42   C66   S    
Cu4   O12   S    
C22   C23   A    
C60   C61   A    
Cu2   O14   S    
Cu3   O17   S    
C89   C90   A    
C54   H11   S    
C44   O22   A    
Cu5   O6    S    
