data_mof_unit_12193.cif
_audit_creation_date              2012-12-10T18:09:53-0500
_audit_creation_method            fapswitch 2.2
_symmetry_space_group_name_H-M    P1
_symmetry_Int_Tables_number       1
_space_group_crystal_system       triclinic
_cell_length_a                    10.686022
_cell_length_b                    12.644099
_cell_length_c                    13.394875
_cell_angle_alpha                 84.656627
_cell_angle_beta                  93.876163
_cell_angle_gamma                 99.440197
_cell_volume                      1775.05725477

loop_
_atom_site_label
_atom_site_type_symbol
_atom_type_description
_atom_site_fract_x
_atom_site_fract_y
_atom_site_fract_z
_atom_type_partial_charge
C1    C     C_R   0.491549 0.441574 0.689532 0.832133
C2    C     C_R   0.479895 0.472345 0.959512 0.062117
C3    C     C_R   0.534905 0.476758 0.867065 0.015967
C4    C     C_R   0.740800 0.497062 0.504952 0.847611
C5    C     C_R   0.542563 0.536995 0.033583 -0.089017
C6    C     C_R   0.644164 0.619405 0.009554 -0.043288
C7    C     C_R   0.702122 0.621288 0.918135 0.510578
C8    C     C_R   0.648428 0.548474 0.848536 -0.326576
C9    C     C_R   0.518644 0.510350 0.134332 0.345644
C10   C     C_R   0.643157 0.681388 0.177837 0.419084
C11   C     C_R   0.473209 0.410587 0.794202 -0.120041
C12   C     C_3   0.121069 0.497532 0.516298 0.061645
C13   C     C_R   0.395387 0.109574 0.310743 -0.387957
C14   C     C_R   0.631850 0.792848 0.643930 0.036346
C15   C     C_R   0.656954 0.894445 0.679261 -0.245215
C16   C     C_R   0.521728 0.557805 0.310027 0.920829
C17   C     C_R   0.613885 0.980617 0.622858 -0.186604
C18   C     C_R   0.548326 0.965798 0.528980 -0.002387
C19   C     C_R   0.526516 0.860980 0.494871 0.134180
C20   C     C_R   0.499323 0.049573 0.468597 -0.062150
C21   C     C_R   0.456418 0.032804 0.367684 0.035097
C22   C     C_R   0.464200 0.934722 0.329512 0.137921
C23   C     C_3   0.074723 0.561333 0.417301 -0.083261
C24   C     C_R   0.462208 0.846096 0.399769 0.234934
C25   C     C_R   0.490421 0.149301 0.503749 -0.166641
C26   C     C_R   0.376907 0.201437 0.353489 0.617576
C27   C     C_R   0.259023 0.498318 0.509443 0.860986
C28   C     C_3   0.903173 0.375314 0.509414 0.372412
C29   C     C_3   0.048016 0.377387 0.517032 -0.042249
C30   C     C_3   0.932254 0.564444 0.419193 -0.369772
C31   C     C_3   0.936957 0.537841 0.610242 -0.517437
C32   C     C_3   0.876429 0.493039 0.510296 -0.014953
C33   C     C_3   0.796723 0.219303 0.435468 0.152312
C34   C     C_3   0.084986 0.552437 0.612186 0.401139
C35   C     C_3   0.883962 0.146222 0.401512 -0.426785
C36   C     C_3   0.845376 0.029387 0.440934 -0.941009
C37   C     C_3   0.135659 0.675362 0.612145 -0.888232
C38   C     C_3   0.761007 0.849454 0.220528 0.110242
C39   C     C_3   0.902697 0.839911 0.232183 -0.362039
C40   C     C_3   0.985205 0.943260 0.192504 -0.991884
C41   C     C_3   0.917098 0.644410 0.894711 0.061158
C42   C     C_3   0.977015 0.625800 0.000996 -0.358760
C43   C     C_3   0.098402 0.577069 0.999213 -0.973924
C44   C     C_3   0.582710 0.345974 0.175108 0.193634
C45   C     C_R   0.692069 0.692398 0.080734 -0.339117
C46   C     C_3   0.561532 0.255897 0.103970 -0.356540
C47   C     C_3   0.657111 0.178740 0.127888 -1.014640
C48   C     C_3   0.183029 0.261085 0.920137 -0.964241
C49   C     C_3   0.190916 0.242252 0.276452 0.048754
C50   C     C_3   0.150824 0.299675 0.177916 -0.291949
C51   C     C_3   0.008433 0.275726 0.153377 -1.043284
C52   C     C_3   0.435193 0.915869 0.219777 -0.916655
C53   C     C_3   0.335980 0.774163 0.395125 -0.822204
C54   C     C_3   0.088862 0.295093 0.601439 -0.980654
C55   C     C_3   0.105421 0.522135 0.317334 -0.950130
C56   C     C_R   0.557297 0.586570 0.205097 -0.268437
C57   C     C_3   0.137242 0.502912 0.714095 -0.876118
C58   C     C_R   0.368878 0.332045 0.817102 -0.220878
C59   C     C_R   0.308107 0.332806 0.905036 0.224922
C60   C     C_R   0.360944 0.406240 0.974263 -0.138003
H1    H     H_    0.917786 0.649047 0.424008 0.169890
H2    H     H_    0.664250 0.725813 0.688245 0.152353
H3    H     H_    0.636536 0.058251 0.652644 0.131461
H4    H     H_    0.709127 0.906222 0.750547 0.170000
H5    H     H_    0.071668 0.346668 0.447859 0.205047
H6    H     H_    0.880127 0.538055 0.348549 0.207836
H7    H     H_    0.904507 0.615182 0.620800 0.206738
H8    H     H_    0.898896 0.482172 0.674392 0.140511
H9    H     H_    0.706941 0.206701 0.388431 0.155785
H10   H     H_    0.769646 0.193519 0.513815 0.123777
H11   H     H_    0.880858 0.151119 0.318391 0.223200
H12   H     H_    0.123195 0.645113 0.414431 0.185600
H13   H     H_    0.982559 0.171591 0.429305 0.221492
H14   H     H_    0.849840 0.021730 0.524282 0.277593
H15   H     H_    0.911497 0.979568 0.415508 0.264198
H16   H     H_    0.748006 0.999235 0.411861 0.265329
H17   H     H_    0.101668 0.723077 0.545370 0.214048
H18   H     H_    0.100048 0.708431 0.676929 0.225231
H19   H     H_    0.240435 0.692123 0.622750 0.267273
H20   H     H_    0.743776 0.909833 0.270526 0.170792
H21   H     H_    0.730975 0.882620 0.144472 0.125971
H22   H     H_    0.929468 0.822526 0.312941 0.218668
H23   H     H_    0.769165 0.755308 0.059972 0.197412
H24   H     H_    0.922257 0.772161 0.191746 0.213185
H25   H     H_    0.962312 0.960986 0.111135 0.272937
H26   H     H_    0.086945 0.934150 0.203347 0.262587
H27   H     H_    0.969480 0.011485 0.233933 0.266763
H28   H     H_    0.987781 0.698664 0.848790 0.169018
H29   H     H_    0.897150 0.567449 0.858007 0.124624
H30   H     H_    0.999910 0.703691 0.035564 0.227447
H31   H     H_    0.908743 0.570283 0.048114 0.215428
H32   H     H_    0.077318 0.498125 0.966555 0.263776
H33   H     H_    0.139650 0.564630 0.076867 0.264967
H34   H     H_    0.325762 0.278544 0.761429 0.166073
H35   H     H_    0.169625 0.631793 0.954168 0.269696
H36   H     H_    0.589194 0.309833 0.253606 0.182121
H37   H     H_    0.677115 0.396756 0.161850 0.094681
H38   H     H_    0.463737 0.210675 0.109262 0.237093
H39   H     H_    0.572608 0.290964 0.025458 0.224553
H40   H     H_    0.754331 0.222624 0.117578 0.282415
H41   H     H_    0.638537 0.113955 0.075776 0.268755
H42   H     H_    0.650279 0.141995 0.206325 0.271265
H43   H     H_    0.143353 0.225600 0.849669 0.245495
H44   H     H_    0.195903 0.193588 0.976915 0.247427
H45   H     H_    0.308242 0.414197 0.038010 0.173639
H46   H     H_    0.112895 0.308054 0.943839 0.245400
H47   H     H_    0.136941 0.262894 0.336583 0.148445
H48   H     H_    0.166820 0.153781 0.270209 0.113447
H49   H     H_    0.180466 0.387831 0.179676 0.241859
H50   H     H_    0.201012 0.271108 0.119256 0.232321
H51   H     H_    0.978467 0.188566 0.145262 0.275319
H52   H     H_    0.984545 0.321176 0.081627 0.272448
H53   H     H_    0.955273 0.301213 0.212764 0.283373
H54   H     H_    0.453553 0.835037 0.204604 0.266239
H55   H     H_    0.334115 0.920750 0.197897 0.234209
H56   H     H_    0.859382 0.331575 0.577816 0.055065
H57   H     H_    0.497153 0.976226 0.172370 0.244201
H58   H     H_    0.261590 0.812761 0.350222 0.204247
H59   H     H_    0.339953 0.699665 0.359657 0.265314
H60   H     H_    0.299516 0.761479 0.470636 0.236386
H61   H     H_    0.090657 0.216550 0.571583 0.245801
H62   H     H_    0.185673 0.321731 0.633253 0.270750
H63   H     H_    0.023116 0.278390 0.663559 0.232304
H64   H     H_    0.207735 0.516931 0.314927 0.253269
H65   H     H_    0.047877 0.443380 0.303890 0.283209
H66   H     H_    0.081998 0.580329 0.254217 0.243815
H67   H     H_    0.695598 0.549459 0.779374 0.145203
H68   H     H_    0.238923 0.496234 0.710925 0.241605
H69   H     H_    0.129687 0.553919 0.775930 0.240443
H70   H     H_    0.083254 0.424009 0.738833 0.236937
H71   H     H_    0.358000 0.097892 0.234902 0.170626
H72   H     H_    0.530427 0.172085 0.576100 0.147360
N1    N     N_R   0.433240 0.222190 0.444680 -0.146099
N2    N     N_R   0.566070 0.776970 0.554790 -0.122563
O1    O     O_R   0.468120 0.366740 0.627160 -0.640407
O2    O     O_3   0.686786 0.750634 0.252846 -0.623429
O3    O     O_3   0.809052 0.696075 0.896112 -0.668364
O4    O     O_3   0.477713 0.403183 0.164956 -0.602889
O5    O     O_3   0.320997 0.279713 0.297586 -0.578388
O6    O     O_R   0.510770 0.544830 0.662520 -0.624926
O7    O     O_R   0.663880 0.410950 0.482330 -0.614100
O8    O     O_R   0.706530 0.589040 0.517700 -0.626453
O9    O     O_R   0.489230 0.455170 0.337480 -0.539045
O10   O     O_R   0.531880 0.633260 0.372840 -0.572678
O11   O     O_R   0.293470 0.410960 0.482300 -0.598083
O12   O     O_R   0.336120 0.589050 0.517670 -0.638979
O13   O     O_3   0.850687 0.329660 0.419092 -0.658725
Zn1   Zn    Zn3+2 0.471520 0.381090 0.476390 0.964816
Zn2   Zn    Zn3+2 0.528480 0.618910 0.523610 0.942369

loop_
_geom_bond_atom_site_label_1
_geom_bond_atom_site_label_2
_ccdc_geom_bond_type
C41   H29   S    
C54   H63   S    
C51   H52   S    
C47   H41   S    
C6    C45   A    
C12   C29   S    
C34   C37   S    
C41   C42   S    
C35   C36   S    
C1    C11   S    
C46   H39   S    
C57   H68   S    
C53   H60   S    
C7    C8    A    
C49   H47   S    
C19   N2    A    
C31   H7    S    
C37   H19   S    
C12   C23   S    
C51   H53   S    
O8    Zn2   S    
C57   H69   S    
C28   C29   S    
C16   O10   A    
C10   O2    S    
C39   H24   S    
C18   C19   A    
C4    O8    A    
C38   C39   S    
C2    C60   A    
C20   C25   A    
C48   H44   S    
C50   H50   S    
C31   H8    S    
C42   H31   S    
C9    O4    S    
C40   H26   S    
C33   O13   S    
O7    Zn1   S    
C43   H33   S    
C55   H64   S    
C48   H46   S    
C55   H65   S    
C36   H16   S    
C34   C57   S    
C43   H35   S    
C15   H4    S    
C38   O2    S    
C11   C58   A    
C28   H56   S    
C41   O3    S    
C33   H9    S    
C52   H57   S    
C54   H62   S    
C35   H11   S    
C59   C60   A    
C47   H42   S    
C21   C22   A    
C44   O4    S    
C45   H23   S    
C44   C46   S    
C50   C51   S    
C49   H48   S    
O9    Zn1   S    
C12   C27   S    
C23   C30   S    
C57   H70   S    
C28   C32   S    
C16   O9    A    
C3    C8    A    
C4    O7    A    
C9    C56   A    
C53   H58   S    
C14   N2    A    
C58   C59   A    
N2    Zn2   S    
C37   H17   S    
C50   H49   S    
C47   H40   S    
C42   H30   S    
C40   H25   S    
C16   C56   S    
C5    C9    A    
O10   Zn2   S    
C44   H36   S    
C36   H15   S    
O12   Zn2   S    
C44   H37   S    
C8    H67   S    
C31   C32   S    
C55   H66   S    
C27   O11   A    
C10   C45   A    
C17   C18   A    
C13   H71   S    
C31   C34   S    
C13   C21   A    
N1    Zn1   S    
C4    C32   S    
C30   H6    S    
C1    O6    A    
C36   H14   S    
C33   H10   S    
C29   H5    S    
C10   C56   A    
C54   H61   S    
C26   O5    S    
C49   O5    S    
C38   H21   S    
C22   C24   A    
C13   C26   A    
C2    C5    A    
C42   C43   S    
C12   C34   S    
C39   C40   S    
O11   Zn1   S    
C25   N1    A    
C40   H27   S    
C48   C59   S    
C7    O3    S    
C52   H55   S    
C15   C17   A    
C41   H28   S    
C46   C47   S    
C35   H13   S    
C28   O13   S    
C51   H51   S    
C23   H12   S    
C39   H22   S    
C53   H59   S    
C23   C55   S    
C6    C7    A    
C52   H54   S    
C24   C53   S    
C37   H18   S    
C43   H32   S    
C2    C3    A    
C58   H34   S    
C26   N1    A    
C17   H3    S    
C30   C32   S    
C48   H43   S    
C5    C6    A    
C38   H20   S    
C27   O12   A    
C33   C35   S    
C19   C24   A    
C22   C52   S    
C18   C20   A    
O1    Zn1   S    
C46   H38   S    
C3    C11   A    
C20   C21   A    
C49   C50   S    
C29   C54   S    
C30   H1    S    
C14   C15   A    
C1    O1    A    
C25   H72   S    
O6    Zn2   S    
C60   H45   S    
C14   H2    S    
