data_mof_unit_49868.cif
_audit_creation_date              2012-12-11T15:15:43-0500
_audit_creation_method            fapswitch 2.2
_symmetry_space_group_name_H-M    P1
_symmetry_Int_Tables_number       1
_space_group_crystal_system       triclinic
_cell_length_a                    20.671248
_cell_length_b                    22.742667
_cell_length_c                    6.938498
_cell_angle_alpha                 89.999954
_cell_angle_beta                  86.915343
_cell_angle_gamma                 90.0
_cell_volume                      3257.19574416

loop_
_atom_site_label
_atom_site_type_symbol
_atom_type_description
_atom_site_fract_x
_atom_site_fract_y
_atom_site_fract_z
_atom_type_partial_charge
O1    O     O_R   0.387100 0.552640 0.378490 -0.534708
O2    O     O_R   0.612900 0.052640 0.621510 -0.534709
O3    O     O_R   0.249610 0.559600 0.072250 -0.546800
O4    O     O_R   0.750390 0.059600 0.927750 -0.546801
O5    O     O_R   0.249120 0.447360 0.902040 -0.544094
O6    O     O_R   0.750880 0.947360 0.097960 -0.544094
C1    C     C_R   0.226931 0.573323 0.244447 0.682598
C2    C     C_R   0.773069 0.073323 0.755553 0.682598
O7    O     O_R   0.386610 0.559560 0.048860 -0.537114
O8    O     O_R   0.613390 0.059560 0.951140 -0.537115
O9    O     O_R   0.387100 0.447320 0.878470 -0.536649
O10   O     O_R   0.612900 0.947320 0.121530 -0.536648
C3    C     C_R   0.407822 0.574782 0.214405 0.693657
C4    C     C_R   0.592178 0.074782 0.785595 0.693658
O11   O     O_R   0.249120 0.552680 0.402050 -0.544600
O12   O     O_R   0.750880 0.052680 0.597950 -0.544600
O13   O     O_3   0.318110 0.463180 0.223790 -0.369408
O14   O     O_3   0.681890 0.963180 0.776210 -0.369408
V1    V     V_3+5 0.318110 0.506830 0.948930 1.415897
V2    V     V_3+5 0.681890 0.006830 0.051070 1.415897
O15   O     O_R   0.386610 0.440400 0.548840 -0.537558
O16   O     O_R   0.613390 0.940400 0.451160 -0.537558
C5    C     C_R   0.407701 0.425061 0.714504 0.723829
C6    C     C_R   0.592299 0.925061 0.285496 0.723829
O17   O     O_R   0.249610 0.440440 0.572240 -0.546993
O18   O     O_R   0.750390 0.940440 0.427760 -0.546993
C7    C     C_R   0.226694 0.427060 0.744400 0.708545
C8    C     C_R   0.773306 0.927060 0.255600 0.708545
V3    V     V_3+5 0.318110 0.493170 0.448930 1.416521
V4    V     V_3+5 0.681890 0.993170 0.551070 1.416522
O19   O     O_3   0.318110 0.536820 0.723940 -0.370227
O20   O     O_3   0.681890 0.036820 0.276060 -0.370227
C9    C     C_R   0.171108 0.386364 0.761268 -0.106075
C10   C     C_R   0.828892 0.886364 0.238732 -0.106076
C11   C     C_R   0.134171 0.375528 0.600924 -0.254917
C12   C     C_R   0.865828 0.875528 0.399076 -0.254916
C13   C     C_R   0.079381 0.339407 0.617267 0.431407
C14   C     C_R   0.920619 0.839407 0.382734 0.431407
C15   C     C_R   0.063048 0.310868 0.794320 0.055772
C16   C     C_R   0.936952 0.810868 0.205681 0.055772
C17   C     C_R   0.099649 0.322230 0.954423 -0.205162
C18   C     C_R   0.900351 0.822230 0.045577 -0.205162
C19   C     C_R   0.153004 0.359751 0.938622 -0.171348
C20   C     C_R   0.846996 0.859751 0.061378 -0.171349
C21   C     C_R   0.908342 0.174852 0.889931 -0.126346
C22   C     C_R   0.091657 0.674852 0.110069 -0.126347
C23   C     C_R   0.855483 0.136775 0.905077 -0.176525
C24   C     C_R   0.144517 0.636775 0.094923 -0.176525
C25   C     C_R   0.854024 0.132610 0.556446 -0.170280
C26   C     C_R   0.145976 0.632610 0.443553 -0.170280
C27   C     C_R   0.906923 0.170769 0.541389 -0.147353
C28   C     C_R   0.093078 0.670770 0.458611 -0.147352
C29   C     C_R   0.934298 0.192555 0.707579 0.144569
C30   C     C_R   0.065702 0.692555 0.292421 0.144569
C31   C     C_2   0.006782 0.271032 0.820356 -0.197554
C32   C     C_2   0.993219 0.771032 0.179645 -0.197555
C33   C     C_2   0.990838 0.232276 0.684626 -0.158396
C34   C     C_2   0.009163 0.732276 0.315374 -0.158398
C35   C     C_R   0.827759 0.115153 0.738625 -0.048513
C36   C     C_R   0.172241 0.615153 0.261375 -0.048513
H1    H     H_    0.146430 0.396440 0.463461 0.138999
H2    H     H_    0.853570 0.896440 0.536540 0.138999
H3    H     H_    0.836957 0.123702 0.047615 0.121989
H4    H     H_    0.163043 0.623702 0.952384 0.121989
H5    H     H_    0.834023 0.116574 0.425309 0.122278
H6    H     H_    0.165978 0.616575 0.574691 0.122278
H7    H     H_    0.019675 0.229945 0.549374 0.169995
H8    H     H_    0.980325 0.729946 0.450627 0.169995
H9    H     H_    0.087176 0.301497 0.091968 0.177925
H10   H     H_    0.912825 0.801498 0.908032 0.177926
H11   H     H_    0.929405 0.189014 0.021417 0.098649
H12   H     H_    0.070595 0.689014 0.978583 0.098649
H13   H     H_    0.180323 0.367547 0.065054 0.141543
H14   H     H_    0.819677 0.867548 0.934946 0.141543
H15   H     H_    0.979233 0.273076 0.957623 0.129665
H16   H     H_    0.020768 0.773077 0.042377 0.129666
H17   H     H_    0.926385 0.183538 0.399418 0.100866
H18   H     H_    0.073616 0.683539 0.600582 0.100866
C37   C     C_R   0.577189 0.363659 0.706151 0.449954
C38   C     C_R   0.422810 0.863658 0.293854 0.449950
H19   H     H_    0.534361 0.449057 0.677874 0.131118
H20   H     H_    0.465639 0.949056 0.322132 0.131117
H21   H     H_    0.667914 0.279279 0.702777 0.154822
H22   H     H_    0.332085 0.779279 0.297228 0.154823
C39   C     C_R   0.461457 0.382127 0.715772 -0.110231
C40   C     C_R   0.538543 0.882127 0.284229 -0.110230
C41   C     C_R   0.474982 0.094713 0.809279 -0.161550
C42   C     C_R   0.525018 0.594713 0.190719 -0.161549
C43   C     C_R   0.421552 0.131857 0.811026 -0.120300
C44   C     C_R   0.578448 0.631857 0.188972 -0.120300
C45   C     C_R   0.429471 0.192420 0.789176 -0.158948
C46   C     C_R   0.570529 0.692421 0.210822 -0.158948
C47   C     C_R   0.491855 0.217859 0.764829 0.105453
C48   C     C_R   0.508145 0.717859 0.235171 0.105453
C49   C     C_R   0.546727 0.179209 0.763165 0.073727
C50   C     C_R   0.453273 0.679209 0.236836 0.073727
C51   C     C_R   0.501512 0.280229 0.742920 0.028434
C52   C     C_R   0.498488 0.780228 0.257080 0.028434
C53   C     C_R   0.565973 0.302376 0.723095 0.021590
C54   C     C_R   0.434027 0.802376 0.276907 0.021590
C55   C     C_R   0.618590 0.263311 0.720303 -0.184968
C56   C     C_R   0.381410 0.763311 0.279700 -0.184966
C57   C     C_R   0.609225 0.203051 0.739831 -0.203205
C58   C     C_R   0.390775 0.703051 0.260171 -0.203205
C59   C     C_R   0.449633 0.321561 0.739895 -0.225058
C60   C     C_R   0.550367 0.821561 0.260103 -0.225058
C61   C     C_R   0.525043 0.402461 0.696930 -0.230843
C62   C     C_R   0.474957 0.902461 0.303073 -0.230844
C63   C     C_R   0.537747 0.117341 0.785440 -0.088777
C64   C     C_R   0.462253 0.617341 0.214559 -0.088777
H23   H     H_    0.399587 0.308268 0.754483 0.106234
H24   H     H_    0.600413 0.808268 0.245513 0.106234
H25   H     H_    0.467318 0.047827 0.826572 0.107420
H26   H     H_    0.532682 0.547827 0.173426 0.107420
H27   H     H_    0.385662 0.218089 0.792843 0.108417
H28   H     H_    0.614338 0.718089 0.207155 0.108417
H29   H     H_    0.373299 0.113483 0.829778 0.123393
H30   H     H_    0.626701 0.613483 0.170219 0.123393
H31   H     H_    0.651715 0.175142 0.737170 0.108885
H32   H     H_    0.348285 0.675142 0.262832 0.108885
O21   O     O_3   0.639434 0.386180 0.687939 -0.564516
C65   C     C_3   0.663184 0.395095 0.873497 0.084020
H33   H     H_    0.716719 0.390482 0.860365 0.145417
H34   H     H_    0.645505 0.361837 0.982391 0.113869
C66   C     C_3   0.647419 0.456972 0.947276 -0.745170
H35   H     H_    0.594594 0.461608 0.981118 0.206506
H36   H     H_    0.673014 0.465369 0.081222 0.192792
H37   H     H_    0.663252 0.490100 0.836996 0.230721
O22   O     O_3   0.360566 0.886179 0.312069 -0.564515
C67   C     C_3   0.336815 0.895096 0.126512 0.084021
H38   H     H_    0.283280 0.890479 0.139643 0.145416
H39   H     H_    0.354498 0.861842 0.017611 0.113868
C68   C     C_3   0.352575 0.956976 0.052746 -0.745161
H40   H     H_    0.405400 0.961616 0.018911 0.206505
H41   H     H_    0.326981 0.965373 0.918799 0.192789
H42   H     H_    0.336737 0.990100 0.163032 0.230721
O23   O     O_3   0.042711 0.331973 0.458385 -0.572599
C69   C     C_3   0.993849 0.375364 0.463195 0.087344
H43   H     H_    0.015448 0.420201 0.451453 0.118341
H44   H     H_    0.962425 0.372293 0.598512 0.128508
C70   C     C_3   0.951412 0.366170 0.293380 -0.726760
H45   H     H_    0.930293 0.321238 0.298794 0.220503
H46   H     H_    0.911476 0.398878 0.299196 0.181664
H47   H     H_    0.980577 0.371833 0.155573 0.219711
O24   O     O_3   0.957288 0.831973 0.541615 -0.572599
C71   C     C_3   0.006151 0.875365 0.536805 0.087340
H48   H     H_    0.984552 0.920202 0.548532 0.118340
H49   H     H_    0.037578 0.872290 0.401494 0.128513
C72   C     C_3   0.048584 0.866174 0.706630 -0.726767
H50   H     H_    0.069701 0.821242 0.701235 0.220504
H51   H     H_    0.088522 0.898881 0.700810 0.181665
H52   H     H_    0.019417 0.871842 0.844430 0.219712

loop_
_geom_bond_atom_site_label_1
_geom_bond_atom_site_label_2
_ccdc_geom_bond_type
C19   H13   S    
C4    C63   S    
C40   C62   A    
C31   H15   S    
H19   C61   S    
C32   H16   S    
C21   H11   S    
H22   C56   S    
C67   H39   S    
O4    C2    A    
V1    O19   S    
O24   C71   S    
C72   H50   S    
C15   C17   A    
C60   H24   S    
C7    C9    S    
C37   O21   S    
O9    V1    S    
C25   H5    S    
C44   H30   S    
C37   C53   A    
C11   C13   A    
O22   C67   S    
O3    C1    A    
C70   H46   S    
C2    C35   S    
C23   H3    S    
C12   H2    S    
C24   H4    S    
C48   C52   A    
O12   V4    S    
C45   H27   S    
C18   H10   S    
O13   V3    S    
C28   H18   S    
O7    C3    A    
C9    C11   A    
O5    C7    A    
O7    V1    S    
O6    C8    A    
O8    V2    S    
C25   C27   A    
C66   H37   S    
C26   C28   A    
O3    V1    S    
O14   V4    S    
H20   C62   S    
C43   C45   A    
H21   C55   S    
C22   H12   S    
C24   C36   A    
C42   C64   A    
C28   C30   A    
C16   C18   A    
C59   H23   S    
C8    C10   S    
C47   C49   A    
C13   O23   S    
C38   C54   A    
C17   C19   A    
C72   H51   S    
O10   V2    S    
C40   C60   A    
C18   C20   A    
C33   H7    S    
C39   C59   A    
O1    V3    S    
C51   C53   A    
C49   C57   A    
O11   V3    S    
C71   H49   S    
C21   C23   A    
O17   V3    S    
C22   C24   A    
C23   C35   A    
C9    C19   A    
C20   H14   S    
C10   C20   A    
C49   C63   A    
C72   H52   S    
C29   C33   S    
C1    O11   A    
C16   C32   S    
C50   C64   A    
C27   C29   A    
C48   C50   A    
C27   H17   S    
C14   O24   S    
C3    C64   S    
V4    O20   S    
C45   C47   A    
C71   C72   S    
C46   H28   S    
C44   C46   A    
V3    O19   S    
C22   C30   A    
C54   C56   A    
C37   C61   A    
C11   H1    S    
C56   C58   A    
C26   H6    S    
O21   C65   S    
C69   H44   S    
C68   H42   S    
C41   C63   A    
C34   H8    S    
C53   C55   A    
C42   C44   A    
O18   V4    S    
C52   C54   A    
C31   C33   D    
O8    C4    A    
C66   H35   S    
C30   C34   S    
O16   C6    A    
C70   H47   S    
C67   C68   S    
O1    C3    A    
C65   H34   S    
C12   C14   A    
C47   C51   A    
C1    C36   S    
C66   H36   S    
C71   H48   S    
V2    O20   S    
C50   C58   A    
C38   C62   A    
C38   O22   S    
O16   V4    S    
C57   H31   S    
C43   H29   S    
C69   C70   S    
C52   C60   A    
O5    V1    S    
C15   C31   S    
O6    V2    S    
O23   C69   S    
O10   C6    A    
O18   C8    A    
C25   C35   A    
C55   C57   A    
O2    V4    S    
C26   C36   A    
C65   C66   S    
O15   C5    A    
C67   H38   S    
C51   C59   A    
C13   C15   A    
C70   H45   S    
C14   C16   A    
C46   C48   A    
C68   H40   S    
O15   V3    S    
O9    C5    A    
O13   V1    S    
C10   C12   A    
C32   C34   D    
O14   V2    S    
C42   H26   S    
O2    C4    A    
C41   H25   S    
C69   H43   S    
C21   C29   A    
O4    V2    S    
C2    O12   A    
C5    C39   S    
C68   H41   S    
C41   C43   A    
C65   H33   S    
C39   C61   A    
C17   H9    S    
C6    C40   S    
C58   H32   S    
O17   C7    A    
