data_mof_unit_64012.cif
_audit_creation_date              2012-12-10T17:57:53-0500
_audit_creation_method            fapswitch 2.2
_symmetry_space_group_name_H-M    P1
_symmetry_Int_Tables_number       1
_space_group_crystal_system       triclinic
_cell_length_a                    18.837592
_cell_length_b                    18.724881
_cell_length_c                    18.777936
_cell_angle_alpha                 109.144968
_cell_angle_beta                  109.703075
_cell_angle_gamma                 109.321834
_cell_volume                      5114.01639746

loop_
_atom_site_label
_atom_site_type_symbol
_atom_type_description
_atom_site_fract_x
_atom_site_fract_y
_atom_site_fract_z
_atom_type_partial_charge
C1    C     C_R   0.381287 0.381401 0.499864 0.796372
C2    C     C_3   0.809282 0.500692 0.809597 0.153241
C3    C     C_3   0.848111 0.575518 0.791224 -0.336337
C4    C     C_3   0.743289 0.511679 0.837790 -0.365288
C5    C     C_R   0.320181 0.245745 0.504296 0.124058
C6    C     C_R   0.313673 0.315451 0.498681 -0.084390
C7    C     C_R   0.238888 0.320166 0.492981 -0.206584
C8    C     C_R   0.173504 0.254771 0.492044 -0.203886
C9    C     C_R   0.183935 0.185905 0.499811 -0.090309
C10   C     C_R   0.259213 0.184988 0.506687 0.129468
C11   C     C_3   0.307150 0.136291 0.515521 -0.462202
C12   C     C_R   0.617545 0.498099 0.619415 0.753187
C13   C     C_3   0.377258 0.206321 0.513717 -0.488083
C14   C     C_R   0.312753 0.492668 0.238899 0.126241
C15   C     C_R   0.312303 0.498617 0.314289 -0.091374
C16   C     C_R   0.243209 0.504956 0.324333 -0.203923
C17   C     C_R   0.177546 0.504158 0.258806 -0.211633
C18   C     C_R   0.182089 0.499999 0.184160 -0.082507
C19   C     C_R   0.251734 0.495205 0.177812 0.126937
C20   C     C_3   0.292006 0.488953 0.121723 -0.482473
C21   C     C_3   0.362257 0.487010 0.191945 -0.465632
C22   C     C_R   0.763106 0.686813 0.514713 0.050663
C23   C     C_R   0.618357 0.618933 0.499733 0.800258
C24   C     C_R   0.685883 0.686929 0.502060 -0.066818
C25   C     C_R   0.678337 0.758797 0.500869 -0.205327
C26   C     C_R   0.742566 0.822918 0.500279 -0.202565
C27   C     C_R   0.816070 0.816998 0.504041 -0.097450
C28   C     C_R   0.827990 0.751631 0.517210 0.122703
C29   C     C_3   0.849534 0.688427 0.468872 -0.211596
C30   C     C_3   0.777851 0.617348 0.466463 -0.489814
C31   C     C_R   0.998015 0.381393 0.879471 0.791738
C32   C     C_R   0.878029 0.500776 0.878310 0.803619
C33   C     C_R   0.995835 0.618851 0.114554 0.855177
C34   C     C_R   0.380430 0.499719 0.380658 0.796551
C35   C     C_R   0.116317 0.499912 0.116689 0.790275
C36   C     C_R   0.999573 0.118743 0.618195 0.792741
C37   C     C_R   0.118413 0.118761 0.499888 0.792949
C38   C     C_R   0.001212 0.882089 0.381688 0.799066
C39   C     C_R   0.881472 0.881065 0.500157 0.786946
C40   C     C_R   0.924209 0.245505 0.740734 0.123665
C41   C     C_R   0.999956 0.315449 0.814942 -0.082720
C42   C     C_R   0.079307 0.320491 0.824414 -0.210326
C43   C     C_R   0.079637 0.255181 0.760270 -0.205431
C44   C     C_R   0.000793 0.186028 0.684834 -0.089517
C45   C     C_3   0.688762 0.411826 0.652102 -0.348896
C46   C     C_R   0.924707 0.184815 0.677851 0.130023
C47   C     C_3   0.828423 0.135448 0.621809 -0.468178
C48   C     C_3   0.827969 0.205384 0.693271 -0.485345
C49   C     C_R   0.997369 0.679531 0.252070 0.121508
C50   C     C_R   0.992002 0.684864 0.178131 -0.166013
C51   C     C_R   0.981025 0.752884 0.167274 -0.038416
C52   C     C_R   0.984544 0.817358 0.235498 -0.244902
C53   C     C_R   0.999979 0.815795 0.313419 -0.118456
C54   C     C_R   0.002082 0.744158 0.318878 0.108629
C55   C     C_3   0.067784 0.740401 0.387149 -0.424370
C56   C     C_3   0.760133 0.412867 0.724178 -0.417017
C57   C     C_3   0.062012 0.668654 0.313659 -0.494583
C58   C     C_3   0.775480 0.574994 0.721079 -0.400675
C59   C     C_3   0.670193 0.508766 0.765698 -0.385502
C60   C     C_3   0.686262 0.498146 0.687961 0.156064
Cu1   Cu    Cu3+1 0.500370 0.438220 0.438550 0.942491
Cu2   Cu    Cu3+1 0.499630 0.561780 0.561450 0.945844
Cu3   Cu    Cu3+1 0.935500 0.438280 0.997350 0.951355
Cu4   Cu    Cu3+1 0.059110 0.561800 0.997270 0.972322
Cu5   Cu    Cu3+1 0.062130 0.000020 0.562160 0.987956
Cu6   Cu    Cu3+1 0.937870 0.000080 0.437940 0.952731
H1    H     H_    0.702089 0.402956 0.597306 0.181261
H2    H     H_    0.776723 0.574596 0.898850 0.195975
H3    H     H_    0.776048 0.637767 0.748845 0.174808
H4    H     H_    0.885214 0.639639 0.851742 0.210442
H5    H     H_    0.230602 0.373277 0.488182 0.151436
H6    H     H_    0.116072 0.258815 0.486804 0.158790
H7    H     H_    0.329212 0.138098 0.579266 0.204836
H8    H     H_    0.272288 0.070637 0.457420 0.199015
H9    H     H_    0.439535 0.248941 0.576620 0.185368
H10   H     H_    0.383282 0.181021 0.454866 0.211036
H11   H     H_    0.239415 0.509386 0.381790 0.155544
H12   H     H_    0.624625 0.355318 0.626519 0.153727
H13   H     H_    0.124566 0.508268 0.267081 0.151101
H14   H     H_    0.250435 0.426755 0.058791 0.192990
H15   H     H_    0.316618 0.548884 0.116808 0.207417
H16   H     H_    0.361660 0.423910 0.169355 0.209313
H17   H     H_    0.427272 0.546111 0.227937 0.194609
H18   H     H_    0.621070 0.763026 0.496055 0.149929
H19   H     H_    0.734135 0.875901 0.495269 0.151258
H20   H     H_    0.835343 0.680813 0.403490 0.120035
H21   H     H_    0.721811 0.569264 0.399632 0.206315
H22   H     H_    0.730058 0.357933 0.734628 0.173910
H23   H     H_    0.800838 0.588250 0.505924 0.201301
H24   H     H_    0.140357 0.373766 0.881402 0.148753
H25   H     H_    0.141011 0.259448 0.768907 0.157276
H26   H     H_    0.807005 0.136819 0.559636 0.206005
H27   H     H_    0.799193 0.069921 0.615480 0.192759
H28   H     H_    0.806903 0.247501 0.672508 0.187638
H29   H     H_    0.797945 0.180136 0.727802 0.209112
H30   H     H_    0.977268 0.870287 0.228924 0.200186
H31   H     H_    0.132074 0.800985 0.426687 0.205013
H32   H     H_    0.806283 0.402760 0.703119 0.149578
H33   H     H_    0.042051 0.717284 0.425243 0.221201
H34   H     H_    0.123106 0.687257 0.310799 0.192621
H35   H     H_    0.032378 0.604025 0.309074 0.208649
H36   H     H_    0.787858 0.569431 0.666073 0.160763
H37   H     H_    0.894060 0.567810 0.768669 0.171468
H38   H     H_    0.667909 0.569884 0.793273 0.186793
H39   H     H_    0.606408 0.453587 0.743178 0.152301
H40   H     H_    0.714098 0.458961 0.851240 0.174261
O1    O     O_R   0.410140 0.357660 0.448100 -0.581590
O2    O     O_R   0.049970 0.462000 0.907620 -0.590498
O3    O     O_R   0.854460 0.447890 0.906680 -0.602567
O4    O     O_R   0.958840 0.552200 0.906620 -0.570234
O5    O     O_R   0.944630 0.538080 0.087010 -0.587403
O6    O     O_R   0.049020 0.642390 0.086940 -0.561151
O7    O     O_R   0.035760 0.447880 0.088010 -0.584840
O8    O     O_R   0.140150 0.552190 0.087940 -0.589925
O9    O     O_R   0.051980 0.090160 0.642200 -0.583005
O10   O     O_R   0.947040 0.090210 0.537310 -0.589593
O11   O     O_R   0.142640 0.090190 0.552500 -0.589598
O12   O     O_R   0.409510 0.462000 0.551890 -0.588373
O13   O     O_R   0.037710 0.090250 0.447610 -0.585562
O14   O     O_R   0.052960 0.909890 0.462790 -0.581835
O15   O     O_R   0.948020 0.909940 0.357900 -0.585912
O16   O     O_R   0.962290 0.909850 0.552490 -0.546317
O17   O     O_R   0.857360 0.909910 0.447600 -0.591001
O18   O     O_R   0.590970 0.447830 0.538770 -0.595757
O19   O     O_R   0.590340 0.552170 0.642560 -0.589925
O20   O     O_R   0.590490 0.538000 0.448110 -0.586192
O21   O     O_R   0.589860 0.642340 0.551900 -0.582898
O22   O     O_R   0.409660 0.447830 0.357440 -0.581770
O23   O     O_R   0.409030 0.552170 0.461230 -0.589556
O24   O     O_R   0.945590 0.357690 0.907690 -0.584372
C61   C     C_2   0.938560 0.702815 0.521614 0.870527
O25   O     O_2   0.994086 0.771967 0.588350 -0.580364
O26   O     O_R   0.957370 0.636224 0.492804 -0.774698
H41   H     H_    0.018989 0.652892 0.532841 0.324728
C62   C     C_2   0.966135 0.759607 0.087290 0.839359
O27   O     O_2   0.936858 0.695453 0.018118 -0.645430
O28   O     O_R   0.983684 0.839671 0.090627 -0.767434
H42   H     H_    0.970261 0.835927 0.032067 0.332153

loop_
_geom_bond_atom_site_label_1
_geom_bond_atom_site_label_2
_ccdc_geom_bond_type
C45   C60   S    
C48   H29   S    
C31   O2    A    
C19   C20   S    
C56   H32   S    
C39   O17   A    
C62   O27   D    
C53   C54   A    
C40   C46   A    
C26   C27   A    
C59   H39   S    
C39   O16   A    
C48   H28   S    
Cu1   O18   S    
C59   H38   S    
C14   C21   S    
C28   C29   S    
C16   H11   S    
C31   O24   A    
C7    H5    S    
C5    C6    A    
Cu4   O6    S    
C58   C60   S    
C49   C54   A    
C17   H13   S    
C49   C57   S    
C35   O8    A    
C2    C32   S    
C18   C19   A    
C47   H26   S    
Cu3   O24   S    
C40   C48   S    
C54   C55   S    
C51   C62   S    
C13   H9    S    
C34   O23   A    
C27   C39   S    
C8    C9    A    
C12   O18   A    
C17   C18   A    
C45   H1    S    
C25   H18   S    
C23   C24   S    
C35   O7    A    
Cu1   O20   S    
C33   O5    A    
C31   C41   S    
C18   C35   S    
C15   C34   S    
C5    C13   S    
C38   O14   A    
C41   C42   A    
C59   C60   S    
C22   C28   A    
C20   H15   S    
Cu5   O9    S    
Cu2   O23   S    
C30   H23   S    
C44   C46   A    
Cu4   O2    S    
C8    H6    S    
Cu4   O8    S    
C32   O3    A    
C20   H14   S    
C51   C52   A    
C21   H17   S    
C7    C8    A    
C3    H4    S    
C24   C25   A    
C45   C56   S    
C11   H7    S    
C4    H2    S    
C16   C17   A    
C12   O19   A    
C33   C50   S    
C57   H34   S    
C4    H40   S    
C43   H25   S    
C1    C6    S    
C42   H24   S    
C12   C60   S    
Cu3   O3    S    
C2    C4    S    
C43   C44   A    
C29   C30   S    
Cu4   O4    S    
C47   C48   S    
C37   O13   A    
C13   H10   S    
C55   H31   S    
C9    C37   S    
C50   C51   A    
C47   H27   S    
Cu6   O15   S    
C33   O6    A    
Cu5   O16   S    
C20   C21   S    
C29   H20   S    
C45   H12   S    
Cu6   O10   S    
C1    O1    A    
C23   O20   A    
C58   H36   S    
C40   C41   A    
C49   C50   A    
Cu6   O13   S    
C55   C57   S    
O26   H41   S    
C22   C24   A    
C36   C44   S    
C42   C43   A    
C61   O25   D    
C36   O10   A    
C52   C53   A    
C23   O21   A    
C9    C10   A    
C3    H37   S    
C62   O28   S    
C46   C47   S    
C22   C30   S    
Cu6   O17   S    
C14   C19   A    
C61   O26   S    
C11   H8    S    
Cu2   O19   S    
C58   H3    S    
C6    C7    A    
C57   H35   S    
O28   H42   S    
C2    C3    S    
C25   C26   A    
C5    C10   A    
C2    C56   S    
C11   C13   S    
C29   C61   S    
C38   C53   S    
C26   H19   S    
C4    C59   S    
Cu5   O14   S    
C52   H30   S    
Cu1   O22   S    
C1    O12   A    
Cu3   O5    S    
Cu1   Cu2   S    
Cu1   O1    S    
Cu2   O12   S    
C38   O15   A    
C56   H22   S    
C10   C11   S    
Cu3   Cu4   S    
Cu3   O7    S    
C3    C58   S    
Cu2   O21   S    
C37   O11   A    
C21   H16   S    
C34   O22   A    
Cu5   Cu6   S    
C32   O4    A    
C55   H33   S    
C27   C28   A    
Cu5   O11   S    
C14   C15   A    
C30   H21   S    
C36   O9    A    
C15   C16   A    
