data_mof_unit_24102.cif
_audit_creation_date              2012-10-26T21:05:23-0400
_audit_creation_method            fapswitch 2.2
_symmetry_space_group_name_H-M    P1
_symmetry_Int_Tables_number       1
_space_group_crystal_system       triclinic
_cell_length_a                    9.630083
_cell_length_b                    10.765471
_cell_length_c                    13.865654
_cell_angle_alpha                 91.288832
_cell_angle_beta                  85.630409
_cell_angle_gamma                 87.731166
_cell_volume                      1431.7139522

loop_
_atom_site_label
_atom_site_type_symbol
_atom_type_description
_atom_site_fract_x
_atom_site_fract_y
_atom_site_fract_z
_atom_type_partial_charge
C1    C     C_R   0.497148 0.737228 0.493219 0.535165
C2    C     C_R   0.534172 0.934133 0.571994 -0.091768
C3    C     C_R   0.539248 0.062230 0.574596 -0.090819
C4    C     C_R   0.478114 0.500476 0.682721 0.554078
C5    C     C_R   0.509451 0.128792 0.493412 0.063943
C6    C     C_R   0.878864 0.336239 0.374001 0.228982
C7    C     C_R   0.946472 0.318305 0.281419 0.079752
C8    C     C_R   0.092760 0.322125 0.274286 0.203912
C9    C     C_R   0.159817 0.360441 0.355354 -0.055460
C10   C     C_R   0.084248 0.426960 0.432587 0.083500
C11   C     C_R   0.935729 0.422295 0.436396 0.120783
C12   C     C_1   0.465979 0.502398 0.785873 0.034464
C13   C     C_R   0.915344 0.574422 0.561034 0.061328
C14   C     C_R   0.062668 0.573990 0.561915 0.370155
C15   C     C_R   0.502643 0.262787 0.500849 0.531038
C16   C     C_R   0.522129 0.497301 0.317330 0.520642
C17   C     C_1   0.534923 0.489123 0.214320 0.031644
C18   C     C_2   0.555258 0.475407 0.024033 -0.092974
C19   C     C_2   0.444856 0.507779 0.976389 -0.067135
C20   C     C_1   0.455574 0.504642 0.872738 0.000232
C21   C     C_1   0.545247 0.482222 0.127570 0.017242
C22   C     C_2   0.866377 0.276767 0.199794 0.649208
C23   C     C_R   0.381706 0.888821 0.329338 -0.022376
C24   C     C_2   0.275432 0.793298 0.343402 0.653872
C25   C     C_R   0.385850 0.953888 0.241497 0.225315
C26   C     C_R   0.440613 0.071264 0.236927 -0.019733
C27   C     C_R   0.476249 0.131081 0.320413 -0.094876
C28   C     C_R   0.477151 0.067594 0.407837 0.022621
C29   C     C_R   0.447538 0.940076 0.409715 -0.023407
C30   C     C_R   0.487674 0.872172 0.491454 0.032147
Cl1   Cl    Cl    0.851139 0.189675 0.425041 -0.524142
Cl2   Cl    Cl    0.196260 0.272425 0.169470 -0.524237
Cl3   Cl    Cl    0.131655 0.678082 0.643060 -0.505035
Cl4   Cl    Cl    0.307978 0.900912 0.137906 -0.502798
Cu1   Cu    Cu3+1 0.359340 0.500010 0.500010 1.076686
Cu2   Cu    Cu3+1 0.640660 0.499990 0.499990 1.020116
H1    H     H_    0.346475 0.538334 0.014944 0.192486
H2    H     H_    0.350461 0.686704 0.228211 0.317199
H3    H     H_    0.268597 0.338195 0.353838 0.185766
H4    H     H_    0.653861 0.445243 0.985636 0.148949
H5    H     H_    0.563697 0.882886 0.634212 0.139118
H6    H     H_    0.445253 0.120658 0.169705 0.210855
H7    H     H_    0.506560 0.226505 0.315564 0.154715
H8    H     H_    0.567413 0.109555 0.639664 0.135718
H9    H     H_    0.851335 0.635712 0.610625 0.153355
H10   H     H_    0.854858 0.256729 0.055583 0.344286
N1    N     N_R   0.852210 0.498790 0.499090 -0.266192
N2    N     N_R   0.148080 0.498710 0.499060 -0.216946
O1    O     O_R   0.381190 0.680360 0.500010 -0.426784
O2    O     O_R   0.920956 0.286154 0.104026 -0.604628
O3    O     O_2   0.185994 0.806489 0.410570 -0.397332
O4    O     O_R   0.268246 0.693442 0.278198 -0.610836
O5    O     O_R   0.618760 0.680340 0.500000 -0.503374
O6    O     O_R   0.364420 0.499990 0.637850 -0.442639
O7    O     O_R   0.601990 0.499960 0.637840 -0.512180
O8    O     O_R   0.381240 0.319660 0.500000 -0.533189
O9    O     O_R   0.618810 0.319640 0.499990 -0.445041
O10   O     O_R   0.398010 0.500040 0.362160 -0.503324
O11   O     O_R   0.635580 0.500010 0.362150 -0.498583
O12   O     O_2   0.749557 0.237998 0.216139 -0.523466

loop_
_geom_bond_atom_site_label_1
_geom_bond_atom_site_label_2
_ccdc_geom_bond_type
Cu1   O1    S    
C23   C24   S    
C24   O4    S    
C6    C7    A    
C4    C12   S    
C7    C22   S    
C9    C10   A    
H10   O2    S    
C11   N1    A    
Cu1   Cu2   S    
C22   O2    S    
C25   Cl4   S    
C2    C30   A    
Cu2   O11   S    
C15   O8    A    
C12   C20   T    
C24   O3    D    
C6    Cl1   S    
Cu1   O8    S    
C22   O12   D    
C7    C8    A    
Cu2   O7    S    
C16   O10   A    
C13   C14   A    
Cu1   O6    S    
C13   H9    S    
C15   O9    A    
C26   C27   A    
C29   C30   A    
C14   Cl3   S    
Cu1   O10   S    
Cu1   N2    S    
C23   C29   A    
C28   C29   A    
C2    C3    A    
C23   C25   A    
C4    O7    A    
C10   N2    A    
C1    O5    A    
C3    H8    S    
C5    C15   S    
H2    O4    S    
C10   C11   A    
C2    H5    S    
C5    C28   A    
C27   H7    S    
C6    C11   A    
C18   H4    S    
C26   H6    S    
Cu2   N1    S    
C18   C19   D    
C27   C28   A    
C13   N1    A    
C18   C21   S    
C1    C30   S    
Cu2   O9    S    
C14   N2    A    
Cu2   O5    S    
C19   H1    S    
C4    O6    A    
C25   C26   A    
C1    O1    A    
C9    H3    S    
C17   C21   T    
C19   C20   S    
C16   C17   S    
C8    C9    A    
C3    C5    A    
C16   O11   A    
C8    Cl2   S    
