data_mof_unit_53928.cif
_audit_creation_date              2013-03-05T16:10:59-0500
_audit_creation_method            fapswitch 2.2
_symmetry_space_group_name_H-M    P1
_symmetry_Int_Tables_number       1
_space_group_crystal_system       triclinic
_cell_length_a                    23.0026
_cell_length_b                    7.207724
_cell_length_c                    20.708606
_cell_angle_alpha                 89.966922
_cell_angle_beta                  93.728271
_cell_angle_gamma                 89.929625
_cell_volume                      3426.14254819

loop_
_atom_site_label
_atom_site_type_symbol
_atom_site_description
_atom_site_fract_x
_atom_site_fract_y
_atom_site_fract_z
_atom_type_partial_charge
O1    O     O_R   0.307200 0.614510 0.194080 -0.584198
O2    O     O_R   0.692800 0.385490 0.805920 -0.586695
O3    O     O_R   0.192800 0.114510 0.305920 -0.585346
O4    O     O_R   0.807200 0.885490 0.694080 -0.584949
O5    O     O_R   0.188140 0.283260 0.181690 -0.572728
O6    O     O_R   0.811860 0.716740 0.818310 -0.572669
O7    O     O_R   0.311860 0.783260 0.318310 -0.592807
O8    O     O_R   0.688140 0.216740 0.681690 -0.596192
C1    C     C_R   0.168748 0.453487 0.165515 0.912941
C2    C     C_R   0.831252 0.546513 0.834484 0.913744
C3    C     C_R   0.331519 0.953292 0.334218 0.919550
C4    C     C_R   0.668510 0.046753 0.665826 0.908232
O9    O     O_R   0.306460 0.284700 0.186400 -0.585523
O10   O     O_R   0.693540 0.715300 0.813600 -0.584539
O11   O     O_R   0.193540 0.784700 0.313600 -0.584325
O12   O     O_R   0.806460 0.215300 0.686400 -0.584432
O13   O     O_R   0.311970 0.115840 0.310660 -0.584612
O14   O     O_R   0.688030 0.884160 0.689340 -0.579825
O15   O     O_R   0.188030 0.615840 0.189340 -0.590704
O16   O     O_R   0.811970 0.384160 0.810660 -0.590270
C5    C     C_R   0.325411 0.453194 0.171806 0.962122
C6    C     C_R   0.674592 0.546791 0.828199 0.960243
C7    C     C_R   0.174632 0.953280 0.328244 0.965043
C8    C     C_R   0.825368 0.046719 0.671756 0.964871
O17   O     O_3   0.251670 0.448440 0.290760 -0.279096
O18   O     O_3   0.748330 0.551560 0.709240 -0.277764
O19   O     O_3   0.248330 0.948440 0.209240 -0.274593
O20   O     O_3   0.751670 0.051560 0.790760 -0.274230
V1    V     V_3+5 0.249690 0.173030 0.242440 1.190812
V2    V     V_3+5 0.750310 0.826970 0.757560 1.192357
V3    V     V_3+5 0.250310 0.673030 0.257560 1.180078
V4    V     V_3+5 0.749690 0.326970 0.742440 1.176425
H1    H     H_    0.042063 0.286422 0.455588 0.122617
H2    H     H_    0.957941 0.713577 0.544417 0.122452
H3    H     H_    0.465250 0.783445 0.053648 0.120905
H4    H     H_    0.534950 0.216264 0.946623 0.121512
C9    C     C_R   0.979627 0.174153 0.518176 -0.168633
C10   C     C_R   0.020377 0.825846 0.481830 -0.167993
C11   C     C_R   0.524439 0.672582 0.986971 -0.161807
C12   C     C_R   0.475770 0.327128 0.013310 -0.168663
H5    H     H_    0.964328 0.309969 0.531776 0.121343
H6    H     H_    0.035676 0.690030 0.468230 0.121513
H7    H     H_    0.542831 0.807293 0.977283 0.123647
H8    H     H_    0.457378 0.192422 0.023004 0.123847
C13   C     C_R   0.955310 0.013529 0.543754 0.176575
C14   C     C_R   0.044694 0.986470 0.456251 0.176340
C15   C     C_R   0.544697 0.513547 0.956266 0.178194
C16   C     C_R   0.455484 0.486183 0.043974 0.175203
C17   C     C_R   0.976048 0.839288 0.525268 -0.171315
C18   C     C_R   0.023956 0.160711 0.474738 -0.170964
C19   C     C_R   0.520004 0.340734 0.969760 -0.176831
C20   C     C_R   0.480201 0.658975 0.030514 -0.175529
C21   C     C_1   0.909274 0.027160 0.588724 -0.027422
C22   C     C_1   0.090729 0.972839 0.411280 -0.026725
C23   C     C_1   0.590688 0.527285 0.911238 -0.022897
C24   C     C_1   0.409415 0.472524 0.088897 -0.033373
C25   C     C_1   0.129092 0.962800 0.373634 -0.260917
C26   C     C_1   0.870909 0.037199 0.626368 -0.263193
C27   C     C_1   0.371010 0.462543 0.126488 -0.258703
C28   C     C_1   0.629038 0.537365 0.873576 -0.257505
C29   C     C_R   0.422664 0.105642 0.379203 -0.189999
C30   C     C_R   0.575626 0.901159 0.623136 -0.156236
C31   C     C_R   0.074239 0.335408 0.115101 -0.125148
C32   C     C_R   0.925763 0.664588 0.884895 -0.125033
C33   C     C_R   0.381272 0.964689 0.383426 -0.162557
C34   C     C_R   0.618658 0.035746 0.616869 -0.165710
C35   C     C_R   0.119628 0.464289 0.115583 -0.161170
C36   C     C_R   0.880374 0.535709 0.884415 -0.161458
C37   C     C_R   0.387443 0.837471 0.434495 -0.146354
C38   C     C_R   0.613951 0.157553 0.564193 -0.172769
C39   C     C_R   0.117379 0.606632 0.069486 -0.129404
C40   C     C_R   0.882623 0.393364 0.930510 -0.128223
C41   C     C_R   0.433409 0.853604 0.482809 -0.029096
C42   C     C_R   0.566475 0.146907 0.517564 -0.000612
C43   C     C_R   0.070387 0.621577 0.022488 -0.018300
C44   C     C_R   0.929616 0.378417 0.977508 -0.018186
C45   C     C_R   0.476118 0.993570 0.476945 0.023785
C46   C     C_R   0.523577 0.007749 0.523703 0.032498
C47   C     C_R   0.023881 0.492846 0.023203 -0.018602
C48   C     C_R   0.976122 0.507148 0.976793 -0.018555
C49   C     C_R   0.471537 0.118041 0.423822 0.109107
C50   C     C_R   0.528164 0.883312 0.576867 0.121684
C51   C     C_R   0.025080 0.350762 0.070774 0.083783
C52   C     C_R   0.974922 0.649232 0.929222 0.083780
C53   C     C_R   0.438199 0.729485 0.535808 0.279938
C54   C     C_R   0.562091 0.269670 0.464180 0.287232
C55   C     C_R   0.069640 0.761089 0.974386 0.274428
C56   C     C_R   0.930363 0.238902 0.025608 0.274202
C57   C     C_R   0.484977 0.745353 0.583130 -0.176899
C58   C     C_R   0.515428 0.253311 0.416662 -0.180100
C59   C     C_R   0.022725 0.772733 0.926924 -0.199344
C60   C     C_R   0.977278 0.227259 0.073070 -0.198921
H9    H     H_    0.416744 0.203735 0.339784 0.134169
H10   H     H_    0.579503 0.811839 0.665162 0.121632
H11   H     H_    0.077426 0.224977 0.150539 0.128784
H12   H     H_    0.922576 0.775019 0.849457 0.128925
H13   H     H_    0.355437 0.728202 0.436716 0.179134
H14   H     H_    0.648069 0.259066 0.559658 0.178792
H15   H     H_    0.153463 0.702866 0.069868 0.176502
H16   H     H_    0.846539 0.297129 0.930129 0.176689
N1    N     N_R   0.395776 0.585448 0.541755 0.232152
O21   O     O_R   0.411798 0.412216 0.542646 -0.398078
O22   O     O_R   0.342160 0.627826 0.552002 -0.390960
N2    N     N_R   0.605602 0.409860 0.457369 0.228287
O23   O     O_R   0.637508 0.408041 0.407756 -0.364752
O24   O     O_R   0.610162 0.547455 0.498016 -0.432701
N3    N     N_R   0.117131 0.889818 0.972826 0.229633
O25   O     O_R   0.149369 0.893212 0.923501 -0.371225
O26   O     O_R   0.125409 0.012834 0.018442 -0.422935
N4    N     N_R   0.882873 0.110172 0.027167 0.229860
O27   O     O_R   0.874597 0.987153 0.981552 -0.422411
O28   O     O_R   0.850629 0.106796 0.076489 -0.366499
C61   C     C_R   0.486401 0.622054 0.640741 0.167528
C62   C     C_R   0.445785 0.646792 0.687781 -0.083307
C63   C     C_R   0.447924 0.534134 0.742905 -0.100012
C64   C     C_R   0.490520 0.396240 0.751364 -0.096485
C65   C     C_R   0.530889 0.370314 0.704584 -0.123310
C66   C     C_R   0.528784 0.482373 0.649320 -0.107648
H17   H     H_    0.412901 0.754250 0.681971 0.138801
H18   H     H_    0.416733 0.554299 0.779217 0.130940
H19   H     H_    0.492359 0.309917 0.794245 0.115486
H20   H     H_    0.564004 0.264273 0.711475 0.116667
H21   H     H_    0.560650 0.463367 0.613802 0.156017
C67   C     C_R   0.513279 0.378380 0.359372 0.177160
C68   C     C_R   0.505388 0.569999 0.366912 -0.044900
C69   C     C_R   0.501873 0.686848 0.312883 -0.118898
C70   C     C_R   0.506384 0.613306 0.250976 -0.084772
C71   C     C_R   0.515084 0.422948 0.243092 -0.099857
C72   C     C_R   0.518893 0.305797 0.297071 -0.138250
H22   H     H_    0.502052 0.628050 0.414599 0.123854
H23   H     H_    0.495648 0.834295 0.318976 0.111804
H24   H     H_    0.503374 0.703827 0.209158 0.112156
H25   H     H_    0.518808 0.366166 0.195153 0.123968
H26   H     H_    0.525626 0.158563 0.290364 0.114671
C73   C     C_R   0.024744 0.913250 0.874463 0.190550
C74   C     C_R   0.024731 0.103368 0.889047 -0.038681
C75   C     C_R   0.026184 0.235014 0.839562 -0.110602
C76   C     C_R   0.027492 0.177895 0.775209 -0.088523
C77   C     C_R   0.028087 0.988878 0.760281 -0.099545
C78   C     C_R   0.027180 0.856802 0.809698 -0.144942
H27   H     H_    0.023875 0.148855 0.938690 0.123725
H28   H     H_    0.026469 0.381267 0.851028 0.118297
H29   H     H_    0.028345 0.280073 0.736958 0.112405
H30   H     H_    0.029323 0.944715 0.710433 0.122771
H31   H     H_    0.027832 0.710714 0.797550 0.108741
C79   C     C_R   0.975259 0.086741 0.125532 0.189605
C80   C     C_R   0.972825 0.143187 0.190297 -0.143449
C81   C     C_R   0.971919 0.011111 0.239714 -0.098559
C82   C     C_R   0.972514 0.822095 0.224786 -0.087479
C83   C     C_R   0.973820 0.764976 0.160432 -0.109277
C84   C     C_R   0.975272 0.896623 0.110947 -0.038934
H32   H     H_    0.972174 0.289276 0.202445 0.109026
H33   H     H_    0.970686 0.055273 0.289563 0.122924
H34   H     H_    0.971663 0.719916 0.263036 0.112718
H35   H     H_    0.973534 0.618724 0.148966 0.118413
H36   H     H_    0.976126 0.851136 0.061304 0.123837

loop_
_geom_bond_atom_site_label_1
_geom_bond_atom_site_label_2
_geom_bond_distance
_ccdc_geom_bond_type
O17   V3    1.757817 S    
C39   C43   1.410687 A    
C75   H28   1.080623 S    
O1    C5    1.328423 A    
C69   C70   1.397574 A    
C21   C26   1.216997 T    
C55   C59   1.414015 A    
O19   V1    1.758620 S    
O13   V1    1.988158 S    
O3    C7    1.328361 A    
C80   C81   1.398432 A    
C16   C24   1.458250 S    
C48   C52   1.419594 A    
C54   N2    1.436429 S    
C71   C72   1.398639 A    
N2    O24   1.301089 A    
C62   C63   1.398732 A    
C82   C83   1.397230 A    
C73   C74   1.403383 A    
C10   C17   1.406218 A    
C45   C46   1.415165 A    
O7    C3    1.340686 A    
C51   C60   1.418772 A    
N1    O21   1.301205 A    
C50   C57   1.418282 A    
C32   C36   1.397901 A    
C15   C23   1.458398 S    
C5    C27   1.453820 S    
C16   C20   1.404993 A    
C76   H29   1.082410 S    
C6    C28   1.453906 S    
O4    C8    1.328360 A    
C29   H9    1.081396 S    
C63   C64   1.397730 A    
C31   H11   1.081515 S    
O1    V3    1.959981 S    
C64   C65   1.397293 A    
O2    V4    1.959981 S    
N1    O22   1.300990 A    
O3    V1    1.960348 S    
C70   H24   1.082530 S    
C32   C52   1.413558 A    
N4    O27   1.301065 A    
C68   H22   1.080022 S    
C1    O15   1.335282 A    
C56   C60   1.414012 A    
C2    O16   1.335279 A    
C38   C42   1.412114 A    
N3    O25   1.300930 A    
C37   C41   1.412571 A    
O14   V2    1.988160 S    
C52   C59   1.418771 A    
C45   C49   1.417673 A    
C44   C56   1.414308 A    
C62   H17   1.083118 S    
O8    C4    1.339963 A    
C56   N4    1.436084 S    
C61   C66   1.403742 A    
O11   C7    1.331854 A    
C11   C20   1.406302 A    
C30   C50   1.411020 A    
O15   V3    1.989226 S    
O12   C8    1.331854 A    
C82   H34   1.082410 S    
C23   C28   1.217086 T    
N3    O26   1.301063 A    
C38   H14   1.082126 S    
O10   V2    1.974457 S    
N2    O23   1.300941 A    
O5    V1    1.995721 S    
C73   C78   1.406351 A    
C31   C35   1.397899 A    
O7    V3    1.997679 S    
C64   H19   1.082538 S    
C30   C34   1.398778 A    
C60   C79   1.487826 S    
O8    V4    1.997679 S    
C81   C82   1.397427 A    
C32   H12   1.081516 S    
C61   C62   1.404176 A    
C54   C58   1.413316 A    
C53   C57   1.412284 A    
O18   V4    1.757817 S    
C15   C19   1.405053 A    
H1    C18   1.083399 S    
C39   H15   1.081989 S    
C72   H26   1.082597 S    
C31   C51   1.413556 A    
C79   C84   1.403383 A    
C65   H20   1.081235 S    
C1    C35   1.483149 S    
O5    C1    1.339891 A    
C74   H27   1.080627 S    
C77   H30   1.082562 S    
C46   C50   1.418153 A    
C57   C61   1.485879 S    
C13   C17   1.405057 A    
C36   C40   1.399589 A    
C14   C22   1.458215 S    
O9    C5    1.332024 A    
C40   C44   1.410687 A    
C84   H36   1.080628 S    
C42   C54   1.414005 A    
C41   C53   1.414195 A    
H4    C19   1.083427 S    
C7    C25   1.453804 S    
C49   C58   1.419025 A    
C43   C55   1.414312 A    
O6    V2    1.995715 S    
C83   H35   1.080623 S    
C30   H10   1.081188 S    
C68   C69   1.398108 A    
C81   H33   1.082563 S    
C9    C13   1.404709 A    
C70   C71   1.397520 A    
C53   N1    1.436387 S    
C11   C15   1.404800 A    
C79   C80   1.406352 A    
O16   V4    1.989226 S    
O9    V1    1.974457 S    
C12   C16   1.404755 A    
C3    O13   1.335057 A    
H2    C17   1.083400 S    
C58   C67   1.487826 S    
C44   C48   1.417754 A    
C74   C75   1.398215 A    
C55   N3    1.436087 S    
C78   H31   1.083054 S    
O6    C2    1.339892 A    
C11   H7    1.083424 S    
C77   C78   1.398433 A    
O11   V3    1.973694 S    
C2    C36   1.483145 S    
O12   V4    1.973695 S    
C12   C19   1.406328 A    
C75   C76   1.397230 A    
C14   C18   1.405057 A    
C24   C27   1.217003 T    
O10   C6    1.332120 A    
O20   V2    1.758619 S    
C80   H32   1.083055 S    
C29   C49   1.410971 A    
C71   H25   1.082521 S    
C47   C51   1.419595 A    
C9    C18   1.406217 A    
C34   C38   1.398485 A    
C4    C34   1.482669 S    
C69   H23   1.080742 S    
C33   C37   1.399444 A    
O2    C6    1.328347 A    
C67   C72   1.406121 A    
C35   C39   1.399589 A    
C66   H21   1.080306 S    
C9    H5    1.083424 S    
N4    O28   1.300935 A    
C10   C14   1.404710 A    
C76   C77   1.397428 A    
C13   C21   1.458216 S    
C47   C48   1.415443 A    
C10   H6    1.083423 S    
C29   C33   1.399804 A    
C12   H8    1.083420 S    
C59   C73   1.487825 S    
C8    C26   1.453798 S    
C63   H18   1.082304 S    
C42   C46   1.419331 A    
C4    O14   1.334815 A    
H3    C20   1.083434 S    
C41   C45   1.419673 A    
C83   C84   1.398215 A    
C40   H16   1.081989 S    
C65   C66   1.398604 A    
C43   C47   1.417756 A    
O4    V2    1.960346 S    
C3    C33   1.484442 S    
C67   C68   1.402927 A    
C22   C25   1.216997 T    
C37   H13   1.081770 S    
