data_mof_unit_27325.cif
_audit_creation_date              2012-12-10T16:44:45-0500
_audit_creation_method            fapswitch 2.2
_symmetry_space_group_name_H-M    P1
_symmetry_Int_Tables_number       1
_space_group_crystal_system       triclinic
_cell_length_a                    15.03392
_cell_length_b                    8.729078
_cell_length_c                    7.499448
_cell_angle_alpha                 102.758672
_cell_angle_beta                  95.108698
_cell_angle_gamma                 93.644301
_cell_volume                      952.540997296

loop_
_atom_site_label
_atom_site_type_symbol
_atom_type_description
_atom_site_fract_x
_atom_site_fract_y
_atom_site_fract_z
_atom_type_partial_charge
C1    C     C_R   0.496092 0.200366 0.454452 0.844500
C2    C     C_R   0.503908 0.799634 0.545548 0.844500
C3    C     C_R   0.027903 0.391096 0.169299 -0.201013
C4    C     C_R   0.972097 0.608904 0.830701 -0.201013
C5    C     C_2   0.482110 0.033949 0.434082 0.128222
C6    C     C_2   0.517889 0.966051 0.565918 0.128222
C7    C     C_R   0.328811 0.499006 0.500730 0.807239
C8    C     C_R   0.671188 0.500994 0.499270 0.807239
C9    C     C_R   0.823611 0.554953 0.664147 -0.213190
C10   C     C_R   0.176389 0.445047 0.335852 -0.213190
C11   C     C_R   0.768038 0.502159 0.498432 -0.055731
C12   C     C_R   0.231961 0.497841 0.501567 -0.055731
C13   C     C_R   0.805116 0.449558 0.333031 -0.197280
C14   C     C_R   0.194884 0.550442 0.666968 -0.197280
C15   C     C_R   0.897640 0.447584 0.332616 0.090755
C16   C     C_R   0.102360 0.552416 0.667384 0.090755
C17   C     C_R   0.953441 0.500710 0.499595 0.071760
C18   C     C_R   0.046559 0.499290 0.500405 0.071760
C19   C     C_R   0.916210 0.555232 0.665786 0.090915
C20   C     C_R   0.083790 0.444768 0.334214 0.090915
C21   C     C_R   0.935244 0.392715 0.168434 -0.198505
C22   C     C_R   0.064756 0.607285 0.831566 -0.198506
Cu1   Cu    Cu3+1 0.510010 0.517380 0.684380 1.158046
Cu2   Cu    Cu3+1 0.489990 0.482620 0.315620 1.158046
H1    H     H_    0.794918 0.596670 0.791947 0.183338
H2    H     H_    0.205082 0.403330 0.208053 0.183338
H3    H     H_    0.762033 0.408244 0.205124 0.187753
H4    H     H_    0.237967 0.591755 0.794875 0.187753
H5    H     H_    0.893051 0.351400 0.039511 0.167709
H6    H     H_    0.106949 0.648600 0.960488 0.167709
H7    H     H_    0.055872 0.348306 0.041070 0.166298
H8    H     H_    0.944128 0.651694 0.958929 0.166298
N1    N     N_2   0.474890 0.456420 0.038520 0.128516
N2    N     N_2   0.525110 0.543580 0.961480 0.128516
O1    O     O_R   0.506510 0.286130 0.619770 -0.535068
O2    O     O_R   0.493490 0.713870 0.380230 -0.535068
O3    O     O_R   0.489600 0.256770 0.308360 -0.523495
O4    O     O_R   0.510400 0.743230 0.691640 -0.523494
O5    O     O_R   0.378710 0.514640 0.655720 -0.564936
O6    O     O_R   0.621290 0.485360 0.344280 -0.564936
O7    O     O_R   0.361800 0.485290 0.344300 -0.570340
O8    O     O_R   0.638200 0.514710 0.655700 -0.570340
Cl1   Cl    Cl    0.404642 0.934580 0.244421 -0.530530
Cl2   Cl    Cl    0.595357 0.065420 0.755579 -0.530530
Cl3   Cl    Cl    0.394414 0.317636 0.906827 -0.434963
Cl4   Cl    Cl    0.605586 0.682364 0.093173 -0.434963

loop_
_geom_bond_atom_site_label_1
_geom_bond_atom_site_label_2
_ccdc_geom_bond_type
C15   C21   A    
Cu1   Cu2   S    
N2    Cl4   S    
C22   H6    S    
Cu1   O4    S    
N1    Cl3   S    
C2    O4    A    
Cu1   O1    S    
Cu2   N1    S    
Cu2   O2    S    
C1    O3    A    
N1    N2    D    
Cu1   N2    S    
C14   H4    S    
C10   H2    S    
C13   C15   A    
Cu2   O3    S    
C5    Cl1   S    
C9    H1    S    
C3    C20   A    
C6    Cl2   S    
C3    H7    S    
Cu2   O7    S    
C9    C11   A    
C4    H8    S    
Cu1   O8    S    
C10   C12   A    
C8    C11   S    
Cu1   O5    S    
C17   C19   A    
C8    O8    A    
C17   C18   A    
C18   C20   A    
C7    O7    A    
C10   C20   A    
C5    C6    D    
C14   C16   A    
C7    C12   S    
C3    C21   A    
C11   C13   A    
C1    C5    S    
C4    C22   A    
C1    O1    A    
C16   C18   A    
C2    O2    A    
C15   C17   A    
C7    O5    A    
C13   H3    S    
C16   C22   A    
C8    O6    A    
Cu2   O6    S    
C4    C19   A    
C21   H5    S    
C9    C19   A    
C2    C6    S    
C12   C14   A    
