data_mof_unit_5501.cif
_audit_creation_date              2012-12-10T20:39:57-0500
_audit_creation_method            fapswitch 2.2
_symmetry_space_group_name_H-M    P1
_symmetry_Int_Tables_number       1
_space_group_crystal_system       triclinic
_cell_length_a                    23.420955
_cell_length_b                    10.70019
_cell_length_c                    9.888128
_cell_angle_alpha                 89.006492
_cell_angle_beta                  89.395178
_cell_angle_gamma                 90.952402
_cell_volume                      2477.19001226

loop_
_atom_site_label
_atom_site_type_symbol
_atom_type_description
_atom_site_fract_x
_atom_site_fract_y
_atom_site_fract_z
_atom_type_partial_charge
C1    C     C_R   0.501241 0.259774 0.500579 0.858200
C2    C     C_R   0.118507 0.600415 0.532566 0.513222
C3    C     C_R   0.240582 0.577034 0.615043 -0.185223
C4    C     C_R   0.389651 0.504718 0.501223 0.953209
C5    C     C_R   0.299550 0.589730 0.598354 0.368230
C6    C     C_R   0.327739 0.510636 0.506883 -0.160425
C7    C     C_R   0.296211 0.428790 0.427086 -0.304631
C8    C     C_R   0.237195 0.423438 0.437832 -0.089087
C9    C     C_R   0.209103 0.495834 0.533603 0.233831
C10   C     C_R   0.756023 0.403856 0.606430 -0.096951
C11   C     C_R   0.697085 0.410204 0.596893 -0.285865
C12   C     C_R   0.970201 0.252976 0.547849 -0.230429
C13   C     C_R   0.672403 0.491346 0.502165 -0.063258
C14   C     C_R   0.707244 0.566576 0.416109 0.167472
C15   C     C_R   0.766265 0.552701 0.419590 -0.161256
C16   C     C_R   0.502249 0.739759 0.498814 0.939434
C17   C     C_R   0.790946 0.474849 0.517610 0.266337
C18   C     C_R   0.525891 0.061655 0.613084 0.134087
C19   C     C_R   0.509146 0.127997 0.498076 -0.080347
C20   C     C_R   0.504143 0.066034 0.374620 -0.216902
C21   C     C_R   0.504726 0.937441 0.373269 -0.213361
C22   C     C_R   0.511307 0.871135 0.495032 -0.082107
C23   C     C_R   0.029907 0.253851 0.553365 0.219286
C24   C     C_R   0.527615 0.933760 0.611104 0.098437
C25   C     C_3   0.505899 0.919370 0.752998 -0.411793
C26   C     C_3   0.502270 0.060202 0.753886 -0.516444
C27   C     C_R   0.454355 0.452140 0.073061 0.072967
C28   C     C_R   0.610486 0.499360 0.499844 0.887935
C29   C     C_R   0.541120 0.563332 0.068991 0.237476
C30   C     C_R   0.541961 0.559127 0.924894 -0.179814
C31   C     C_R   0.453778 0.455037 0.930641 0.165863
C32   C     C_3   0.428376 0.326953 0.923066 -0.082041
C33   C     C_3   0.431888 0.320454 0.077682 -0.040970
C34   C     C_R   0.060402 0.369745 0.553366 -0.058105
C35   C     C_R   0.880043 0.587655 0.545690 0.501011
C36   C     C_R   0.880463 0.364894 0.532015 0.521025
C37   C     C_R   0.940004 0.364860 0.543278 -0.043024
C38   C     C_R   0.969790 0.479813 0.546359 -0.022692
C39   C     C_R   0.939573 0.592509 0.546766 -0.000991
C40   C     C_3   0.665829 0.772515 0.415622 -0.738243
C41   C     C_3   0.586468 0.765032 0.095370 -0.800812
C42   C     C_3   0.073329 0.093789 0.420858 -0.666471
C43   C     C_3   0.356594 0.237895 0.769525 -0.695461
C44   C     C_3   0.355570 0.182261 0.165143 -0.711714
C45   C     C_R   0.029843 0.482509 0.547550 -0.063805
C46   C     C_R   0.059132 0.598628 0.541220 0.002174
C47   C     C_R   0.028586 0.710379 0.541009 -0.163114
C48   C     C_R   0.969321 0.707331 0.546132 -0.164348
C49   C     C_R   0.120407 0.377965 0.559241 0.513313
H1    H     H_    0.947634 0.163799 0.545478 0.191901
H2    H     H_    0.576356 0.604016 0.867541 0.158305
H3    H     H_    0.457320 0.262296 0.871871 0.148886
H4    H     H_    0.464132 0.253942 0.115907 0.132792
H5    H     H_    0.050336 0.800533 0.537603 0.184490
H6    H     H_    0.946968 0.795160 0.546148 0.189538
H7    H     H_    0.218571 0.633390 0.688323 0.197724
H8    H     H_    0.317411 0.367170 0.358577 0.190207
H9    H     H_    0.213318 0.361757 0.372731 0.161498
H10   H     H_    0.774492 0.345200 0.684239 0.166665
H11   H     H_    0.707282 0.690690 0.252442 0.221697
H12   H     H_    0.670641 0.353491 0.665365 0.166561
H13   H     H_    0.688734 0.858682 0.379309 0.238248
H14   H     H_    0.674055 0.760460 0.525710 0.239837
H15   H     H_    0.619417 0.785205 0.402388 0.236570
H16   H     H_    0.622687 0.592703 0.131325 0.226738
H17   H     H_    0.606507 0.776032 0.993480 0.212760
H18   H     H_    0.612961 0.818213 0.167124 0.255346
H19   H     H_    0.543186 0.805817 0.093814 0.242871
H20   H     H_    0.037894 0.068840 0.611793 0.218155
H21   H     H_    0.034030 0.072143 0.363080 0.210365
H22   H     H_    0.098794 0.007541 0.430484 0.258470
H23   H     H_    0.793306 0.609256 0.352347 0.156966
H24   H     H_    0.099401 0.165462 0.364411 0.251118
H25   H     H_    0.352740 0.414881 0.854660 0.252657
H26   H     H_    0.311162 0.246882 0.740377 0.254219
H27   H     H_    0.362669 0.141742 0.810114 0.249925
H28   H     H_    0.383864 0.254233 0.678178 0.234703
H29   H     H_    0.346878 0.372943 0.119522 0.243839
H30   H     H_    0.314779 0.182228 0.223293 0.232548
H31   H     H_    0.386589 0.124915 0.222173 0.240637
H32   H     H_    0.347592 0.139684 0.065393 0.263172
H33   H     H_    0.342341 0.642612 0.885939 0.341035
H34   H     H_    0.495421 0.115232 0.280960 0.161857
H35   H     H_    0.495156 0.890961 0.279730 0.176805
H36   H     H_    0.463423 0.871610 0.760848 0.275993
H37   H     H_    0.538871 0.882051 0.822089 0.189139
H38   H     H_    0.457361 0.090524 0.756586 0.216837
H39   H     H_    0.531674 0.104768 0.826990 0.197397
N1    N     N_R   0.851724 0.475412 0.532857 -0.348093
N2    N     N_R   0.147992 0.491367 0.543335 -0.348071
N3    N     N_R   0.499610 0.499140 0.142800 -0.134610
N4    N     N_R   0.499610 0.499180 0.857150 -0.117386
N5    N     N_2   0.683959 0.665852 0.338164 -0.305968
N6    N     N_2   0.583379 0.634293 0.136310 -0.238799
N7    N     N_2   0.058497 0.137479 0.554150 -0.248919
N8    N     N_2   0.370254 0.328307 0.871574 -0.283446
N9    N     N_2   0.377238 0.308996 0.147753 -0.270796
O1    O     O_R   0.500010 0.316790 0.614690 -0.633515
O2    O     O_R   0.583850 0.500060 0.614640 -0.641306
O3    O     O_R   0.583840 0.500020 0.385300 -0.594675
O4    O     O_2   0.850584 0.694419 0.557388 -0.561111
O5    O     O_2   0.376103 0.778455 0.584099 -0.302818
O6    O     O_2   0.292786 0.808082 0.729540 -0.287824
O7    O     O_3   0.371583 0.659486 0.814572 -0.559824
O8    O     O_2   0.851671 0.255691 0.517720 -0.563542
O9    O     O_2   0.151179 0.274414 0.582148 -0.522034
O10   O     O_2   0.146590 0.710347 0.511202 -0.546678
O11   O     O_R   0.500000 0.316760 0.385350 -0.626486
O12   O     O_R   0.416160 0.499980 0.614700 -0.564314
O13   O     O_R   0.416150 0.499940 0.385360 -0.605023
O14   O     O_R   0.500000 0.683240 0.614650 -0.587824
O15   O     O_R   0.499990 0.683210 0.385310 -0.609347
S1    S     S_3+6 0.335095 0.714068 0.681249 0.018836
Zn1   Zn    Zn3+2 0.500000 0.500020 0.653130 0.986014
Zn2   Zn    Zn3+2 0.500000 0.499980 0.346870 0.985263

loop_
_geom_bond_atom_site_label_1
_geom_bond_atom_site_label_2
_ccdc_geom_bond_type
C36   N1    A    
C48   H6    S    
C30   H2    S    
C19   C20   A    
C18   C26   S    
C35   O4    S    
C49   N2    A    
C4    O12   A    
O2    Zn1   S    
C7    C8    A    
C41   H18   S    
C45   C46   A    
C27   C33   S    
C15   H23   S    
C12   C23   A    
C29   C30   A    
C40   H14   S    
C23   N7    S    
C18   C24   A    
O11   Zn2   S    
C36   C37   A    
O6    S1    D    
C29   N6    S    
O1    Zn1   S    
C10   C17   A    
C2    O10   S    
C42   H21   S    
C40   H13   S    
C18   C19   A    
C3    H7    S    
C12   C37   A    
C2    N2    A    
C32   H3    S    
C38   C45   A    
C8    H9    S    
H20   N7    S    
C47   C48   A    
C42   H22   S    
C8    C9    A    
C42   H24   S    
C13   C28   S    
C27   N3    A    
C40   N5    S    
C14   N5    S    
H11   N5    S    
C28   O3    A    
C21   C22   A    
C33   H4    S    
O3    Zn2   S    
C41   H19   S    
C44   H30   S    
C43   H26   S    
C38   C39   A    
C1    C19   S    
C27   C31   A    
C42   N7    S    
H25   N8    S    
C44   H31   S    
C17   N1    S    
C24   C25   S    
C30   N4    A    
C44   H32   S    
C26   H38   S    
C41   H17   S    
C11   H12   S    
C25   C26   S    
C2    C46   A    
C9    N2    S    
C35   C39   A    
C37   C38   A    
C3    C9    A    
C44   N9    S    
C41   N6    S    
C21   H35   S    
C23   C34   A    
H29   N9    S    
C25   H36   S    
C43   N8    S    
C34   C45   A    
C6    C7    A    
O12   Zn1   S    
C47   H5    S    
C35   N1    A    
C28   O2    A    
C4    C6    S    
H16   N6    S    
C32   N8    S    
C22   C24   A    
C29   N3    A    
C16   O15   A    
C43   H27   S    
C15   C17   A    
C4    O13   A    
C46   C47   A    
C34   C49   A    
C16   C22   S    
C5    S1    S    
C36   O8    S    
C31   C32   S    
C3    C5    A    
C1    O1    A    
C12   H1    S    
C49   O9    S    
C43   H28   S    
C40   H15   S    
C32   C33   S    
C10   H10   S    
O5    S1    D    
C11   C13   A    
C5    C6    A    
C25   H37   S    
N3    Zn2   S    
O14   Zn1   S    
C33   N9    S    
C10   C11   A    
C1    O11   A    
O7    S1    S    
C20   C21   A    
C26   H39   S    
C31   N4    A    
C20   H34   S    
H33   O7    S    
C14   C15   A    
C13   C14   A    
N4    Zn1   S    
O13   Zn2   S    
C7    H8    S    
O15   Zn2   S    
C16   O14   A    
C39   C48   A    
