data_mof_unit_10659.cif
_audit_creation_date              2012-12-11T15:32:38-0500
_audit_creation_method            fapswitch 2.2
_symmetry_space_group_name_H-M    P1
_symmetry_Int_Tables_number       1
_space_group_crystal_system       triclinic
_cell_length_a                    6.949252
_cell_length_b                    20.434985
_cell_length_c                    24.395174
_cell_angle_alpha                 89.661262
_cell_angle_beta                  90.665761
_cell_angle_gamma                 89.571996
_cell_volume                      3463.91360322

loop_
_atom_site_label
_atom_site_type_symbol
_atom_type_description
_atom_site_fract_x
_atom_site_fract_y
_atom_site_fract_z
_atom_type_partial_charge
O1    O     O_R   0.507320 0.423560 0.460500 -0.536470
O2    O     O_R   0.170760 0.556250 0.437010 -0.536263
O3    O     O_R   0.004030 0.576440 0.539500 -0.534735
C1    C     C_R   0.338668 0.576367 0.421032 0.725843
O4    O     O_R   0.177370 0.422820 0.454110 -0.538733
O5    O     O_R   0.010680 0.442050 0.556720 -0.535820
C2    C     C_R   0.345654 0.398533 0.443945 0.695577
O6    O     O_R   0.500680 0.557950 0.443280 -0.534880
O7    O     O_3   0.340380 0.506470 0.533650 -0.366697
V1    V     V_3+5 0.064130 0.498800 0.493760 1.431593
O8    O     O_R   0.681160 0.443750 0.562990 -0.537878
C3    C     C_R   0.850994 0.423548 0.578811 0.724001
O9    O     O_R   0.674560 0.577180 0.545890 -0.536300
C4    C     C_R   0.843218 0.600915 0.557046 0.692523
V2    V     V_3+5 0.564560 0.501200 0.506240 1.432484
O10   O     O_3   0.838180 0.493530 0.466350 -0.367051
C5    C     C_R   0.975961 0.836580 0.912474 -0.202629
C6    C     C_R   0.850465 0.661983 0.589285 -0.047061
C7    C     C_R   0.024125 0.719263 0.907442 -0.218436
C8    C     C_R   0.019944 0.776519 0.938534 0.456097
C9    C     C_R   0.941159 0.837909 0.855454 -0.172624
C10   C     C_R   0.963619 0.781289 0.822654 0.162455
C11   C     C_R   0.993899 0.721080 0.850473 0.054411
C12   C     C_R   0.948029 0.781907 0.763602 -0.075736
C13   C     C_R   0.931513 0.720912 0.735109 0.023279
C14   C     C_R   0.952724 0.662219 0.765622 -0.129203
C15   C     C_R   0.989902 0.662605 0.821577 -0.154666
C16   C     C_R   0.957470 0.840582 0.731880 0.216942
C17   C     C_R   0.883597 0.840838 0.677471 0.373258
C18   C     C_R   0.862573 0.780654 0.649172 -0.047942
C19   C     C_R   0.897353 0.720264 0.677058 0.032725
C20   C     C_R   0.817684 0.779546 0.592378 -0.017222
C21   C     C_R   0.809547 0.721242 0.563341 -0.191279
C22   C     C_R   0.894185 0.661331 0.645640 -0.155410
H1    H     H_    0.009244 0.616208 0.842809 0.122880
H2    H     H_    0.925975 0.614033 0.663311 0.084470
H3    H     H_    0.775272 0.722586 0.519890 0.112313
H4    H     H_    0.052432 0.672784 0.927693 0.174121
H5    H     H_    0.894108 0.883279 0.837462 0.141048
H6    H     H_    0.941813 0.614470 0.747592 0.110233
H7    H     H_    0.793554 0.823584 0.568688 0.193103
C23   C     C_3   0.886604 0.309390 0.769300 -0.139311
C24   C     C_3   0.064041 0.264732 0.780862 -0.144406
H8    H     H_    0.189778 0.277506 0.807063 0.110927
H9    H     H_    0.865479 0.359501 0.785596 0.113948
H10   H     H_    0.204939 0.246133 0.694177 0.121442
C25   C     C_1   0.960296 0.121218 0.874878 -0.142893
C26   C     C_1   0.863867 0.377704 0.624425 -0.189704
C27   C     C_3   0.751602 0.250569 0.779396 -0.143548
C28   C     C_3   0.928832 0.206532 0.790363 0.149849
C29   C     C_3   0.759993 0.233092 0.717699 -0.130043
C30   C     C_3   0.895217 0.291311 0.708216 0.152585
C31   C     C_3   0.937450 0.188402 0.729284 -0.086653
C32   C     C_3   0.072452 0.247253 0.719169 -0.137874
C33   C     C_1   0.946984 0.159426 0.836639 -0.024784
C34   C     C_1   0.877117 0.338892 0.662254 -0.052403
H11   H     H_    0.958526 0.138251 0.713045 0.177545
H12   H     H_    0.634265 0.220310 0.691498 0.128260
H13   H     H_    0.619115 0.251681 0.804389 0.113290
C35   C     C_3   0.582929 0.741564 0.228918 0.363001
C36   C     C_3   0.428946 0.687666 0.230923 -0.170782
H14   H     H_    0.446540 0.637018 0.215469 0.141313
H15   H     H_    0.166317 0.730221 0.178146 0.198845
C37   C     C_1   0.348246 0.621865 0.375023 -0.196011
C38   C     C_1   0.475839 0.878033 0.124751 -0.040708
C39   C     C_3   0.546864 0.760237 0.289151 -0.267548
C40   C     C_3   0.387776 0.707374 0.290926 0.039871
C41   C     C_3   0.393475 0.809501 0.267955 0.383217
C42   C     C_3   0.434428 0.791933 0.208238 0.095788
C43   C     C_3   0.233730 0.757663 0.271134 -0.182188
C44   C     C_3   0.276410 0.738918 0.210570 -0.201685
C45   C     C_1   0.363424 0.660252 0.336974 -0.007116
C46   C     C_1   0.459981 0.839384 0.162530 0.109847
H16   H     H_    0.089269 0.765255 0.289094 0.147355
H17   H     H_    0.658728 0.769582 0.320948 0.137578
C47   C     C_R   0.471019 0.159524 0.091728 -0.122951
C48   C     C_R   0.347914 0.337553 0.412177 -0.048687
C49   C     C_R   0.480475 0.277740 0.093954 -0.150208
C50   C     C_R   0.471040 0.219855 0.064523 -0.245426
C51   C     C_R   0.474120 0.157196 0.150024 0.302846
C52   C     C_R   0.445325 0.216865 0.179779 -0.049724
C53   C     C_R   0.469790 0.276789 0.151194 0.107569
C54   C     C_R   0.392166 0.220232 0.236259 0.044088
C55   C     C_R   0.415001 0.279881 0.266097 0.053564
C56   C     C_R   0.465534 0.336669 0.236613 -0.177581
C57   C     C_R   0.483049 0.335513 0.179921 -0.167589
C58   C     C_R   0.295812 0.168259 0.261777 -0.064746
C59   C     C_R   0.250370 0.170110 0.316965 -0.177226
C60   C     C_R   0.291611 0.225229 0.348319 0.113317
C61   C     C_R   0.373566 0.281439 0.323533 0.083161
C62   C     C_R   0.242194 0.225526 0.403874 -0.136411
C63   C     C_R   0.267694 0.281457 0.435235 -0.159950
C64   C     C_R   0.404177 0.337301 0.357031 -0.211638
H18   H     H_    0.508649 0.381104 0.158343 0.126456
H19   H     H_    0.466149 0.381709 0.341283 0.098156
H20   H     H_    0.221015 0.281469 0.477467 0.114249
H21   H     H_    0.179166 0.128331 0.335053 0.154923
H22   H     H_    0.492476 0.323616 0.071771 0.127581
H23   H     H_    0.473729 0.221974 0.020134 0.120031
H24   H     H_    0.479075 0.383874 0.255632 0.120466
H25   H     H_    0.248565 0.126304 0.238791 0.201536
H26   H     H_    0.177975 0.182913 0.422733 0.133457
O11   O     O_R   0.323550 0.942140 0.056770 -0.527418
O12   O     O_R   0.647080 0.077200 0.045890 -0.523147
O13   O     O_R   0.813610 0.057920 0.943260 -0.552190
C65   C     C_R   0.478358 0.100098 0.057776 0.771357
O14   O     O_R   0.653470 0.943760 0.063000 -0.515872
O15   O     O_R   0.820050 0.923540 0.960490 -0.533921
C66   C     C_R   0.485558 0.923709 0.078964 0.841530
O16   O     O_R   0.317110 0.076520 0.039540 -0.551662
O17   O     O_3   0.483830 0.993580 0.966380 -0.382897
V3    V     V_3+5 0.760140 0.001190 0.006240 1.600020
O18   O     O_R   0.149510 0.922740 0.954070 -0.520304
C67   C     C_R   0.981082 0.898602 0.943521 0.818241
O19   O     O_R   0.143120 0.056170 0.936970 -0.543730
C68   C     C_R   0.973250 0.076094 0.920962 0.695118
V4    V     V_3+5 0.259690 0.998700 0.993700 1.581981
O20   O     O_3   0.986130 0.006420 0.033620 -0.356216
O21   O     O_3   0.765043 0.733483 0.206104 -0.630504
H27   H     H_    0.826865 0.697362 0.227307 0.286395
O22   O     O_3   0.374394 0.873729 0.286633 -0.594488
H28   H     H_    0.348421 0.869771 0.326375 0.304774
S1    S     S_3+6 0.560091 0.083997 0.183194 -0.004606
O23   O     O_2   0.400767 0.034719 0.184725 -0.323449
O24   O     O_2   0.725057 0.055046 0.152055 -0.329619
O25   O     O_3   0.639342 0.098151 0.247439 -0.473089
H29   H     H_    0.749565 0.128151 0.243134 0.335085
S2    S     S_3+6 0.820235 0.916366 0.644158 0.075574
O26   O     O_2   0.812984 0.972764 0.683150 -0.292621
O27   O     O_2   0.965013 0.930661 0.600447 -0.306583
O28   O     O_3   0.601008 0.909068 0.614896 -0.482034
H30   H     H_    0.580753 0.950205 0.593865 0.382987
S3    S     S_3+6 0.070323 0.771443 0.009832 0.002580
O29   O     O_2   0.058670 0.701752 0.029527 -0.319739
O30   O     O_2   0.270189 0.796422 0.020197 -0.351174
O31   O     O_3   0.912086 0.817448 0.044618 -0.508870
H31   H     H_    0.961730 0.817676 0.082850 0.361566
S4    S     S_3+6 0.134438 0.900871 0.749292 0.102094
O32   O     O_2   0.282283 0.871203 0.787648 -0.319427
O33   O     O_2   0.235195 0.922216 0.698095 -0.223276
O34   O     O_3   0.041157 0.968004 0.779229 -0.471451
H32   H     H_    0.899785 0.963065 0.778179 0.340399

loop_
_geom_bond_atom_site_label_1
_geom_bond_atom_site_label_2
_ccdc_geom_bond_type
C13   C19   A    
C54   C58   A    
C58   C59   A    
C48   C63   A    
O25   H29   S    
O14   V3    S    
C4    C6    S    
O13   C68   A    
C39   C41   S    
C7    C8    A    
C47   C50   A    
C1    O6    A    
S2    O26   D    
C27   C29   S    
O12   C65   A    
C52   C53   A    
S1    O23   D    
C31   C32   S    
C14   C15   A    
C56   H24   S    
C50   H23   S    
C16   C17   A    
O5    C3    A    
C18   C19   A    
S1    O24   D    
O19   C68   A    
C63   H20   S    
C5    C8    A    
C38   C46   T    
C35   O21   S    
C40   C45   S    
O15   C67   A    
C42   C44   S    
C49   C53   A    
C57   H18   S    
C9    C10   A    
C58   H25   S    
O8    V2    S    
O17   V3    S    
C41   C42   S    
O19   V4    S    
C49   H22   S    
S3    O31   S    
C20   H7    S    
C42   C46   S    
C43   C44   S    
O1    V2    S    
C11   C15   A    
C8    S3    S    
C60   C62   A    
O7    V1    S    
C59   H21   S    
C3    C26   S    
C2    C48   S    
C36   C44   S    
C39   C40   S    
C25   C33   T    
C35   C39   S    
C64   H19   S    
O9    C4    A    
O14   C66   A    
O11   V4    S    
C55   C61   A    
O16   V4    S    
C52   C54   A    
C30   C32   S    
C5    C67   S    
C25   C68   S    
C28   C31   S    
V2    O10   S    
C29   C30   S    
C18   C20   A    
C12   C16   A    
C16   S4    S    
C55   C56   A    
C62   C63   A    
O4    C2    A    
C31   H11   S    
C49   C50   A    
O31   H31   S    
S1    O25   S    
C15   H1    S    
C13   C14   A    
C53   C57   A    
C21   H3    S    
O15   V3    S    
C35   C36   S    
C29   C31   S    
C23   H9    S    
O2    C1    A    
C24   H8    S    
C43   H16   S    
C17   C18   A    
C7    H4    S    
C36   C40   S    
C24   C32   S    
C54   C55   A    
C9    H5    S    
O21   H27   S    
H10   C32   S    
O22   H28   S    
C19   C22   A    
C29   H12   S    
C12   C13   A    
C6    C22   A    
C38   C66   S    
C56   C57   A    
O3    C4    A    
S4    O33   D    
O18   V4    S    
O13   V3    S    
H15   C44   S    
O6    V2    S    
O9    V2    S    
S3    O29   D    
C10   C12   A    
C23   C24   S    
C62   H26   S    
O28   H30   S    
O2    V1    S    
S2    O28   S    
C7    C11   A    
C61   C64   A    
O12   V3    S    
O18   C67   A    
C65   O16   A    
C26   C34   T    
C47   C65   S    
O1    C2    A    
C47   C51   A    
C51   C52   A    
S4    O34   S    
S2    O27   D    
C41   O22   S    
O5    V1    S    
O8    C3    A    
C24   C28   S    
C1    C37   S    
C28   C33   S    
C27   H13   S    
O17   V4    S    
O11   C66   A    
C40   C43   S    
C20   C21   A    
O7    V2    S    
O4    V1    S    
O3    V1    S    
V1    O10   S    
O34   H32   S    
V3    O20   S    
C14   H6    S    
C35   C42   S    
C39   H17   S    
C48   C64   A    
C22   H2    S    
C37   C45   T    
C36   H14   S    
C6    C21   A    
C5    C9    A    
S4    O32   D    
C23   C27   S    
C59   C60   A    
C41   C43   S    
C27   C28   S    
C17   S2    S    
S3    O30   D    
C10   C11   A    
C60   C61   A    
V4    O20   S    
C30   C34   S    
C23   C30   S    
C51   S1    S    
