data_mof_unit_26132.cif
_audit_creation_date              2012-12-10T18:10:21-0500
_audit_creation_method            fapswitch 2.2
_symmetry_space_group_name_H-M    P1
_symmetry_Int_Tables_number       1
_space_group_crystal_system       triclinic
_cell_length_a                    10.789787
_cell_length_b                    9.62749
_cell_length_c                    15.849102
_cell_angle_alpha                 90.381847
_cell_angle_beta                  90.293522
_cell_angle_gamma                 90.725018
_cell_volume                      1646.1913028

loop_
_atom_site_label
_atom_site_type_symbol
_atom_type_description
_atom_site_fract_x
_atom_site_fract_y
_atom_site_fract_z
_atom_type_partial_charge
C1    C     C_R   0.260259 0.499357 0.497606 0.749020
C2    C     C_3   0.634494 0.521042 0.948733 -0.477256
C3    C     C_3   0.640564 0.524624 0.048416 -0.073664
C4    C     C_1   0.499398 0.500945 0.824367 0.020422
C5    C     C_1   0.501329 0.498932 0.175986 0.083516
C6    C     C_1   0.500047 0.498800 0.251466 -0.051084
C7    C     C_3   0.072528 0.644571 0.519990 -0.326113
C8    C     C_3   0.070070 0.395103 0.560717 -0.397826
C9    C     C_3   0.931328 0.649344 0.510948 -0.379935
C10   C     C_3   0.928948 0.409932 0.569491 -0.508034
C11   C     C_3   0.069023 0.459284 0.402253 -0.124451
C12   C     C_3   0.121368 0.498324 0.493765 -0.069982
C13   C     C_3   0.877274 0.500784 0.496843 0.019620
C14   C     C_R   0.499630 0.499589 0.340911 0.814669
C15   C     C_3   0.920892 0.445584 0.408110 0.738067
C16   C     C_3   0.622929 0.086405 0.477085 0.330157
C17   C     C_3   0.615328 0.922651 0.463728 0.336088
C18   C     C_3   0.473385 0.085416 0.587994 -0.076534
C19   C     C_3   0.487551 0.920099 0.589771 -0.114129
C20   C     C_3   0.404620 0.081237 0.442348 -0.204863
C21   C     C_3   0.393337 0.916802 0.452022 -0.150381
C22   C     C_R   0.739264 0.500699 0.500383 0.864153
C23   C     C_R   0.499866 0.500369 0.659239 0.800457
C24   C     C_3   0.414746 0.614889 0.050721 0.088448
C25   C     C_3   0.449681 0.358644 0.049405 0.080851
C26   C     C_3   0.453835 0.355986 0.951073 -0.213453
C27   C     C_3   0.422971 0.624704 0.952871 -0.239829
C28   C     C_1   0.499653 0.501055 0.748813 -0.155148
C29   C     C_3   0.504122 0.499818 0.083436 0.136599
C30   C     C_3   0.499001 0.500278 0.916910 0.052590
Cu1   Cu    Cu3+1 0.499860 0.642410 0.500040 0.995621
Cu2   Cu    Cu3+1 0.499860 0.357590 0.500040 0.969805
H1    H     H_    0.907263 0.716843 0.456899 0.289938
H2    H     H_    0.884864 0.305615 0.571403 0.226138
H3    H     H_    0.653699 0.136100 0.417584 0.184756
H4    H     H_    0.613888 0.903222 0.394664 0.204238
H5    H     H_    0.544309 0.127099 0.632973 0.157506
H6    H     H_    0.574186 0.900205 0.625212 0.074189
H7    H     H_    0.313691 0.122954 0.459773 0.156786
H8    H     H_    0.306920 0.900156 0.487913 0.184519
H9    H     H_    0.318498 0.584866 0.069708 0.098468
H10   H     H_    0.351691 0.349776 0.071502 0.104359
H11   H     H_    0.524032 0.278149 0.931467 0.224252
H12   H     H_    0.475607 0.721638 0.937293 0.207891
H13   H     H_    0.674055 0.617721 0.920938 0.149419
H14   H     H_    0.691897 0.437406 0.921133 0.232237
H15   H     H_    0.114393 0.729638 0.482132 0.207839
H16   H     H_    0.091455 0.286245 0.543586 0.213487
H17   H     H_    0.097820 0.666211 0.586977 0.236121
H18   H     H_    0.114696 0.415496 0.623174 0.208064
H19   H     H_    0.892449 0.696641 0.569190 0.180760
H20   H     H_    0.907868 0.459645 0.631334 0.196618
N1    N     N_3   0.500250 0.143650 0.501830 -0.201528
N2    N     N_3   0.500250 0.856350 0.501830 -0.204502
O1    O     O_R   0.317570 0.620260 0.500050 -0.576437
O2    O     O_R   0.317570 0.379740 0.500050 -0.610366
O3    O     O_R   0.499890 0.620310 0.379470 -0.539123
O4    O     O_R   0.499890 0.379690 0.379470 -0.589507
O5    O     O_R   0.682190 0.620260 0.500020 -0.538481
O6    O     O_R   0.682190 0.379740 0.500020 -0.530476
O7    O     O_R   0.499870 0.620210 0.620600 -0.588686
O8    O     O_R   0.499870 0.379790 0.620600 -0.602295
C31   C     C_2   0.295926 0.639906 0.913439 0.355791
H21   H     H_    0.219082 0.574215 0.932536 0.067502
O9    O     O_2   0.277704 0.729352 0.860711 -0.512749
C32   C     C_2   0.331597 0.306052 0.914082 0.337516
H22   H     H_    0.244751 0.345958 0.937270 0.078453
O10   O     O_2   0.329266 0.216790 0.858995 -0.532372
C33   C     C_2   0.113951 0.570243 0.339993 0.400338
H23   H     H_    0.202596 0.557651 0.308734 0.057023
O11   O     O_2   0.056763 0.676761 0.327032 -0.509198
C34   C     C_2   0.121206 0.323077 0.369211 0.244016
H24   H     H_    0.157018 0.246752 0.411988 0.085528
O12   O     O_2   0.113623 0.292473 0.294351 -0.515191
O13   O     O_3   0.862730 0.525161 0.345303 -0.668846
H25   H     H_    0.877841 0.478648 0.290233 0.370569
O14   O     O_3   0.878530 0.306745 0.396563 -0.713103
H26   H     H_    0.922421 0.245823 0.436513 0.300665
O15   O     O_3   0.712902 0.121207 0.538708 -0.742453
H27   H     H_    0.795241 0.104337 0.513379 0.333746
O16   O     O_3   0.725991 0.863256 0.491236 -0.727302
H28   H     H_    0.732902 0.871423 0.553240 0.337619
C35   C     C_2   0.416046 0.128674 0.351162 0.459432
H29   H     H_    0.338770 0.180551 0.321603 0.093925
O17   O     O_2   0.508106 0.107495 0.308743 -0.495267
C36   C     C_2   0.361100 0.842364 0.370089 0.425372
H30   H     H_    0.273990 0.786373 0.365100 0.072455
O18   O     O_2   0.428681 0.845674 0.308545 -0.468027
C37   C     C_2   0.352399 0.138216 0.625794 0.408017
H31   H     H_    0.355586 0.207599 0.679964 0.122969
O19   O     O_2   0.250934 0.100005 0.599627 -0.563600
C38   C     C_2   0.391584 0.853613 0.647566 0.517114
H32   H     H_    0.412626 0.846526 0.714471 0.076391
O20   O     O_2   0.290334 0.813047 0.622875 -0.526047
O21   O     O_3   0.514880 0.245595 0.082583 -0.672785
H33   H     H_    0.464180 0.160956 0.070388 0.361486
O22   O     O_3   0.442738 0.744472 0.088239 -0.668211
H34   H     H_    0.371999 0.806149 0.075724 0.353910
C39   C     C_2   0.691815 0.665428 0.077681 0.441125
H35   H     H_    0.694248 0.753308 0.035142 0.110653
O23   O     O_2   0.725734 0.684395 0.150611 -0.489947
C40   C     C_2   0.728978 0.415495 0.083168 0.540117
H36   H     H_    0.737888 0.403270 0.150981 0.108441
O24   O     O_2   0.791275 0.341470 0.037596 -0.528656

loop_
_geom_bond_atom_site_label_1
_geom_bond_atom_site_label_2
_ccdc_geom_bond_type
C15   O13   S    
C31   O9    D    
Cu1   O7    S    
C32   O10   D    
O21   H33   S    
C9    H19   S    
C24   C27   S    
Cu2   O4    S    
C10   H20   S    
O16   H28   S    
C15   O14   S    
O14   H26   S    
C2    H14   S    
C35   H29   S    
C18   H5    S    
C16   H3    S    
C22   O6    A    
C5    C6    T    
C36   O18   D    
C3    C29   S    
C18   C19   S    
Cu1   O5    S    
C33   O11   D    
C9    C13   S    
C24   C29   S    
C19   C38   S    
C18   N1    S    
C16   N1    S    
C11   C15   S    
C27   H12   S    
C23   O8    A    
Cu1   Cu2   S    
C16   C17   S    
C17   H4    S    
C37   O19   D    
C32   H22   S    
C27   C30   S    
C9    H1    S    
C24   H9    S    
C40   H36   S    
C1    C12   S    
C4    C28   T    
C26   H11   S    
O22   H34   S    
C5    C29   S    
C2    H13   S    
C25   C29   S    
C7    C12   S    
C14   O4    A    
C24   O22   S    
C26   C32   S    
C7    H17   S    
C34   O12   D    
C22   O5    A    
C20   H7    S    
C36   H30   S    
C20   N1    S    
C25   C26   S    
C31   H21   S    
C7    H15   S    
O13   H25   S    
C8    H16   S    
C19   H6    S    
C6    C14   S    
C39   H35   S    
C8    C12   S    
C38   O20   D    
C10   H2    S    
C23   C28   S    
C40   O24   D    
C27   C31   S    
C3    C40   S    
C35   O17   D    
C25   O21   S    
C13   C15   S    
Cu2   O6    S    
C8    H18   S    
Cu2   N1    S    
C19   N2    S    
C7    C9    S    
C14   O3    A    
C21   C36   S    
C39   O23   D    
C11   C34   S    
C18   C37   S    
C1    O2    A    
C34   H24   S    
C10   C13   S    
C25   H10   S    
C11   C12   S    
C11   C33   S    
C26   C30   S    
C2    C30   S    
C16   O15   S    
Cu1   O3    S    
C2    C3    S    
C1    O1    A    
Cu2   O8    S    
C21   N2    S    
C21   H8    S    
C38   H32   S    
C13   C22   S    
C17   O16   S    
Cu1   N2    S    
C33   H23   S    
O15   H27   S    
C3    C39   S    
C23   O7    A    
C20   C21   S    
C8    C10   S    
C20   C35   S    
Cu1   O1    S    
C37   H31   S    
C17   N2    S    
Cu2   O2    S    
C4    C30   S    
