data_mof_unit_12458.cif
_audit_creation_date              2012-12-10T18:25:11-0500
_audit_creation_method            fapswitch 2.2
_symmetry_space_group_name_H-M    P1
_symmetry_Int_Tables_number       1
_space_group_crystal_system       triclinic
_cell_length_a                    19.356744
_cell_length_b                    15.865451
_cell_length_c                    14.633442
_cell_angle_alpha                 90.086043
_cell_angle_beta                  89.722727
_cell_angle_gamma                 90.088957
_cell_volume                      4493.91781109

loop_
_atom_site_label
_atom_site_type_symbol
_atom_type_description
_atom_site_fract_x
_atom_site_fract_y
_atom_site_fract_z
_atom_type_partial_charge
C1    C     C_R   0.499332 0.339545 0.499896 0.833178
C2    C     C_R   0.500131 0.660495 0.500179 0.825153
C3    C     C_3   0.562578 0.973486 0.497476 -0.278463
C4    C     C_3   0.429269 0.026515 0.511918 -0.366142
C5    C     C_3   0.523976 0.026992 0.425619 0.010759
C6    C     C_3   0.468400 0.972071 0.583553 0.008309
C7    C     C_1   0.497196 0.250143 0.499729 -0.186523
C8    C     C_1   0.499872 0.750004 0.501133 -0.173468
C9    C     C_3   0.532202 0.029847 0.574095 0.497327
C10   C     C_3   0.459741 0.970506 0.435070 0.498031
C11   C     C_3   0.494698 0.083304 0.502385 -0.017221
C12   C     C_3   0.497879 0.916919 0.505814 0.021190
C13   C     C_1   0.495470 0.174788 0.500263 -0.044154
C14   C     C_1   0.499285 0.825405 0.503221 0.000437
C15   C     C_3   0.497919 0.576718 0.968643 0.390431
C16   C     C_3   0.499691 0.420423 0.031419 0.467591
C17   C     C_3   0.440846 0.538312 0.031393 -0.489234
C18   C     C_3   0.556787 0.457974 0.968752 -0.371029
C19   C     C_3   0.555033 0.538726 0.028616 0.426213
C20   C     C_3   0.443251 0.457974 0.970032 0.404835
C21   C     C_3   0.499281 0.500147 0.092072 -0.156062
C22   C     C_3   0.499316 0.496745 0.907727 -0.150296
C23   C     C_R   0.367242 0.500879 0.500237 0.807170
C24   C     C_R   0.632869 0.500918 0.499767 0.811750
C25   C     C_1   0.499948 0.500340 0.194361 0.212856
C26   C     C_1   0.499669 0.498421 0.805584 0.214837
C27   C     C_R   0.257074 0.538434 0.577384 -0.275376
C28   C     C_R   0.744109 0.522303 0.417292 -0.263696
C29   C     C_R   0.185041 0.546934 0.577662 0.463466
C30   C     C_R   0.816135 0.530548 0.416075 0.468527
C31   C     C_R   0.146691 0.518285 0.501725 -0.029390
C32   C     C_R   0.853866 0.517883 0.497340 -0.033234
C33   C     C_R   0.182045 0.486177 0.425032 -0.229117
C34   C     C_R   0.817873 0.501671 0.579164 -0.228900
C35   C     C_R   0.253794 0.480670 0.424335 -0.194966
C36   C     C_R   0.746067 0.496085 0.580112 -0.191306
C37   C     C_R   0.291655 0.505896 0.500864 -0.084110
C38   C     C_R   0.708691 0.505689 0.499054 -0.097237
C39   C     C_R   0.930173 0.520778 0.498165 0.412801
C40   C     C_R   0.070412 0.521119 0.500756 0.411215
Cu1   Cu    Cu3+1 0.500010 0.500000 0.590220 0.971412
Cu2   Cu    Cu3+1 0.499990 0.500000 0.409780 0.973492
H1    H     H_    0.286064 0.559300 0.636337 0.151189
H2    H     H_    0.715982 0.530340 0.354130 0.169505
H3    H     H_    0.154217 0.464329 0.365489 0.174299
H4    H     H_    0.845243 0.492312 0.642705 0.175182
H5    H     H_    0.279601 0.455491 0.364394 0.156135
H6    H     H_    0.719894 0.483469 0.644253 0.163453
H7    H     H_    0.616749 0.950950 0.492794 0.158337
H8    H     H_    0.375390 0.049937 0.516922 0.146105
H9    H     H_    0.393967 0.571192 0.056783 0.156682
H10   H     H_    0.602878 0.423200 0.944006 0.159329
N1    N     N_R   0.035747 0.513081 0.420841 -0.254803
N2    N     N_R   0.964819 0.528702 0.578156 -0.254315
N3    N     N_R   0.967090 0.512910 0.419604 -0.172748
N4    N     N_R   0.033525 0.528869 0.579401 -0.174573
N5    N     N_1   0.499980 0.500000 0.274190 -0.164904
N6    N     N_1   0.500020 0.500000 0.725810 -0.163789
O1    O     O_R   0.500010 0.379080 0.576170 -0.572574
O2    O     O_R   0.499990 0.620920 0.423830 -0.564083
O3    O     O_R   0.500000 0.379080 0.423800 -0.573527
O4    O     O_R   0.500000 0.620920 0.576200 -0.569821
O5    O     O_R   0.400150 0.499990 0.576210 -0.579558
O6    O     O_R   0.599850 0.500010 0.423790 -0.574278
O7    O     O_R   0.400140 0.499990 0.423840 -0.581770
O8    O     O_R   0.599860 0.500010 0.576160 -0.579705
O9    O     O_3   0.387588 0.408076 0.939457 -0.613929
C41   C     C_3   0.334346 0.460323 0.906911 0.055501
H11   H     H_    0.354235 0.506296 0.855537 0.146651
H12   H     H_    0.309996 0.494902 0.964906 0.144712
C42   C     C_3   0.279508 0.405207 0.861587 -0.349828
H13   H     H_    0.302799 0.371917 0.802071 0.227402
H14   H     H_    0.260702 0.357229 0.911142 0.225942
C43   C     C_3   0.218413 0.457630 0.829164 -0.864421
H15   H     H_    0.192834 0.489245 0.888018 0.249629
H16   H     H_    0.180218 0.416200 0.794792 0.270860
H17   H     H_    0.236266 0.505980 0.779858 0.267890
O10   O     O_3   0.612950 0.582421 0.063044 -0.614840
C44   C     C_3   0.656487 0.609952 0.991009 0.076658
H18   H     H_    0.670890 0.676468 0.005327 0.159517
H19   H     H_    0.631793 0.609535 0.922267 0.158002
C45   C     C_3   0.722226 0.556566 0.988156 -0.356034
H20   H     H_    0.747131 0.557418 0.056219 0.231639
H21   H     H_    0.709060 0.490243 0.971502 0.215720
C46   C     C_3   0.773297 0.589582 0.916928 -0.914998
H22   H     H_    0.749847 0.587721 0.847800 0.256623
H23   H     H_    0.820289 0.549532 0.916550 0.263324
H24   H     H_    0.788658 0.655346 0.933400 0.257127
O11   O     O_3   0.152257 0.580922 0.653425 -0.605898
C47   C     C_3   0.163804 0.669118 0.657734 0.057269
H25   H     H_    0.112806 0.700865 0.653164 0.173117
H26   H     H_    0.196489 0.695041 0.601093 0.120400
C48   C     C_3   0.196845 0.691590 0.749375 -0.343532
H27   H     H_    0.163567 0.668138 0.806034 0.234585
H28   H     H_    0.248118 0.660676 0.754584 0.204653
C49   C     C_3   0.206414 0.786636 0.759583 -0.923876
H29   H     H_    0.241199 0.811056 0.705078 0.258060
H30   H     H_    0.229862 0.800701 0.827017 0.255286
H31   H     H_    0.155769 0.819205 0.755539 0.259103
O12   O     O_3   0.849532 0.548196 0.334505 -0.597415
C50   C     C_3   0.839219 0.633658 0.309972 0.050389
H32   H     H_    0.890553 0.665083 0.308001 0.171806
H33   H     H_    0.806323 0.670500 0.358730 0.118680
C51   C     C_3   0.807233 0.637530 0.214790 -0.330993
H34   H     H_    0.841357 0.604163 0.165325 0.231923
H35   H     H_    0.756195 0.605418 0.215944 0.223896
C52   C     C_3   0.797366 0.728279 0.183124 -0.911882
H36   H     H_    0.761952 0.762281 0.230357 0.256871
H37   H     H_    0.774493 0.728502 0.113682 0.256612
H38   H     H_    0.847843 0.761601 0.180448 0.255646
C53   C     C_3   0.556450 0.060327 0.337226 -0.385323
C54   C     C_3   0.577092 0.988364 0.272728 -0.331999
C55   C     C_3   0.606837 0.022379 0.183361 -0.854719
H39   H     H_    0.567663 0.061089 0.147452 0.255712
H40   H     H_    0.653360 0.061449 0.196865 0.261128
H41   H     H_    0.621781 0.968973 0.138324 0.246017
H42   H     H_    0.616377 0.947924 0.306184 0.218847
H43   H     H_    0.531353 0.948846 0.256630 0.249445
H44   H     H_    0.519199 0.102660 0.302877 0.192537
H45   H     H_    0.602904 0.098061 0.355002 0.208226
C56   C     C_3   0.439443 0.933762 0.672073 -0.386086
C57   C     C_3   0.380344 0.986041 0.712938 -0.356241
C58   C     C_3   0.359634 0.953041 0.807082 -0.857304
H46   H     H_    0.345000 0.885435 0.802974 0.258869
H47   H     H_    0.403177 0.960418 0.855614 0.256590
H48   H     H_    0.314769 0.989379 0.833419 0.247308
H49   H     H_    0.395660 0.053104 0.719561 0.209956
H50   H     H_    0.334821 0.982585 0.667059 0.223082
H51   H     H_    0.419414 0.869533 0.657232 0.204780
H52   H     H_    0.482207 0.927274 0.721920 0.202630
O13   O     O_3   0.423718 0.931910 0.362581 -0.616237
C59   C     C_3   0.380026 0.990965 0.320166 0.045495
H53   H     H_    0.406835 0.051910 0.307364 0.144434
H54   H     H_    0.333785 0.002347 0.363894 0.146349
C60   C     C_3   0.356725 0.954957 0.228525 -0.319212
H55   H     H_    0.402980 0.938899 0.186899 0.225060
H56   H     H_    0.326440 0.896352 0.240302 0.223820
C61   C     C_3   0.312693 0.017742 0.175742 -0.934566
H57   H     H_    0.266758 0.036429 0.216758 0.258236
H58   H     H_    0.294907 0.988313 0.111086 0.257337
H59   H     H_    0.343559 0.074650 0.158589 0.257598
O14   O     O_3   0.574918 0.061919 0.644187 -0.607904
C62   C     C_3   0.536272 0.109963 0.707823 0.056411
H60   H     H_    0.521505 0.068947 0.766230 0.153714
H61   H     H_    0.488466 0.137791 0.678662 0.137474
C63   C     C_3   0.581085 0.182306 0.743172 -0.341619
H62   H     H_    0.627577 0.156217 0.777220 0.226230
H63   H     H_    0.598323 0.221763 0.684588 0.230712
C64   C     C_3   0.541499 0.237666 0.810949 -0.852502
H64   H     H_    0.495852 0.266423 0.777496 0.262858
H65   H     H_    0.575643 0.289091 0.835652 0.255850
H66   H     H_    0.524085 0.199834 0.870608 0.261486
O15   O     O_3   0.499630 0.657917 0.929487 -0.619430
C65   C     C_3   0.484573 0.719143 0.996507 0.069081
H67   H     H_    0.516260 0.709912 0.059120 0.167162
H68   H     H_    0.428748 0.716250 0.014822 0.146542
C66   C     C_3   0.500791 0.806233 0.957292 -0.324516
H69   H     H_    0.556971 0.810564 0.941809 0.217428
H70   H     H_    0.471858 0.815221 0.892578 0.229653
C67   C     C_3   0.481046 0.876173 0.024072 -0.959053
H71   H     H_    0.424403 0.875378 0.036500 0.258580
H72   H     H_    0.495485 0.938297 0.994743 0.259769
H73   H     H_    0.508557 0.868011 0.089914 0.262948
O16   O     O_3   0.502760 0.336610 0.063520 -0.605120
C68   C     C_3   0.442600 0.315974 0.114197 0.100853
H74   H     H_    0.408198 0.277064 0.070486 0.174405
H75   H     H_    0.412273 0.371796 0.137624 0.133030
C69   C     C_3   0.463342 0.264633 0.198053 -0.348567
H76   H     H_    0.484909 0.203090 0.175514 0.212426
H77   H     H_    0.503984 0.299099 0.236469 0.245030
C70   C     C_3   0.401868 0.249276 0.261647 -0.932284
H78   H     H_    0.381898 0.310115 0.288542 0.266095
H79   H     H_    0.418283 0.209985 0.320308 0.252976
H80   H     H_    0.359893 0.216018 0.224773 0.249843

loop_
_geom_bond_atom_site_label_1
_geom_bond_atom_site_label_2
_ccdc_geom_bond_type
C62   C63   S    
C54   H43   S    
C70   H78   S    
C16   C21   S    
C62   H61   S    
C60   C61   S    
C33   H3    S    
Cu1   Cu2   S    
C20   O9    S    
C53   C54   S    
C56   H52   S    
C35   H5    S    
C17   H9    S    
C6    C9    S    
C29   O11   S    
C3    H7    S    
C18   H10   S    
C58   H46   S    
C15   C22   S    
C68   H74   S    
C46   H22   S    
C16   O16   S    
C15   C19   S    
C70   H79   S    
C48   H27   S    
C43   H16   S    
O16   C68   S    
C35   C37   A    
Cu1   N6    S    
C5    C11   S    
C64   H65   S    
C6    C12   S    
C54   H42   S    
C2    O2    A    
C23   O5    A    
C58   H47   S    
C39   N2    A    
C27   C29   A    
C62   H60   S    
C49   H31   S    
C30   O12   S    
C17   C20   S    
C31   C40   S    
C53   H44   S    
C18   C19   S    
C32   C39   S    
C57   H49   S    
C10   O13   S    
C51   H34   S    
C3    C12   S    
C69   C70   S    
C39   N3    A    
C41   H11   S    
C40   N4    A    
C43   H17   S    
C49   H30   S    
Cu2   O7    S    
C24   C38   S    
C52   H36   S    
C31   C33   A    
C34   H4    S    
C65   H68   S    
C24   O8    A    
C55   H41   S    
C56   H51   S    
C69   H77   S    
C66   H70   S    
C1    C7    S    
C66   H69   S    
C52   H37   S    
C25   N5    T    
Cu1   O4    S    
Cu2   N5    S    
C51   H35   S    
C54   C55   S    
C63   H63   S    
C46   H23   S    
C70   H80   S    
N2    N4    A    
C43   H15   S    
C63   H62   S    
O9    C41   S    
C50   H32   S    
C60   H55   S    
Cu1   O1    S    
C65   C66   S    
C4    C6    S    
C64   H66   S    
Cu2   O2    S    
C42   H14   S    
O10   C44   S    
C59   H53   S    
C58   H48   S    
C5    C53   S    
C23   C37   S    
C28   H2    S    
C17   C21   S    
C24   O6    A    
C4    H8    S    
C53   H45   S    
C67   H72   S    
C19   O10   S    
C67   H73   S    
C3    C9    S    
C42   C43   S    
C63   C64   S    
C9    C11   S    
C47   H26   S    
C28   C38   A    
C16   C20   S    
C49   H29   S    
C56   C57   S    
C41   C42   S    
C16   C18   S    
C4    C11   S    
C26   N6    T    
Cu2   O3    S    
C65   H67   S    
C10   C12   S    
C59   H54   S    
C69   H76   S    
C12   C14   S    
C45   H20   S    
C48   C49   S    
C45   H21   S    
C52   H38   S    
Cu1   O5    S    
N1    N3    A    
C4    C10   S    
O13   C59   S    
Cu2   O6    S    
C47   C48   S    
C44   H19   S    
C55   H39   S    
C50   H33   S    
C46   H24   S    
C60   H56   S    
C21   C25   S    
C8    C14   T    
C19   C21   S    
C18   C22   S    
C7    C13   T    
C2    C8    S    
C20   C22   S    
C3    C5    S    
C61   H59   S    
C1    O3    A    
C44   C45   S    
C9    O14   S    
C15   C17   S    
Cu1   O8    S    
C61   H58   S    
C66   C67   S    
C45   C46   S    
C68   C69   S    
C67   H71   S    
C23   O7    A    
C1    O1    A    
O11   C47   S    
C5    C10   S    
C29   C31   A    
C64   H64   S    
C30   C32   A    
C11   C13   S    
C47   H25   S    
C48   H28   S    
C27   C37   A    
C59   C60   S    
C36   C38   A    
O12   C50   S    
C33   C35   A    
C28   C30   A    
C36   H6    S    
C34   C36   A    
C57   H50   S    
C15   O15   S    
C61   H57   S    
C44   H18   S    
C27   H1    S    
C42   H13   S    
C68   H75   S    
C40   N1    A    
C22   C26   S    
C57   C58   S    
C41   H12   S    
O14   C62   S    
C50   C51   S    
C6    C56   S    
O15   C65   S    
C51   C52   S    
C2    O4    A    
C32   C34   A    
C55   H40   S    
