data_mof_unit_55690.cif
_audit_creation_date              2012-12-11T18:37:47-0500
_audit_creation_method            fapswitch 2.2
_symmetry_space_group_name_H-M    P1
_symmetry_Int_Tables_number       1
_space_group_crystal_system       triclinic
_cell_length_a                    8.218041
_cell_length_b                    14.32529
_cell_length_c                    26.97466
_cell_angle_alpha                 93.316436
_cell_angle_beta                  92.871138
_cell_angle_gamma                 88.310086
_cell_volume                      3165.18970309

loop_
_atom_site_label
_atom_site_type_symbol
_atom_type_description
_atom_site_fract_x
_atom_site_fract_y
_atom_site_fract_z
_atom_type_partial_charge
Ba1   Ba    Ba6+2 0.849670 0.455410 0.524690 1.676938
Ba2   Ba    Ba6+2 0.340150 0.544510 0.475310 1.676359
C1    C     C_3   0.651923 0.118998 0.660580 0.503933
C2    C     C_R   0.950797 0.599980 0.178536 0.587460
C3    C     C_2   0.774966 0.568214 0.270680 -0.092260
C4    C     C_3   0.192109 0.166965 0.661098 0.217042
C5    C     C_3   0.754944 0.595345 0.325018 -0.052298
C6    C     C_1   0.980881 0.485297 0.343674 0.033858
C7    C     C_2   0.022403 0.479954 0.296312 -0.084756
C8    C     C_2   0.912704 0.521795 0.256396 0.209543
C9    C     C_R   0.036197 0.514091 0.102945 -0.078778
C10   C     C_R   0.049092 0.432193 0.129618 -0.032357
C11   C     C_R   0.102199 0.348814 0.105007 -0.070411
C12   C     C_3   0.640718 0.216694 0.641065 0.536539
C13   C     C_R   0.985785 0.598294 0.127699 -0.028601
C14   C     C_2   0.853019 0.534384 0.359537 -0.281526
C15   C     C_2   0.347544 0.476146 0.642431 -0.351863
C16   C     C_3   0.157339 0.123706 0.711019 0.705987
C17   C     C_R   0.178916 0.427138 0.977025 0.019082
C18   C     C_R   0.082324 0.591122 0.972764 0.019761
C19   C     C_R   0.149538 0.508268 0.949493 0.056280
C20   C     C_R   0.254761 0.348317 0.952833 -0.090691
C21   C     C_R   0.296423 0.348508 0.903359 -0.049004
C22   C     C_R   0.263196 0.426880 0.875345 -0.045064
C23   C     C_3   0.525012 0.691017 0.622974 0.285215
C24   C     C_R   0.188378 0.506678 0.898189 -0.076087
C25   C     C_R   0.153481 0.585109 0.869832 -0.034332
C26   C     C_R   0.192158 0.582366 0.819080 0.619389
C27   C     C_R   0.304512 0.427007 0.825015 0.648256
C28   C     C_3   0.171006 0.257947 0.422229 0.297721
C29   C     C_2   0.461146 0.483646 0.730277 0.583936
C30   C     C_3   0.500030 0.485162 0.675775 -0.113088
C31   C     C_1   0.212989 0.518937 0.656940 0.057894
C32   C     C_2   0.176055 0.521296 0.704566 -0.190118
C33   C     C_2   0.306100 0.501795 0.744494 0.129346
C34   C     C_3   0.501914 0.727919 0.676263 -0.332659
C35   C     C_R   0.133315 0.427674 0.027624 0.020452
C36   C     C_R   0.074153 0.511999 0.051550 0.050373
C37   C     C_R   0.052783 0.594412 0.024660 0.020366
C38   C     C_R   0.143975 0.346526 0.055392 -0.098473
C39   C     C_R   0.972431 0.679819 0.101297 -0.062138
C40   C     C_3   0.210005 0.155925 0.407486 -0.333595
C41   C     C_R   0.045989 0.667966 0.942957 -0.095241
C42   C     C_R   0.080450 0.664800 0.892788 -0.042347
C43   C     C_R   0.004258 0.678003 0.051036 -0.100130
C44   C     C_R   0.689274 0.064939 0.472228 -0.011019
C45   C     C_3   0.009690 0.808498 0.335827 0.304789
C46   C     C_R   0.510361 0.198242 0.501376 0.037313
C47   C     C_R   0.373980 0.229402 0.527091 -0.240609
C48   C     C_R   0.273531 0.166256 0.547145 0.019307
C49   C     C_R   0.315772 0.071221 0.545119 -0.128744
C50   C     C_R   0.458205 0.038851 0.522295 0.002119
C51   C     C_R   0.554208 0.101441 0.498343 -0.057173
C52   C     C_3   0.031859 0.741190 0.574467 0.303493
C53   C     C_R   0.638554 0.907974 0.497129 -0.088753
C54   C     C_R   0.733952 0.969378 0.472165 -0.060205
C55   C     C_R   0.682603 0.811952 0.496223 0.036342
C56   C     C_3   0.044765 0.828732 0.282810 -0.307507
C57   C     C_R   0.816090 0.777992 0.470267 -0.373156
C58   C     C_R   0.917594 0.838703 0.449014 -0.057044
C59   C     C_R   0.875891 0.934416 0.449064 0.496919
C60   C     C_R   0.502404 0.944042 0.522278 -0.009462
C61   C     C_3   0.027920 0.846893 0.584535 -0.368908
C62   C     C_3   0.658423 0.340298 0.379728 0.404261
C63   C     C_3   0.634900 0.322861 0.323618 0.319111
C64   C     C_3   0.442409 0.307221 0.258826 0.209694
C65   C     C_3   0.389811 0.151751 0.763167 0.229888
C66   C     C_3   0.051779 0.273312 0.739803 0.279751
C67   C     C_3   0.537162 0.793066 0.350323 0.437294
C68   C     C_3   0.509054 0.883439 0.323853 -0.349949
C69   C     C_R   0.006674 0.435081 0.180143 0.576855
F1    F     F_    0.771178 0.114040 0.698275 -0.678377
F2    F     F_    0.585610 0.474071 0.764953 -0.672618
F3    F     F_    0.975174 0.993038 0.427950 -0.748706
H1    H     H_    0.748199 0.224214 0.618541 0.073068
H2    H     H_    0.788693 0.351116 0.389452 -0.109399
H3    H     H_    0.586436 0.404384 0.390634 0.052181
H4    H     H_    0.681504 0.067146 0.629892 -0.043795
H5    H     H_    0.705731 0.258459 0.312061 0.028982
H6    H     H_    0.683280 0.383516 0.305590 -0.076613
H7    H     H_    0.528013 0.222333 0.617037 -0.335984
H8    H     H_    0.534375 0.100518 0.674866 0.017586
H9    H     H_    0.403990 0.671359 0.606162 0.027172
H10   H     H_    0.608314 0.628565 0.623080 0.035785
H11   H     H_    0.425580 0.793237 0.676486 0.144738
H12   H     H_    0.317070 0.150767 0.383835 0.127684
H13   H     H_    0.439821 0.675822 0.696939 0.066714
H14   H     H_    0.622106 0.742810 0.695288 0.139210
H15   H     H_    0.959713 0.737406 0.335713 -0.005838
H16   H     H_    0.918667 0.861908 0.349090 0.027530
H17   H     H_    0.132773 0.775581 0.267520 0.163917
H18   H     H_    0.929682 0.827007 0.259455 0.119452
H19   H     H_    0.096452 0.899320 0.281884 0.102815
H20   H     H_    0.671047 0.779894 0.353770 -0.165232
H21   H     H_    0.489973 0.802855 0.388214 0.075816
H22   H     H_    0.556295 0.875106 0.285945 0.110551
H23   H     H_    0.237258 0.115879 0.440947 0.103297
H24   H     H_    0.574175 0.940972 0.345080 0.069063
H25   H     H_    0.262573 0.231985 0.666798 -0.042118
H26   H     H_    0.377342 0.902380 0.320995 0.148482
H27   H     H_    0.137769 0.447011 0.286393 0.125944
H28   H     H_    0.112266 0.284337 0.124184 0.114761
H29   H     H_    0.354996 0.286178 0.886987 0.111580
H30   H     H_    0.287473 0.285515 0.971491 0.069136
H31   H     H_    0.181007 0.279003 0.039512 0.069775
H32   H     H_    0.690500 0.598165 0.243322 0.104062
H33   H     H_    0.936014 0.746072 0.119452 0.119017
H34   H     H_    0.104202 0.124500 0.386190 0.190080
H35   H     H_    0.987157 0.731542 0.957023 0.072376
H36   H     H_    0.267454 0.113902 0.640566 -0.054828
H37   H     H_    0.049819 0.725862 0.871954 0.129884
H38   H     H_    0.052092 0.537396 0.714912 0.154213
H39   H     H_    0.993340 0.744376 0.034185 0.070145
H40   H     H_    0.834360 0.545876 0.398985 0.076242
H41   H     H_    0.348397 0.435444 0.607185 0.095987
H42   H     H_    0.340395 0.303075 0.529002 0.058834
H43   H     H_    0.237110 0.022749 0.561072 0.063962
H44   H     H_    0.848845 0.704243 0.470153 0.081154
H45   H     H_    0.909100 0.717822 0.562231 0.002732
H46   H     H_    0.761650 0.109868 0.451952 0.152520
H47   H     H_    0.427865 0.899096 0.541942 0.096364
H48   H     H_    0.082419 0.062285 0.699209 0.129928
H49   H     H_    0.284167 0.291784 0.436628 0.004335
H50   H     H_    0.080432 0.261562 0.451462 0.058746
H51   H     H_    0.514366 0.248252 0.241311 0.016122
H52   H     H_    0.472067 0.374442 0.243088 0.040804
H53   H     H_    0.311679 0.294472 0.249490 0.102415
H54   H     H_    0.324601 0.174404 0.797085 0.106800
H55   H     H_    0.418478 0.212439 0.741667 0.080491
H56   H     H_    0.117440 0.723174 0.544734 0.069430
H57   H     H_    0.507713 0.119102 0.775668 0.119614
H58   H     H_    0.971077 0.287708 0.707044 0.132060
H59   H     H_    0.172729 0.303887 0.736747 -0.026626
H60   H     H_    0.996038 0.308605 0.772743 0.089613
H61   H     H_    0.935342 0.867405 0.612037 0.144218
H62   H     H_    0.996892 0.882512 0.549817 0.053405
H63   H     H_    0.149414 0.870262 0.599419 0.111650
N1    N     N_R   0.957413 0.518540 0.204273 -0.420063
N2    N     N_R   0.266798 0.503664 0.796967 -0.410672
O1    O     O_2   0.918080 0.549800 0.616640 -0.462143
O2    O     O_2   0.255260 0.833181 0.457832 -0.468191
O3    O     O_3   0.154596 0.813649 0.365445 -0.559682
O4    O     O_3   0.150070 0.549720 0.556460 -0.497378
O5    O     O_3   0.546340 0.387390 0.478340 -0.491675
O6    O     O_2   0.398940 0.728800 0.517420 -0.473625
O7    O     O_3   0.593326 0.761302 0.597320 -0.642903
O8    O     O_2   0.425888 0.536985 0.321881 -0.474722
O9    O     O_3   0.455759 0.719546 0.323355 -0.573949
O10   O     O_2   0.011586 0.362970 0.202301 -0.619019
O11   O     O_2   0.374117 0.358450 0.806166 -0.595392
O12   O     O_3   0.608192 0.261935 0.403079 -0.644064
O13   O     O_2   0.915574 0.674666 0.200020 -0.625758
O14   O     O_2   0.161684 0.650786 0.794854 -0.580147
O15   O     O_3   0.658250 0.379560 0.591530 -0.488642
O16   O     O_2   0.830352 0.425213 0.673822 -0.479631
O17   O     O_3   0.081407 0.699483 0.618470 -0.623152
O18   O     O_3   0.636482 0.285572 0.680455 -0.591932
O19   O     O_2   0.790750 0.271170 0.482550 -0.468570
O20   O     O_3   0.062300 0.331660 0.568480 -0.471415
O21   O     O_2   0.937381 0.167098 0.542029 -0.483755
O22   O     O_3   0.467358 0.312177 0.310973 -0.615818
O23   O     O_3   0.044225 0.184146 0.634191 -0.615969
O24   O     O_3   0.300746 0.084389 0.733841 -0.694963
O25   O     O_3   0.061929 0.176380 0.746321 -0.605737
O26   O     O_2   0.271610 0.450170 0.383330 -0.430463
O27   O     O_3   0.039630 0.450200 0.443530 -0.502425
O28   O     O_3   0.531440 0.620360 0.408460 -0.478977
O29   O     O_3   0.107017 0.300935 0.380135 -0.615053
O30   O     O_3   0.643350 0.612530 0.521650 -0.474042
O31   O     O_3   0.127390 0.668260 0.431510 -0.480149
P1    P     P_3+3 0.090020 0.577590 0.608380 1.007294
P2    P     P_3+3 0.614340 0.285150 0.467650 0.974745
P3    P     P_3+3 0.081934 0.210475 0.573136 0.956411
P4    P     P_3+3 0.099670 0.422330 0.391610 1.022063
P5    P     P_3+3 0.111996 0.789774 0.426191 1.022938
P6    P     P_3+3 0.656624 0.395660 0.656091 1.040349
P7    P     P_3+3 0.584079 0.729586 0.533681 0.944278
P8    P     P_3+3 0.540460 0.614278 0.343806 0.975170

loop_
_geom_bond_atom_site_label_1
_geom_bond_atom_site_label_2
_ccdc_geom_bond_type
O16   P6    D    
C53   C54   A    
C63   H5    S    
C32   H38   S    
O21   P3    D    
Ba2   O5    S    
C19   C24   A    
O23   P3    S    
C34   H14   S    
Ba2   O6    S    
O29   P4    S    
C30   P6    S    
C45   O3    S    
C24   C25   A    
C48   P3    S    
Ba1   O19   S    
C17   C19   A    
C56   H19   S    
C22   C24   A    
C32   C33   S    
C35   C38   A    
C67   C68   S    
C52   O17   S    
C36   C37   A    
C6    P4    S    
C55   C57   A    
C52   C61   S    
C53   C60   A    
C20   H30   S    
C64   H53   S    
Ba1   Ba2   S    
C62   H3    S    
C66   H58   S    
C22   C27   A    
C11   C38   A    
C17   C35   A    
C33   N2    S    
C27   O11   D    
C46   P2    S    
C9    C13   A    
C25   C42   A    
C21   H29   S    
C4    O23   S    
C6    C7    D    
C62   C63   S    
C23   H10   S    
C21   C22   A    
C23   O7    S    
C40   H12   S    
C7    C8    S    
Ba2   O27   S    
C37   C43   A    
C57   C58   A    
C6    C14   D    
C63   H6    S    
C52   H45   S    
Ba2   O4    S    
C61   H63   S    
C65   H55   S    
C26   N2    Am   
C15   C31   D    
C52   H56   S    
O30   P7    S    
C68   H26   S    
C31   C32   D    
C69   N1    Am   
O31   P5    S    
C66   O25   S    
C34   H13   S    
C46   C51   A    
C27   N2    Am   
C4    C16   S    
C65   H57   S    
O27   P4    S    
C15   C30   S    
C12   O18   S    
C49   C50   A    
Ba1   O20   S    
C17   C20   A    
C13   C39   A    
C67   H20   S    
C40   H23   S    
C3    C5    S    
C18   C37   A    
C62   O12   S    
O26   P4    D    
Ba1   P1    S    
O12   P2    S    
C64   H52   S    
O7    P7    S    
C28   O29   S    
C58   C59   A    
C61   H61   S    
C4    H36   S    
C9    C36   A    
C68   H22   S    
C41   C42   A    
C35   C36   A    
Ba1   O4    S    
C43   H39   S    
C16   O24   S    
C29   C30   S    
C47   H42   S    
C1    H8    S    
C48   C49   A    
C62   H2    S    
C44   H46   S    
C18   C19   A    
C2    O13   D    
C28   H49   S    
Ba1   O1    S    
Ba2   O26   S    
C1    C12   S    
C16   H48   S    
C5    P8    S    
C46   C47   A    
C10   C69   A    
C28   H50   S    
C45   H15   S    
O1    P1    D    
C53   C55   A    
C26   O14   D    
C59   F3    S    
C45   H16   S    
C29   C33   D    
C63   O22   S    
C31   P1    S    
C18   C41   A    
C50   C51   A    
C15   H41   S    
C23   H9    S    
C56   H17   S    
C67   O9    S    
C66   H59   S    
O9    P8    S    
C39   H33   S    
C23   C34   S    
C54   C59   A    
C3    H32   S    
C5    C14   S    
C67   H21   S    
C14   H40   S    
O18   P6    S    
C9    C10   A    
O3    P5    S    
C34   H11   S    
C57   H44   S    
C41   H35   S    
O5    P2    S    
Ba1   P2    S    
C64   H51   S    
O15   P6    S    
C4    H25   S    
C2    C13   A    
C66   H60   S    
C1    F1    S    
O4    P1    S    
C3    C8    D    
Ba2   O31   S    
Ba1   O5    S    
C50   C60   A    
C65   H54   S    
Ba2   P4    S    
C45   C56   S    
C55   P7    S    
O8    P8    D    
O19   P2    D    
C69   O10   D    
C56   H18   S    
Ba1   O27   S    
C44   C51   A    
Ba1   O30   S    
C49   H43   S    
Ba1   O15   S    
C29   F2    S    
Ba2   O30   S    
C2    N1    Am   
C42   H37   S    
C65   O24   S    
C64   O22   S    
O28   P8    S    
C10   C11   A    
C16   O25   S    
O17   P1    S    
C7    H27   S    
C47   C48   A    
O20   P3    S    
O6    P7    D    
C25   C26   A    
O2    P5    D    
C58   P5    S    
C39   C43   A    
C20   C21   A    
C28   C40   S    
C61   H62   S    
C8    N1    S    
C12   H7    S    
C44   C54   A    
C11   H28   S    
C1    H4    S    
C40   H34   S    
Ba2   O28   S    
C60   H47   S    
C68   H24   S    
C12   H1    S    
C38   H31   S    
