data_mof_unit_68574.cif
_audit_creation_date              2012-12-11T17:48:26-0500
_audit_creation_method            fapswitch 2.2
_symmetry_space_group_name_H-M    P1
_symmetry_Int_Tables_number       1
_space_group_crystal_system       triclinic
_cell_length_a                    8.186599
_cell_length_b                    12.631173
_cell_length_c                    14.888311
_cell_angle_alpha                 95.968241
_cell_angle_beta                  97.642806
_cell_angle_gamma                 98.758926
_cell_volume                      1495.89727145

loop_
_atom_site_label
_atom_site_type_symbol
_atom_type_description
_atom_site_fract_x
_atom_site_fract_y
_atom_site_fract_z
_atom_type_partial_charge
Ba1   Ba    Ba6+2 0.843750 0.550210 0.455600 1.647622
Ba2   Ba    Ba6+2 0.346090 0.449880 0.544410 1.669348
C1    C     C_3   0.517223 0.914218 0.181762 -0.411672
C2    C     C_R   0.886370 0.453535 0.925501 -0.051014
C3    C     C_R   0.033905 0.461430 0.110931 -0.038024
C4    C     C_3   0.068106 0.772588 0.201319 0.370062
C5    C     C_R   0.867785 0.411692 0.079487 -0.028087
C6    C     C_R   0.792499 0.416703 0.991094 -0.120748
C7    C     C_R   0.107110 0.468014 0.203943 0.034870
C8    C     C_R   0.270623 0.522188 0.231422 -0.300106
C9    C     C_R   0.079333 0.536082 0.796539 0.042246
C10   C     C_R   0.150084 0.548877 0.890299 -0.027245
C11   C     C_R   0.055162 0.503445 0.954208 0.028927
C12   C     C_3   0.578508 0.832780 0.240907 0.342563
C13   C     C_R   0.312742 0.605317 0.922428 -0.052670
C14   C     C_R   0.384886 0.609895 0.013202 -0.109560
C15   C     C_R   0.295328 0.561982 0.076854 -0.037853
C16   C     C_3   0.028846 0.800835 0.104754 -0.362792
C17   C     C_R   0.128014 0.509509 0.047558 0.007617
C18   C     C_R   0.366626 0.566550 0.169342 -0.005964
C19   C     C_R   0.916358 0.479579 0.768968 -0.196471
C20   C     C_R   0.757727 0.184979 0.539803 -0.204772
C21   C     C_R   0.424749 0.807956 0.457719 -0.280279
C22   C     C_R   0.390820 0.986113 0.424058 -0.149647
C23   C     C_3   0.413963 0.289171 0.263214 0.318582
C24   C     C_R   0.326215 0.877609 0.419598 -0.013825
C25   C     C_R   0.582069 0.847846 0.509691 0.077384
C26   C     C_R   0.646344 0.960638 0.519841 -0.023598
C27   C     C_R   0.549724 0.029163 0.473789 -0.062731
C28   C     C_3   0.256952 0.777462 0.642008 0.286496
C29   C     C_R   0.610707 0.140555 0.482629 0.033265
C30   C     C_R   0.853634 0.121042 0.585788 0.018533
C31   C     C_R   0.800436 0.008478 0.575805 -0.081540
C32   C     C_3   0.247128 0.896764 0.651139 -0.331581
C33   C     C_3   0.929928 0.220509 0.351920 0.284378
C34   C     C_3   0.383080 0.260977 0.159858 -0.406113
C35   C     C_3   0.889463 0.098386 0.331960 -0.385856
C36   C     C_3   0.775351 0.699504 0.732486 0.329338
C37   C     C_3   0.803671 0.732387 0.835452 -0.374227
C38   C     C_3   0.164606 0.132262 0.817256 0.368792
C39   C     C_3   0.213702 0.033612 0.857139 -0.414253
C40   C     C_3   0.661135 0.188796 0.858697 0.458642
C41   C     C_3   0.605508 0.173247 0.951682 -0.414821
C42   C     C_R   0.817397 0.439416 0.831827 -0.012964
H1    H     H_    0.677763 0.875300 0.296660 0.074596
H2    H     H_    0.893538 0.682229 0.710909 -0.009585
H3    H     H_    0.677444 0.626291 0.715854 0.049098
H4    H     H_    0.465230 0.975110 0.223713 0.104515
H5    H     H_    0.904466 0.803806 0.854289 0.133066
H6    H     H_    0.840529 0.665654 0.871890 0.038482
H7    H     H_    0.686900 0.752858 0.857831 0.137947
H8    H     H_    0.471920 0.796400 0.272728 -0.051673
H9    H     H_    0.418016 0.872166 0.125806 0.113550
H10   H     H_    0.296859 0.307364 0.286190 0.012762
H11   H     H_    0.513442 0.361519 0.280941 0.061097
H12   H     H_    0.354708 0.942029 0.699419 0.163575
H13   H     H_    0.280791 0.190553 0.139536 0.125912
H14   H     H_    0.347308 0.330474 0.126701 0.058805
H15   H     H_    0.498746 0.240786 0.135953 0.121187
H16   H     H_    0.621955 0.955710 0.151203 0.135390
H17   H     H_    0.054487 0.736193 0.054739 0.066897
H18   H     H_    0.245504 0.206534 0.854587 0.078554
H19   H     H_    0.035749 0.132942 0.831256 0.064615
H20   H     H_    0.221186 0.046047 0.932630 0.075343
H21   H     H_    0.118433 0.961198 0.829906 0.130301
H22   H     H_    0.336060 0.019346 0.840066 0.172125
H23   H     H_    0.249663 0.928244 0.584782 0.070354
H24   H     H_    0.787054 0.238508 0.868506 0.022439
H25   H     H_    0.512038 0.224939 0.966713 0.105011
H26   H     H_    0.715348 0.192655 0.006505 0.088688
H27   H     H_    0.986504 0.695608 0.206681 0.095094
H28   H     H_    0.547955 0.088805 0.954891 0.135569
H29   H     H_    0.790542 0.370641 0.122588 0.108000
H30   H     H_    0.659995 0.388832 0.973988 0.074896
H31   H     H_    0.511877 0.651930 0.032469 0.106564
H32   H     H_    0.387865 0.646519 0.878296 0.099361
H33   H     H_    0.326216 0.526711 0.302120 0.073403
H34   H     H_    0.128563 0.909537 0.675255 0.132284
H35   H     H_    0.864329 0.468743 0.697293 0.059449
H36   H     H_    0.311089 0.036428 0.391933 0.094281
H37   H     H_    0.875794 0.960845 0.614251 0.102091
H38   H     H_    0.799520 0.271508 0.548433 0.066015
H39   H     H_    0.200468 0.761278 0.212869 -0.076577
H40   H     H_    0.373201 0.723055 0.452674 0.066627
H41   H     H_    0.895208 0.808941 0.089456 0.155522
H42   H     H_    0.107682 0.878237 0.097433 0.110754
H43   H     H_    0.380919 0.765323 0.626642 0.006649
H44   H     H_    0.159522 0.738813 0.584224 0.083975
H45   H     H_    0.825815 0.251662 0.379675 0.000426
H46   H     H_    0.044111 0.242269 0.403250 0.077950
H47   H     H_    0.767694 0.074717 0.286729 0.114818
H48   H     H_    0.882013 0.062420 0.396248 0.074756
H49   H     H_    0.988506 0.067163 0.298042 0.157112
I1    I     I_    0.689326 0.034159 0.795351 -0.554830
O1    O     O_2   0.827880 0.435260 0.277750 -0.469811
O2    O     O_2   0.958261 0.255187 0.739061 -0.560567
O3    O     O_3   0.180306 0.125880 0.723199 -0.577291
O4    O     O_3   0.100280 0.438960 0.391170 -0.496916
O5    O     O_3   0.587780 0.631850 0.546230 -0.493286
O6    O     O_2   0.332590 0.233690 0.456160 -0.510002
O7    O     O_3   0.462603 0.200705 0.302713 -0.645713
O8    O     O_2   0.467198 0.424597 0.821804 -0.490792
O9    O     O_3   0.539124 0.229105 0.801462 -0.554852
O10   O     O_3   0.625580 0.634130 0.333250 -0.473695
O11   O     O_2   0.708396 0.561441 0.175335 -0.496446
O12   O     O_3   0.725768 0.785417 0.690070 -0.608629
O13   O     O_3   0.953091 0.262603 0.270550 -0.635303
O14   O     O_3   0.646033 0.757565 0.186635 -0.596112
O15   O     O_2   0.857130 0.766340 0.543890 -0.480429
O16   O     O_3   0.056550 0.691050 0.379010 -0.485924
O17   O     O_2   0.991867 0.882924 0.434748 -0.499204
O18   O     O_3   0.038711 0.856069 0.264140 -0.595096
O19   O     O_2   0.361830 0.564780 0.722310 -0.469652
O20   O     O_3   0.089430 0.561130 0.608830 -0.504522
O21   O     O_3   0.564130 0.365960 0.666760 -0.438218
O22   O     O_3   0.234186 0.738099 0.724963 -0.637621
O23   O     O_3   0.601940 0.368240 0.453770 -0.477023
O24   O     O_3   0.133170 0.309040 0.621000 -0.438300
P1    P     P_3+3 0.998730 0.403530 0.291970 0.966784
P2    P     P_3+3 0.687380 0.751030 0.571310 0.985749
P3    P     P_3+3 0.104293 0.828727 0.374965 0.936625
P4    P     P_3+3 0.190990 0.596560 0.708040 0.977757
P5    P     P_3+3 0.037545 0.195586 0.664087 0.963053
P6    P     P_3+3 0.585542 0.627813 0.214875 0.949501
P7    P     P_3+3 0.504607 0.234113 0.421463 0.918991
P8    P     P_3+3 0.601554 0.365270 0.785140 1.009447

loop_
_geom_bond_atom_site_label_1
_geom_bond_atom_site_label_2
_ccdc_geom_bond_type
C37   H7    S    
C32   H12   S    
C41   H28   S    
O17   P3    D    
C14   H31   S    
C1    H9    S    
C2    C6    A    
C34   H15   S    
C40   O9    S    
Ba1   O5    S    
Ba2   O24   S    
O4    P1    S    
C5    H29   S    
C28   O22   S    
C25   P2    S    
C42   P8    S    
C16   H42   S    
C38   H19   S    
O22   P4    S    
C20   H38   S    
C26   C27   A    
C33   C35   S    
C22   C24   A    
C34   H14   S    
O16   P3    S    
C36   C37   S    
Ba2   O19   S    
C13   C14   A    
C1    H4    S    
C15   C18   A    
C38   H18   S    
Ba1   Ba2   S    
Ba1   P1    S    
C21   C24   A    
C2    C11   A    
O9    P8    S    
C22   C27   A    
Ba1   O15   S    
O5    P2    S    
C22   H36   S    
C12   H8    S    
O19   P4    D    
C8    C18   A    
C14   C15   A    
O7    P7    S    
C24   P3    S    
C21   C25   A    
C7    C8    A    
C35   H48   S    
C1    H16   S    
C12   O14   S    
C13   H32   S    
Ba2   O6    S    
C41   H25   S    
C40   H24   S    
C30   P5    S    
O14   P6    S    
O13   P1    S    
C8    H33   S    
C12   H1    S    
Ba2   P4    S    
C4    H27   S    
C4    C16   S    
C16   H41   S    
C18   P6    S    
C20   C29   A    
C35   H47   S    
O6    P7    D    
C5    C6    A    
C23   H10   S    
C34   H13   S    
C21   H40   S    
C38   O3    S    
C3    C5    A    
C28   C32   S    
C11   C17   A    
C39   H21   S    
C2    C42   A    
O1    P1    D    
C9    C19   A    
O11   P6    D    
Ba1   P2    S    
C36   O12   S    
C3    C7    A    
Ba1   O16   S    
C19   C42   A    
Ba2   O21   S    
C10   C13   A    
Ba1   O1    S    
C19   H35   S    
C6    H30   S    
C35   H49   S    
Ba1   O23   S    
O21   P8    S    
Ba1   O10   S    
C36   H3    S    
C1    C12   S    
C20   C30   A    
O10   P6    S    
C33   H45   S    
C38   C39   S    
C37   H5    S    
C26   C31   A    
C41   H26   S    
C7    P1    S    
C9    P4    S    
C40   C41   S    
C29   P7    S    
C28   H44   S    
C4    H39   S    
O2    P5    D    
O12   P2    S    
C40   I1    S    
C4    O18   S    
C23   H11   S    
O8    P8    D    
Ba1   O4    S    
Ba2   O5    S    
C9    C10   A    
C16   H17   S    
C39   H22   S    
C3    C17   A    
Ba2   O23   S    
C30   C31   A    
O18   P3    S    
O3    P5    S    
C32   H34   S    
Ba2   O20   S    
C23   O7    S    
O23   P7    S    
C15   C17   A    
O24   P5    S    
C36   H2    S    
C33   O13   S    
C23   C34   S    
C32   H23   S    
O20   P4    S    
C33   H46   S    
C37   H6    S    
C10   C11   A    
Ba2   O4    S    
C27   C29   A    
Ba1   O20   S    
C25   C26   A    
C39   H20   S    
C28   H43   S    
C31   H37   S    
O15   P2    D    
