data_mof_unit_46850.cif
_audit_creation_date              2012-12-10T18:43:05-0500
_audit_creation_method            fapswitch 2.2
_symmetry_space_group_name_H-M    P1
_symmetry_Int_Tables_number       1
_space_group_crystal_system       triclinic
_cell_length_a                    10.631527
_cell_length_b                    9.855574
_cell_length_c                    10.7467
_cell_angle_alpha                 89.966733
_cell_angle_beta                  90.103243
_cell_angle_gamma                 90.127973
_cell_volume                      1126.03226426

loop_
_atom_site_label
_atom_site_type_symbol
_atom_type_description
_atom_site_fract_x
_atom_site_fract_y
_atom_site_fract_z
_atom_type_partial_charge
C1    C     C_R   0.260395 0.499742 0.496042 0.848745
C2    C     C_R   0.933629 0.432246 0.390576 -0.046719
C3    C     C_R   0.872067 0.500952 0.488086 -0.116317
C4    C     C_R   0.128002 0.499243 0.488490 -0.113396
C5    C     C_R   0.936369 0.570360 0.581059 -0.165284
C6    C     C_R   0.064685 0.567746 0.582326 -0.157482
C7    C     C_R   0.577938 0.072049 0.577589 -0.056032
C8    C     C_R   0.422127 0.071769 0.422345 -0.060236
C9    C     C_R   0.577965 0.928250 0.577564 -0.057736
C10   C     C_R   0.422093 0.927975 0.422380 -0.054309
C11   C     C_2   0.138231 0.385293 0.278882 0.439117
C12   C     C_R   0.739672 0.500113 0.496892 0.842841
C13   C     C_2   0.859167 0.358141 0.294479 0.518200
C14   C     C_R   0.496919 0.499856 0.262595 0.897438
C15   C     C_R   0.502781 0.499816 0.737429 0.941007
C16   C     C_2   0.495718 0.385364 0.933155 -0.131789
C17   C     C_2   0.502868 0.385369 0.067064 -0.142127
C18   C     C_2   0.514413 0.499599 0.868968 -0.331372
C19   C     C_2   0.484731 0.499616 0.131135 -0.315114
C20   C     C_R   0.065516 0.435780 0.388153 -0.036819
H1    H     H_    0.476205 0.289287 0.887353 0.175217
H2    H     H_    0.359749 0.873484 0.360288 0.136080
H3    H     H_    0.230694 0.341300 0.290763 0.065697
H4    H     H_    0.768675 0.397022 0.264460 0.035503
H5    H     H_    0.522264 0.289337 0.112938 0.177407
H6    H     H_    0.541638 0.594825 0.911763 0.149811
H7    H     H_    0.457589 0.594771 0.088306 0.156659
H8    H     H_    0.886823 0.622649 0.654956 0.146137
H9    H     H_    0.114989 0.618213 0.657098 0.153306
H10   H     H_    0.640269 0.126558 0.639683 0.135157
H11   H     H_    0.359859 0.126015 0.360187 0.125070
H12   H     H_    0.640357 0.873972 0.639607 0.129672
N1    N     N_R   0.500000 0.857200 0.500000 -0.084631
N2    N     N_R   0.500000 0.142810 0.500000 -0.084561
O1    O     O_R   0.316770 0.614620 0.499990 -0.610864
O2    O     O_2   0.895644 0.250343 0.251974 -0.536246
O3    O     O_R   0.683230 0.614620 0.500010 -0.611061
O4    O     O_R   0.316800 0.385290 0.500000 -0.629497
O5    O     O_R   0.683200 0.385290 0.500000 -0.621238
O6    O     O_R   0.500000 0.614630 0.319080 -0.617029
O7    O     O_R   0.500000 0.614630 0.680920 -0.622272
O8    O     O_R   0.500030 0.385300 0.319080 -0.631850
O9    O     O_R   0.499970 0.385300 0.680920 -0.613795
O10   O     O_2   0.097804 0.398252 0.173138 -0.537355
Zn1   Zn    Zn3+2 0.500000 0.653120 0.500000 0.958864
Zn2   Zn    Zn3+2 0.500000 0.346880 0.500000 0.953202

loop_
_geom_bond_atom_site_label_1
_geom_bond_atom_site_label_2
_ccdc_geom_bond_type
C15   C18   S    
C16   H1    S    
N2    Zn2   S    
C5    H8    S    
N1    Zn1   S    
C18   H6    S    
C14   O8    A    
C1    C4    S    
C17   H5    S    
C12   O5    A    
C2    C3    A    
C15   O9    A    
C11   O10   D    
C7    H10   S    
C8    N2    A    
C10   H2    S    
C9    N1    A    
C15   O7    A    
C5    C6    A    
C1    O4    A    
O5    Zn2   S    
C8    C10   A    
O9    Zn2   S    
C14   O6    A    
C10   N1    A    
O6    Zn1   S    
C7    N2    A    
C11   C20   S    
O4    Zn2   S    
O3    Zn1   S    
O1    Zn1   S    
C6    H9    S    
C19   H7    S    
C1    O1    A    
C13   O2    D    
C4    C6    A    
O8    Zn2   S    
C11   H3    S    
C12   O3    A    
C7    C9    A    
C2    C13   S    
O7    Zn1   S    
C3    C12   S    
C9    H12   S    
C17   C19   D    
C8    H11   S    
C2    C20   A    
C14   C19   S    
C16   C18   D    
C13   H4    S    
C16   C17   S    
C3    C5    A    
C4    C20   A    
