data_mof_unit_67732.cif
_audit_creation_date              2012-12-10T19:48:34-0500
_audit_creation_method            fapswitch 2.2
_symmetry_space_group_name_H-M    P1
_symmetry_Int_Tables_number       1
_space_group_crystal_system       triclinic
_cell_length_a                    11.706937
_cell_length_b                    10.779633
_cell_length_c                    9.836654
_cell_angle_alpha                 88.287643
_cell_angle_beta                  89.498939
_cell_angle_gamma                 87.497567
_cell_volume                      1239.57914228

loop_
_atom_site_label
_atom_site_type_symbol
_atom_type_description
_atom_site_fract_x
_atom_site_fract_y
_atom_site_fract_z
_atom_type_partial_charge
C1    C     C_R   0.510193 0.260664 0.502286 0.851460
C2    C     C_3   0.412197 0.065393 0.443227 -0.435480
C3    C     C_3   0.483492 0.877717 0.492069 -0.225036
C4    C     C_3   0.516596 0.122184 0.508096 -0.225145
C5    C     C_3   0.404032 0.972934 0.565402 0.492081
C6    C     C_3   0.596088 0.026900 0.434821 0.484843
C7    C     C_3   0.524726 0.604873 0.044332 0.544583
C8    C     C_3   0.475355 0.395109 0.955701 0.544352
C9    C     C_3   0.425910 0.579492 0.950616 0.012488
C10   C     C_3   0.574105 0.420592 0.049371 0.012622
C11   C     C_3   0.598754 0.525940 0.944915 -0.326032
C12   C     C_R   0.489824 0.739305 0.497740 0.850904
C13   C     C_3   0.401258 0.474055 0.055077 -0.325414
C14   C     C_R   0.262751 0.502577 0.499537 0.798370
C15   C     C_R   0.737248 0.497575 0.500427 0.796823
C16   C     C_R   0.089370 0.717683 0.057554 -0.123411
C17   C     C_R   0.910413 0.280198 0.939958 -0.123593
C18   C     C_R   0.093523 0.694080 0.198473 -0.048273
C19   C     C_R   0.905337 0.305214 0.799323 -0.056531
C20   C     C_R   0.106184 0.569372 0.248569 -0.049028
C21   C     C_R   0.893672 0.430414 0.750787 -0.052300
C22   C     C_R   0.124909 0.470715 0.157677 -0.085792
C23   C     C_R   0.871975 0.495972 0.502899 -0.040386
C24   C     C_R   0.875425 0.528209 0.842521 -0.079674
C25   C     C_R   0.126543 0.498845 0.016191 0.325866
C26   C     C_R   0.873902 0.498965 0.983734 0.327787
C27   C     C_R   0.110923 0.621550 0.965120 0.531636
C28   C     C_R   0.889920 0.375774 0.033669 0.528480
C29   C     C_R   0.935657 0.534392 0.389673 -0.167148
C30   C     C_R   0.064323 0.465658 0.610038 -0.161900
C31   C     C_3   0.125265 0.756044 0.767642 -0.172452
C32   C     C_3   0.876644 0.239900 0.230447 -0.131479
C33   C     C_2   0.357904 0.693704 0.919462 0.803774
C34   C     C_R   0.128018 0.504492 0.496948 -0.031564
C35   C     C_2   0.642647 0.306912 0.080908 0.802071
C36   C     C_3   0.570108 0.812266 0.990681 -0.257556
C37   C     C_3   0.431042 0.187511 0.009874 -0.257446
C38   C     C_2   0.079072 0.801313 0.290749 0.815061
C39   C     C_2   0.917291 0.198861 0.705581 0.822508
C40   C     C_2   0.141903 0.337101 0.208599 0.878076
C41   C     C_2   0.858741 0.662031 0.792430 0.873532
C42   C     C_3   0.214148 0.350374 0.887172 -0.269899
C43   C     C_3   0.786330 0.648108 0.112163 -0.271805
C44   C     C_3   0.636993 0.081450 0.791169 -0.151407
C45   C     C_R   0.941809 0.462616 0.616740 0.141286
C46   C     C_3   0.363214 0.918179 0.209029 -0.154583
C47   C     C_3   0.244690 0.054532 0.675366 -0.371748
C48   C     C_3   0.755534 0.944858 0.325327 -0.331725
C49   C     C_R   0.058171 0.537989 0.382998 0.149211
C50   C     C_3   0.507947 0.029491 0.629866 0.436705
C51   C     C_3   0.492160 0.970381 0.370328 0.432161
C52   C     C_3   0.587845 0.934457 0.556986 -0.434397
Cu1   Cu    Cu3+1 0.500030 0.499990 0.643150 1.030029
Cu2   Cu    Cu3+1 0.499970 0.500010 0.356850 1.030162
H1    H     H_    0.673561 0.557879 0.891616 0.145535
H2    H     H_    0.045957 0.798601 0.723578 0.187973
H3    H     H_    0.185238 0.744110 0.680925 0.251530
H4    H     H_    0.956094 0.196023 0.272770 0.212582
H5    H     H_    0.837894 0.175186 0.161315 0.150472
H6    H     H_    0.818378 0.251419 0.318899 0.252065
H7    H     H_    0.357958 0.852880 0.817493 0.348938
H8    H     H_    0.642909 0.148769 0.184514 0.347097
H9    H     H_    0.595347 0.772151 0.891291 0.161073
H10   H     H_    0.640130 0.870138 0.023505 0.162349
H11   H     H_    0.496174 0.877617 0.975333 0.225104
H12   H     H_    0.326642 0.441405 0.108190 0.144541
H13   H     H_    0.405229 0.227704 0.109037 0.159652
H14   H     H_    0.505456 0.122938 0.025726 0.224268
H15   H     H_    0.361648 0.128778 0.977041 0.163745
H16   H     H_    0.090657 0.866969 0.479498 0.343683
H17   H     H_    0.949584 0.015163 0.683942 0.323744
H18   H     H_    0.139728 0.153929 0.169640 0.328832
H19   H     H_    0.862060 0.844777 0.832364 0.321137
H20   H     H_    0.253363 0.303474 0.974275 0.202475
H21   H     H_    0.269932 0.419343 0.839641 0.209670
H22   H     H_    0.198024 0.278307 0.812810 0.178518
H23   H     H_    0.068264 0.811287 0.021077 0.194352
H24   H     H_    0.729988 0.579901 0.160019 0.210034
H25   H     H_    0.747600 0.694792 0.024577 0.200773
H26   H     H_    0.802559 0.720633 0.185994 0.178141
H27   H     H_    0.649672 0.180128 0.762136 0.238519
H28   H     H_    0.702593 0.023091 0.738505 0.132522
H29   H     H_    0.656352 0.062829 0.899569 0.184693
H30   H     H_    0.343902 0.936745 0.100613 0.184218
H31   H     H_    0.297523 0.976392 0.261734 0.134962
H32   H     H_    0.350654 0.819477 0.238015 0.239202
H33   H     H_    0.217467 0.122930 0.593985 0.201535
H34   H     H_    0.931224 0.186194 0.975283 0.198657
H35   H     H_    0.301950 0.097381 0.748188 0.205379
H36   H     H_    0.167141 0.028853 0.732812 0.207725
H37   H     H_    0.698679 0.902868 0.251441 0.194256
H38   H     H_    0.781585 0.875839 0.406587 0.192794
H39   H     H_    0.833863 0.970181 0.269253 0.216357
H40   H     H_    0.887973 0.561542 0.304358 0.217636
H41   H     H_    0.111887 0.437377 0.695240 0.216819
H42   H     H_    0.659620 0.876441 0.601586 0.199647
H43   H     H_    0.340326 0.123309 0.398701 0.201418
H44   H     H_    0.162496 0.821889 0.836657 0.160121
N1    N     N_3   0.500090 0.499970 0.858290 -0.224516
N2    N     N_3   0.499910 0.500030 0.141710 -0.224411
O1    O     O_R   0.500060 0.316850 0.620870 -0.549582
O2    O     O_3   0.896085 0.359794 0.175057 -0.613766
O3    O     O_2   0.307216 0.741809 0.013293 -0.694537
O4    O     O_R   0.374740 0.761910 0.800994 -0.723029
O5    O     O_2   0.692478 0.257967 0.986982 -0.693901
O6    O     O_R   0.627286 0.239993 0.200487 -0.722812
O7    O     O_3   0.547268 0.723147 0.095860 -0.557074
O8    O     O_3   0.453251 0.276625 0.904424 -0.557244
O9    O     O_2   0.050320 0.904487 0.244522 -0.646818
O10   O     O_R   0.102314 0.786478 0.429426 -0.782545
O11   O     O_2   0.898308 0.214083 0.584073 -0.608702
O12   O     O_R   0.499940 0.683150 0.379130 -0.549211
O13   O     O_R   0.946126 0.079438 0.757226 -0.810569
O14   O     O_2   0.180272 0.312760 0.321599 -0.642010
O15   O     O_R   0.117286 0.238062 0.126608 -0.760315
O16   O     O_2   0.818846 0.687041 0.680304 -0.646445
O17   O     O_R   0.885247 0.760459 0.874265 -0.761355
O18   O     O_3   0.110189 0.405752 0.926707 -0.597273
O19   O     O_3   0.890163 0.591476 0.073923 -0.598403
O20   O     O_3   0.522297 0.051897 0.768369 -0.594470
O21   O     O_3   0.477861 0.947913 0.231841 -0.594214
O22   O     O_3   0.295883 0.946457 0.619910 -0.596544
O23   O     O_R   0.500000 0.316860 0.379090 -0.521730
O24   O     O_3   0.704463 0.053037 0.380727 -0.584234
O25   O     O_R   0.500000 0.683140 0.620910 -0.521085
O26   O     O_R   0.319670 0.500010 0.620890 -0.596842
O27   O     O_R   0.680330 0.499990 0.379110 -0.595946
O28   O     O_R   0.319620 0.500010 0.379110 -0.567671
O29   O     O_R   0.680380 0.499990 0.620890 -0.566915
O30   O     O_3   0.105753 0.636506 0.823708 -0.606241

loop_
_geom_bond_atom_site_label_1
_geom_bond_atom_site_label_2
_ccdc_geom_bond_type
Cu2   O23   S    
C8    C13   S    
C23   C45   A    
C37   H15   S    
C33   O4    S    
C30   C45   A    
C6    O24   S    
C44   H29   S    
C25   O18   S    
C29   C49   A    
Cu1   Cu2   S    
Cu1   N1    S    
C43   H24   S    
C7    C11   S    
H18   O15   S    
C42   H21   S    
C20   C49   S    
C50   O20   S    
C23   C29   A    
C19   C21   A    
C8    N1    S    
C24   C26   A    
C31   O30   S    
C44   H28   S    
C29   H40   S    
C40   O15   S    
C44   O20   S    
C43   H25   S    
C17   H34   S    
C37   H14   S    
C14   O28   A    
H17   O13   S    
C11   N1    S    
C16   H23   S    
C31   H44   S    
C9    C13   S    
C3    C12   S    
H16   O10   S    
C40   O14   D    
C2    H43   S    
Cu1   O1    S    
C39   O13   S    
C22   C25   A    
C50   C52   S    
C46   O21   S    
C10   C35   S    
C32   H4    S    
C31   H2    S    
C38   O10   S    
C36   H9    S    
C18   C20   A    
C46   H31   S    
C16   C27   A    
C15   C23   S    
C9    N1    S    
C15   O27   A    
C36   O7    S    
C9    C33   S    
C24   C41   S    
C47   H35   S    
Cu2   N2    S    
C8    O8    S    
C21   C45   S    
C13   H12   S    
C42   H20   S    
H19   O17   S    
C48   H39   S    
C30   C34   A    
H7    O4    S    
C26   O19   S    
C37   O8    S    
C4    C6    S    
C44   H27   S    
C7    N2    S    
C3    C51   S    
C36   H11   S    
C42   O18   S    
C47   O22   S    
C12   O25   A    
C43   H26   S    
Cu2   O28   S    
C5    O22   S    
C48   H37   S    
C4    C50   S    
C47   H33   S    
C2    C4    S    
C1    O23   A    
C48   O24   S    
C30   H41   S    
C35   O5    D    
C15   O29   A    
C22   C40   S    
Cu2   O12   S    
C38   O9    D    
C10   N2    S    
Cu1   O25   S    
C46   H30   S    
C16   C18   A    
C20   C22   A    
C10   C11   S    
C6    C51   S    
C47   H36   S    
C7    O7    S    
C5    C50   S    
C2    C5    S    
Cu1   O29   S    
C32   H6    S    
C41   O16   D    
C1    O1    A    
C12   O12   A    
C11   H1    S    
C7    C9    S    
C34   C49   A    
C33   O3    D    
C17   C28   A    
C42   H22   S    
C8    C10   S    
C3    C5    S    
C14   C34   S    
C3    C52   S    
H8    O6    S    
C25   C27   A    
Cu2   O27   S    
C26   C28   A    
C2    C51   S    
C14   O26   A    
C1    C4    S    
C6    C52   S    
C31   H3    S    
C13   N2    S    
C18   C38   S    
C35   O6    S    
C51   O21   S    
C37   H13   S    
C39   O11   D    
C17   C19   A    
C52   H42   S    
C32   O2    S    
Cu1   O26   S    
C28   O2    S    
C19   C39   S    
C48   H38   S    
C21   C24   A    
C27   O30   S    
C32   H5    S    
C41   O17   S    
C36   H10   S    
C43   O19   S    
C46   H32   S    
