data_mof_unit_45854.cif
_audit_creation_date              2012-10-26T21:02:53-0400
_audit_creation_method            fapswitch 2.2
_symmetry_space_group_name_H-M    P1
_symmetry_Int_Tables_number       1
_space_group_crystal_system       triclinic
_cell_length_a                    12.333684
_cell_length_b                    13.105522
_cell_length_c                    23.444591
_cell_angle_alpha                 78.060735
_cell_angle_beta                  100.131271
_cell_angle_gamma                 116.36162
_cell_volume                      3306.73363663

loop_
_atom_site_label
_atom_site_type_symbol
_atom_type_description
_atom_site_fract_x
_atom_site_fract_y
_atom_site_fract_z
_atom_type_partial_charge
C1    C     C_R   0.854947 0.286459 0.504715 0.516193
C2    C     C_R   0.068047 0.570143 0.877986 0.404397
C3    C     C_R   0.948204 0.561266 0.748698 -0.075121
C4    C     C_R   0.997376 0.497890 0.608709 0.547331
C5    C     C_R   0.953031 0.564878 0.689383 -0.193451
C6    C     C_R   0.988692 0.489832 0.671120 0.003108
C7    C     C_R   0.014090 0.406601 0.712902 0.248231
C8    C     C_R   0.011446 0.405484 0.772333 -0.033499
C9    C     C_R   0.978467 0.482345 0.790288 0.196093
C10   C     C_R   0.005522 0.397933 0.252316 -0.059959
C11   C     C_R   0.003045 0.397039 0.312159 0.214351
C12   C     C_R   0.799494 0.294233 0.034736 -0.012231
C13   C     C_R   0.995633 0.490457 0.329548 0.009437
C14   C     C_R   0.978972 0.576375 0.287268 -0.194814
C15   C     C_R   0.975370 0.573104 0.228044 -0.075334
C16   C     C_R   0.144840 0.713556 0.492028 0.546040
C17   C     C_R   0.989969 0.484692 0.210402 0.203400
C18   C     C_R   0.274179 0.027444 0.430133 -0.138722
C19   C     C_R   0.227677 0.835545 0.481744 -0.003983
C20   C     C_R   0.814708 0.081837 0.536276 -0.146105
C21   C     C_R   0.735833 0.966160 0.545943 -0.150141
C22   C     C_R   0.612323 0.930288 0.528559 -0.123867
C23   C     C_R   0.800941 0.298071 0.974553 -0.115660
C24   C     C_R   0.565252 0.009815 0.498457 0.029239
C25   C     C_R   0.648314 0.125647 0.482561 0.020439
C26   C     C_R   0.438725 0.977763 0.482507 0.025601
C27   C     C_R   0.398491 0.058053 0.446466 0.048179
C28   C     C_R   0.998916 0.496893 0.391529 0.573184
C29   C     C_R   0.482821 0.166799 0.425518 -0.148803
C30   C     C_R   0.605590 0.199444 0.442313 -0.132373
C31   C     C_R   0.350545 0.868215 0.501416 -0.128633
C32   C     C_R   0.189073 0.916184 0.447223 -0.148845
C33   C     C_R   0.772134 0.163223 0.506275 -0.007288
C34   C     C_R   0.889804 0.389247 0.942306 0.015523
C35   C     C_R   0.346160 0.331748 0.597092 0.237853
C36   C     C_R   0.765643 0.653792 0.425287 0.046963
C37   C     C_R   0.680401 0.699337 0.416694 -0.186056
C38   C     C_R   0.579612 0.646291 0.448806 -0.118228
C39   C     C_R   0.560281 0.543912 0.488224 0.001864
C40   C     C_R   0.076913 0.567993 0.118170 0.397179
C41   C     C_R   0.655741 0.507549 0.499791 0.169106
C42   C     C_R   0.451604 0.478544 0.517713 -0.045526
C43   C     C_R   0.449852 0.392422 0.565689 -0.009926
C44   C     C_R   0.549968 0.365883 0.580371 -0.161345
C45   C     C_R   0.980846 0.479125 0.970451 -0.033525
C46   C     C_R   0.648518 0.419380 0.547038 -0.111133
C47   C     C_R   0.340609 0.488488 0.498418 0.382706
C48   C     C_R   0.249065 0.362708 0.582401 0.028551
C49   C     C_R   0.894564 0.393645 0.123801 0.387869
C50   C     C_R   0.890438 0.386694 0.063744 0.031508
C51   C     C_R   0.981913 0.477922 0.030960 -0.040547
C52   C     C_R   0.075208 0.568832 0.058390 0.029673
C53   C     C_3   0.701075 0.187982 0.065092 -0.213952
C54   C     C_3   0.753314 0.105536 0.101788 -0.273753
C55   C     C_3   0.658402 0.006741 0.138318 -0.435939
C56   C     C_R   0.071255 0.570581 0.937992 0.030571
C57   C     C_3   0.929708 0.199244 0.344146 -0.000163
C58   C     C_3   0.798797 0.181208 0.346952 -0.260744
C59   C     C_3   0.711037 0.053830 0.353438 -0.471736
C60   C     C_3   0.299495 0.139654 0.622846 0.004452
C61   C     C_3   0.160207 0.077193 0.617870 -0.275947
C62   C     C_3   0.115651 0.956497 0.602427 -0.474037
C63   C     C_3   0.278711 0.456978 0.402940 0.042977
C64   C     C_3   0.378140 0.444353 0.377822 -0.308887
C65   C     C_3   0.323903 0.370811 0.328442 -0.474664
C66   C     C_3   0.944225 0.238358 0.674648 0.018192
C67   C     C_R   0.162951 0.659853 0.966088 -0.127181
C68   C     C_3   0.888430 0.140525 0.724135 -0.276978
C69   C     C_3   0.787871 0.034915 0.699904 -0.469485
C70   C     C_R   0.165124 0.658801 0.025666 -0.127887
C71   C     C_R   0.890294 0.392187 0.882109 0.398821
Cu1   Cu    Cu3+1 0.098270 0.475410 0.513370 0.994869
Cu2   Cu    Cu3+1 0.901730 0.524590 0.486630 0.902181
H1    H     H_    0.969840 0.646696 0.300222 0.121732
H2    H     H_    0.732245 0.227996 0.952702 0.161942
H3    H     H_    0.665881 0.281899 0.421045 0.153762
H4    H     H_    0.172598 0.321926 0.608370 0.167711
H5    H     H_    0.551287 0.300541 0.616988 0.156304
H6    H     H_    0.845114 0.696617 0.401193 0.123772
H7    H     H_    0.519029 0.687732 0.442921 0.174820
H8    H     H_    0.693365 0.776760 0.385808 0.099718
H9    H     H_    0.718273 0.390362 0.561087 0.182706
H10   H     H_    0.233503 0.730804 0.942182 0.165560
H11   H     H_    0.237390 0.729189 0.045938 0.161556
H12   H     H_    0.962176 0.639801 0.195762 0.141304
H13   H     H_    0.922395 0.620673 0.762492 0.140061
H14   H     H_    0.931540 0.627993 0.657834 0.133728
H15   H     H_    0.034884 0.344557 0.804671 0.138790
H16   H     H_    0.020182 0.332285 0.237807 0.113028
H17   H     H_    0.629355 0.040586 0.169678 0.176552
H18   H     H_    0.577911 0.957499 0.109496 0.159830
H19   H     H_    0.698023 0.947643 0.163522 0.139901
H20   H     H_    0.783625 0.069453 0.072007 0.154709
H21   H     H_    0.833675 0.151343 0.131583 0.196352
H22   H     H_    0.651414 0.212229 0.090994 0.202226
H23   H     H_    0.094099 0.892225 0.431760 0.119458
H24   H     H_    0.629510 0.139640 0.032288 0.119669
H25   H     H_    0.950309 0.137318 0.379287 0.151815
H26   H     H_    0.939274 0.178099 0.302368 0.120189
H27   H     H_    0.796626 0.218417 0.384788 0.173505
H28   H     H_    0.768502 0.226766 0.306489 0.173285
H29   H     H_    0.712579 0.014776 0.315982 0.144453
H30   H     H_    0.617314 0.044497 0.354307 0.165093
H31   H     H_    0.736129 0.007239 0.395028 0.155370
H32   H     H_    0.336620 0.085366 0.655166 0.166251
H33   H     H_    0.333947 0.148609 0.580249 0.121399
H34   H     H_    0.453911 0.226824 0.395512 0.108389
H35   H     H_    0.126749 0.070858 0.660081 0.183092
H36   H     H_    0.121403 0.126549 0.583093 0.138003
H37   H     H_    0.147163 0.961149 0.560015 0.160841
H38   H     H_    0.014714 0.914285 0.598431 0.142295
H39   H     H_    0.150058 0.903414 0.637181 0.160560
H40   H     H_    0.229034 0.489011 0.365031 0.197774
H41   H     H_    0.213563 0.370717 0.422729 0.178854
H42   H     H_    0.445396 0.530380 0.359921 0.185983
H43   H     H_    0.424301 0.401564 0.412395 0.154809
H44   H     H_    0.255923 0.283774 0.344795 0.152628
H45   H     H_    0.243197 0.088532 0.402619 0.101298
H46   H     H_    0.397186 0.361708 0.311422 0.147889
H47   H     H_    0.279293 0.411997 0.291905 0.168318
H48   H     H_    0.974520 0.204925 0.643667 0.145471
H49   H     H_    0.873657 0.265533 0.649159 0.112075
H50   H     H_    0.960196 0.116417 0.750244 0.182845
H51   H     H_    0.849691 0.169737 0.753464 0.180735
H52   H     H_    0.715892 0.057331 0.672760 0.159363
H53   H     H_    0.746537 0.966818 0.736699 0.163828
H54   H     H_    0.825819 0.000621 0.672814 0.146521
H55   H     H_    0.375077 0.805594 0.531067 0.125769
H56   H     H_    0.909017 0.107765 0.553413 0.114103
H57   H     H_    0.556893 0.839209 0.537973 0.109972
H58   H     H_    0.770117 0.904071 0.568734 0.117316
N1    N     N_R   0.987338 0.481966 0.149293 -0.391054
N2    N     N_R   0.978445 0.481812 0.851414 -0.394170
N3    N     N_R   0.246280 0.438190 0.533650 -0.269901
N4    N     N_R   0.754320 0.561190 0.466710 -0.233468
O1    O     O_R   0.972510 0.318130 0.516820 -0.512613
O2    O     O_R   0.082990 0.479280 0.429170 -0.441905
O3    O     O_R   0.917010 0.520800 0.406580 -0.521255
O4    O     O_2   0.167743 0.652456 0.145262 -0.513040
O5    O     O_3   0.015702 0.310914 0.354817 -0.604364
O6    O     O_3   0.340702 0.246050 0.643825 -0.561874
O7    O     O_3   0.323620 0.540008 0.441943 -0.566958
O8    O     O_3   0.048078 0.329876 0.696788 -0.561582
O9    O     O_2   0.806417 0.315071 0.156796 -0.540715
O10   O     O_2   0.803189 0.306599 0.854346 -0.510303
O11   O     O_2   0.154303 0.656671 0.846475 -0.498117
O12   O     O_R   0.806530 0.359650 0.494230 -0.534084
O13   O     O_R   0.082990 0.479200 0.593420 -0.464282
O14   O     O_R   0.917010 0.520720 0.570830 -0.529444
O15   O     O_R   0.193470 0.640350 0.505770 -0.473254
O16   O     O_R   0.027490 0.681870 0.483180 -0.512518

loop_
_geom_bond_atom_site_label_1
_geom_bond_atom_site_label_2
_ccdc_geom_bond_type
C66   C68   S    
C40   O4    S    
C67   H10   S    
C64   H43   S    
C53   H22   S    
C20   H56   S    
C43   C44   A    
C19   C31   A    
C68   H51   S    
C7    O8    S    
C1    C33   S    
C7    C8    A    
C39   C41   A    
C53   C54   S    
C4    O14   A    
C12   C23   A    
C26   C27   A    
C37   C38   A    
Cu2   O12   S    
C59   H31   S    
C14   H1    S    
C48   N3    A    
C36   C37   A    
C24   C26   A    
C55   H17   S    
C71   O10   S    
C38   C39   A    
Cu1   O1    S    
C27   C29   A    
Cu2   O3    S    
C45   C51   A    
C10   C17   A    
C4    O13   A    
C49   O9    S    
C61   H35   S    
C21   H58   S    
C54   H20   S    
C55   H18   S    
C46   H9    S    
C63   H41   S    
C65   H47   S    
C62   H38   S    
Cu2   N4    S    
C10   H16   S    
C35   C48   A    
C68   C69   S    
C62   H37   S    
C41   C46   A    
C66   H49   S    
C13   C28   S    
C1    O1    A    
C70   H11   S    
C18   H45   S    
C12   C53   S    
C15   H12   S    
C40   N1    A    
C61   H36   S    
C26   C31   A    
C64   H42   S    
C13   C14   A    
C22   H57   S    
C17   N1    S    
C37   H8    S    
C31   H55   S    
C19   C32   A    
C68   H50   S    
C44   C46   A    
C39   C42   A    
C49   N1    A    
C2    N2    A    
C18   C27   A    
C51   C52   A    
C28   O3    A    
C24   C25   A    
C45   C56   A    
C4    C6    S    
C58   H28   S    
C8    C9    A    
C66   O8    S    
C53   H24   S    
C58   C59   S    
C40   C52   A    
C2    C56   A    
C57   O5    S    
C60   C61   S    
C8    H15   S    
C5    H14   S    
C48   H4    S    
C11   O5    S    
C55   H19   S    
C3    C9    A    
C60   O6    S    
C30   H3    S    
Cu1   N3    S    
C47   O7    S    
C23   C34   A    
C50   C51   A    
C65   H46   S    
C66   H48   S    
C58   H27   S    
C34   C45   A    
C35   O6    S    
C20   C33   A    
Cu1   O2    S    
C32   H23   S    
C69   H53   S    
C69   H52   S    
Cu1   O15   S    
C47   N3    A    
C22   C24   A    
C1    O12   A    
C18   C32   A    
C42   C43   A    
C36   N4    A    
C41   N4    A    
C35   C43   A    
C25   C30   A    
C15   C17   A    
C54   C55   S    
Cu2   O14   S    
C59   H29   S    
C9    N2    S    
C28   O2    A    
C23   H2    S    
Cu1   Cu2   S    
C3    C5    A    
C36   H6    S    
C71   N2    A    
C12   C50   A    
C6    C7    A    
C60   H33   S    
C2    O11   S    
C56   C67   A    
C67   C70   A    
C59   H30   S    
C64   C65   S    
C44   H5    S    
Cu1   O13   S    
C11   C13   A    
C57   C58   S    
C5    C6    A    
C38   H7    S    
C16   C19   S    
C57   H25   S    
C63   O7    S    
C16   O16   A    
C42   C47   A    
C61   C62   S    
C54   H21   S    
C52   C70   A    
C10   C11   A    
C29   C30   A    
C63   C64   S    
C63   H40   S    
C62   H39   S    
C20   C21   A    
C69   H54   S    
C49   C50   A    
C65   H44   S    
C14   C15   A    
C29   H34   S    
C16   O15   A    
C21   C22   A    
C34   C71   A    
Cu2   O16   S    
C60   H32   S    
C25   C33   A    
C3    H13   S    
C57   H26   S    
