data_mof_unit_10793.cif
_audit_creation_date              2012-12-11T17:47:21-0500
_audit_creation_method            fapswitch 2.2
_symmetry_space_group_name_H-M    P1
_symmetry_Int_Tables_number       1
_space_group_crystal_system       triclinic
_cell_length_a                    15.079395
_cell_length_b                    15.224997
_cell_length_c                    15.176632
_cell_angle_alpha                 110.770015
_cell_angle_beta                  108.576523
_cell_angle_gamma                 108.608281
_cell_volume                      2696.32141235

loop_
_atom_site_label
_atom_site_type_symbol
_atom_type_description
_atom_site_fract_x
_atom_site_fract_y
_atom_site_fract_z
_atom_type_partial_charge
C1    C     C_R   0.962514 0.240283 0.052611 -0.093830
C2    C     C_R   0.080037 0.797826 0.995522 -0.107702
C3    C     C_R   0.320590 0.800828 0.323744 0.051903
C4    C     C_R   0.696022 0.146821 0.692943 0.038178
C5    C     C_R   0.308911 0.498194 0.949698 0.100470
C6    C     C_R   0.676062 0.500520 0.956219 0.080002
C7    C     C_R   0.993556 0.501037 0.320609 0.161185
C8    C     C_R   0.966633 0.505173 0.680621 0.166251
C9    C     C_R   0.138345 0.024317 0.061340 -0.183638
C10   C     C_R   0.022002 0.110069 0.131636 -0.179394
C11   C     C_R   0.315518 0.181176 0.940146 -0.053147
C12   C     C_R   0.790133 0.926552 0.192198 -0.015843
C13   C     C_R   0.224247 0.133932 0.946317 -0.149517
C14   C     C_R   0.891257 0.967703 0.200708 -0.203420
C15   C     C_R   0.674875 0.344603 0.123565 -0.425210
C16   C     C_R   0.321116 0.685134 0.856127 -0.336150
C17   C     C_R   0.745402 0.412098 0.233396 0.404698
C18   C     C_R   0.232750 0.615961 0.752840 0.355519
C19   C     C_R   0.787046 0.369599 0.294042 -0.081103
C20   C     C_R   0.169471 0.655009 0.707681 -0.088738
C21   C     C_R   0.751770 0.257790 0.243983 0.205421
C22   C     C_R   0.200285 0.765374 0.763633 0.206283
C23   C     C_R   0.312944 0.765592 0.222758 -0.101189
C24   C     C_R   0.700178 0.202719 0.788712 -0.132948
C25   C     C_R   0.678767 0.191320 0.132783 0.326991
C26   C     C_R   0.286832 0.832105 0.869532 0.291243
C27   C     C_R   0.638840 0.234705 0.073254 0.273011
C28   C     C_R   0.343763 0.790230 0.917125 0.311161
C29   C     C_R   0.876545 0.452116 0.492157 0.370514
C30   C     C_R   0.077138 0.570273 0.511641 0.351917
C31   C     C_R   0.970095 0.515783 0.591409 -0.117397
C32   C     C_R   0.984557 0.502361 0.411845 -0.118384
C33   C     C_R   0.069918 0.580064 0.602545 0.054397
C34   C     C_R   0.883682 0.443553 0.401046 0.030933
C35   C     C_R   0.226397 0.176516 0.045546 0.040552
C36   C     C_R   0.900745 0.946658 0.107377 0.045160
C37   C     C_R   0.408253 0.315342 0.130799 0.426868
C38   C     C_R   0.707859 0.849344 0.997857 0.365558
C39   C     C_R   0.176891 0.013116 0.379222 -0.104615
C40   C     C_R   0.866779 0.968225 0.675262 -0.099821
C41   C     C_R   0.267230 0.000185 0.393443 -0.114317
C42   C     C_R   0.771689 0.972937 0.655063 -0.104945
C43   C     C_R   0.316511 0.984822 0.478081 0.054408
C44   C     C_R   0.706201 0.956829 0.554581 0.078512
C45   C     C_R   0.215071 0.408595 0.913096 -0.067303
C46   C     C_R   0.775360 0.591177 0.030265 -0.054653
C47   C     C_R   0.275306 0.984268 0.549070 -0.067663
C48   C     C_R   0.736728 0.933969 0.474238 -0.132241
C49   C     C_R   0.184677 0.996661 0.534165 -0.023458
C50   C     C_R   0.831637 0.928812 0.494625 -0.048897
C51   C     C_R   0.135477 0.011033 0.449310 -0.085038
C52   C     C_R   0.896742 0.946222 0.595129 -0.066140
C53   C     C_R   0.507013 0.053450 0.585225 -0.163335
C54   C     C_R   0.510616 0.880908 0.441508 -0.163234
C55   C     C_R   0.602624 0.051089 0.603510 0.068630
C56   C     C_R   0.415361 0.885143 0.422171 0.078555
C57   C     C_R   0.606099 0.963870 0.533368 0.033970
C58   C     C_R   0.412872 0.971844 0.494908 0.022443
C59   C     C_R   0.408074 0.269257 0.033030 -0.158782
C60   C     C_R   0.698759 0.868678 0.091114 -0.081829
C61   C     C_R   0.002510 0.009010 0.115343 0.036862
C62   C     C_R   0.142163 0.115597 0.059502 0.051792
C63   C     C_R   0.316663 0.268987 0.136721 -0.175555
C64   C     C_R   0.808733 0.886258 0.005919 -0.197713
C65   C     C_R   0.060096 0.963620 0.076754 0.014051
C66   C     C_R   0.074917 0.152601 0.083982 0.032488
C67   C     C_R   0.026280 0.591240 0.310976 -0.027341
C68   C     C_R   0.947424 0.411710 0.686560 -0.026158
C69   C     C_3   0.464666 0.426027 0.841235 -0.032984
C70   C     C_3   0.512847 0.571281 0.033978 -0.048549
C71   C     C_3   0.444932 0.522937 0.863081 -0.130932
C72   C     C_3   0.530984 0.474860 0.011640 -0.203687
C73   C     C_3   0.400515 0.498468 0.935654 0.057585
C74   C     C_3   0.575548 0.498977 0.940290 0.066022
C75   C     C_3   0.418090 0.400748 0.911431 -0.178846
C76   C     C_3   0.558526 0.596320 0.963602 -0.176462
C77   C     C_R   0.305229 0.588671 0.007233 -0.121982
C78   C     C_R   0.686825 0.409879 0.935322 -0.142850
C79   C     C_R   0.945390 0.410391 0.221775 -0.133683
C80   C     C_R   0.024815 0.592187 0.782341 -0.136476
C81   C     C_R   0.219732 0.760527 0.313176 -0.084720
C82   C     C_R   0.788860 0.204053 0.695136 -0.090197
C83   C     C_R   0.062477 0.246458 0.970326 -0.138791
C84   C     C_R   0.989201 0.796016 0.086608 -0.141116
C85   C     C_R   0.039936 0.215226 0.040946 0.071316
C86   C     C_R   0.039078 0.854489 0.049094 0.079057
H1    H     H_    0.915104 0.215681 0.087559 0.110746
H2    H     H_    0.136157 0.826450 0.969389 0.119378
H3    H     H_    0.316013 0.146709 0.864559 0.186562
H4    H     H_    0.782513 0.942891 0.264088 0.168986
H5    H     H_    0.650195 0.378218 0.076161 0.187772
H6    H     H_    0.370736 0.657054 0.891468 0.181585
H7    H     H_    0.154065 0.061809 0.875806 0.162335
H8    H     H_    0.961642 0.019093 0.279610 0.137939
H9    H     H_    0.354863 0.319550 0.880619 0.140375
H10   H     H_    0.622750 0.670465 0.983326 0.146764
H11   H     H_    0.376884 0.787253 0.203644 0.150334
H12   H     H_    0.645417 0.174402 0.815698 0.171787
H13   H     H_    0.317728 0.300871 0.213477 0.168206
H14   H     H_    0.815660 0.874171 0.934125 0.164531
H15   H     H_    0.065592 0.021008 0.438416 0.105283
H16   H     H_    0.970344 0.942567 0.610882 0.138712
H17   H     H_    0.139268 0.025012 0.314041 0.121342
H18   H     H_    0.917205 0.981566 0.753051 0.125406
H19   H     H_    0.298597 0.001863 0.338667 0.139014
H20   H     H_    0.749272 0.989357 0.717791 0.140629
H21   H     H_    0.312864 0.973270 0.615208 0.173794
H22   H     H_    0.687870 0.921691 0.396448 0.164236
H23   H     H_    0.152844 0.995528 0.588638 0.130035
H24   H     H_    0.854950 0.911749 0.432628 0.124681
H25   H     H_    0.506282 0.122733 0.638952 0.154885
H26   H     H_    0.509921 0.812485 0.385231 0.129391
H27   H     H_    0.193315 0.998857 0.045448 0.183224
H28   H     H_    0.978721 0.143782 0.163685 0.157182
H29   H     H_    0.413983 0.541507 0.799424 0.211919
H30   H     H_    0.570980 0.469781 0.082778 0.178089
H31   H     H_    0.188618 0.326016 0.856972 0.094261
H32   H     H_    0.793196 0.674136 0.067695 0.100597
H33   H     H_    0.051842 0.672406 0.369955 0.135811
H34   H     H_    0.908274 0.330101 0.620506 0.143552
H35   H     H_    0.364071 0.670849 0.043194 0.128245
H36   H     H_    0.623407 0.327345 0.885672 0.140410
H37   H     H_    0.902024 0.329024 0.201753 0.105325
H38   H     H_    0.052661 0.675232 0.804943 0.128898
H39   H     H_    0.198663 0.775993 0.376377 0.125246
H40   H     H_    0.814342 0.178707 0.636073 0.116262
H41   H     H_    0.114366 0.235296 0.938032 0.109151
H42   H     H_    0.967065 0.823596 0.147884 0.108772
H43   H     H_    0.478413 0.300404 0.027221 0.156923
H44   H     H_    0.620634 0.839009 0.084792 0.211087
N1    N     N_R   0.947560 0.293820 0.002910 -0.044277
N2    N     N_R   0.052440 0.706180 0.997090 -0.044938
N3    N     N_R   0.208960 0.706170 0.152110 -0.044719
N4    N     N_R   0.791040 0.293830 0.847890 -0.040663
N5    N     N_R   0.154330 0.443160 0.946140 -0.046837
N6    N     N_R   0.845670 0.556840 0.053860 -0.042885
N7    N     N_R   0.002190 0.556820 0.208880 -0.054929
N8    N     N_R   0.997810 0.443180 0.791120 -0.056386
N9    N     N_R   0.210550 0.556810 0.002910 -0.038068
N10   N     N_R   0.789450 0.443190 0.997090 -0.039902
N11   N     N_R   0.945970 0.443180 0.152110 -0.048426
N12   N     N_R   0.054030 0.556820 0.847890 -0.054699
N13   N     N_R   0.151530 0.706170 0.208880 -0.055633
N14   N     N_R   0.848470 0.293830 0.791120 -0.048175
N15   N     N_R   0.004980 0.293810 0.946140 -0.049221
N16   N     N_R   0.995020 0.706190 0.053860 -0.044738
Ni1   Ni    Ni4+2 0.869690 0.369690 0.000000 0.243549
Ni2   Ni    Ni4+2 0.130310 0.630310 0.000000 0.237879
Ni3   Ni    Ni4+2 0.001390 0.369680 0.869810 0.233464
Ni4   Ni    Ni4+2 0.998610 0.630320 0.130190 0.238868
Br1   Br    Br    0.532791 0.436192 0.258707 -0.421255
Br2   Br    Br    0.583086 0.776020 0.859791 -0.453820
Br3   Br    Br    0.536037 0.146107 0.922321 -0.524330
Br4   Br    Br    0.445858 0.871899 0.068219 -0.497135
Br5   Br    Br    0.790310 0.563342 0.294799 -0.516343
Br6   Br    Br    0.195656 0.467290 0.677131 -0.551651
Br7   Br    Br    0.815683 0.199013 0.322601 -0.499736
Br8   Br    Br    0.118716 0.821979 0.699289 -0.552007
Br9   Br    Br    0.646521 0.046033 0.056956 -0.376031
Br10  Br    Br    0.328415 0.979638 0.952073 -0.440860
Br11  Br    Br    0.738832 0.379809 0.481656 -0.425337
Br12  Br    Br    0.216531 0.643547 0.524158 -0.470408
C87   C     C_2   0.441288 0.345084 0.733578 1.015140
O1    O     O_2   0.379480 0.249919 0.693936 -0.656710
O2    O     O_R   0.491052 0.379019 0.679480 -0.753161
H45   H     H_    0.469703 0.317060 0.608005 0.341693
C88   C     C_2   0.542716 0.648557 0.146515 1.023833
O3    O     O_2   0.612010 0.742157 0.192805 -0.689704
O4    O     O_R   0.492438 0.611542 0.198770 -0.760003
H46   H     H_    0.522261 0.669156 0.275819 0.336921

loop_
_geom_bond_atom_site_label_1
_geom_bond_atom_site_label_2
_ccdc_geom_bond_type
C16   C28   A    
C39   C51   A    
C39   H17   S    
C1    H1    S    
O2    H45   S    
C72   C74   S    
C41   C43   A    
O4    H46   S    
C3    C23   A    
C87   O1    D    
N6    N10   A    
C66   C85   S    
C75   H9    S    
C65   C86   S    
C47   C49   A    
C48   H22   S    
N5    N9    A    
N4    Ni1   S    
C52   H16   S    
C10   C66   A    
C74   C76   S    
C24   H12   S    
C49   H23   S    
C87   O2    S    
C84   C86   A    
C13   C35   A    
C14   C36   A    
C71   C76   S    
C4    C24   A    
C6    C78   A    
C24   N4    A    
C50   H24   S    
C46   H32   S    
C2    C86   A    
C69   C71   S    
C82   H40   S    
C63   H13   S    
C43   C58   S    
N16   Ni4   S    
C68   N8    A    
N13   Ni4   S    
C49   C51   A    
C25   Br9   S    
C2    N2    A    
C31   C33   A    
C26   Br10  S    
C43   C47   A    
C10   H28   S    
C81   H39   S    
C53   H25   S    
C40   C42   A    
C83   N15   A    
C28   Br4   S    
C73   C75   S    
C42   C44   A    
C84   H42   S    
C37   Br1   S    
C72   C75   S    
C11   C59   A    
N10   Ni1   S    
C38   Br2   S    
C26   C28   A    
C37   C63   A    
C6    C74   S    
C38   C64   A    
C53   C55   A    
N8    Ni3   S    
C1    C85   A    
C15   C27   A    
C54   C56   A    
N9    Ni2   S    
N3    N13   A    
C45   N5    A    
C23   N3    A    
C54   H26   S    
C9    C62   A    
N2    Ni2   S    
N12   Ni2   S    
C39   C41   A    
C21   C25   A    
N8    N12   A    
C60   H44   S    
C88   O3    D    
C71   C73   S    
C62   C66   A    
C22   Br8   S    
N5    Ni3   S    
C7    C67   A    
C29   C34   A    
C70   C72   S    
C88   O4    S    
C13   H7    S    
C46   N6    A    
C32   C34   A    
C3    C81   A    
N14   Ni3   S    
C29   Br11  S    
C40   H18   S    
C3    C56   S    
C11   H3    S    
C50   C52   A    
C27   Br3   S    
C64   H14   S    
C44   C57   S    
C70   C73   S    
C77   N9    A    
C71   H29   S    
C69   C74   S    
N3    Ni2   S    
C2    H2    S    
C42   H20   S    
C37   C59   A    
C41   H19   S    
C38   C60   A    
C20   C33   S    
C82   N14   A    
C23   H11   S    
C12   C14   A    
C8    C68   A    
C47   H21   S    
C55   C57   A    
C4    C55   S    
C70   C76   S    
N7    Ni4   S    
C10   C61   A    
C51   H15   S    
C30   Br12  S    
C69   C75   S    
C5    C77   A    
C36   C61   S    
C17   Br5   S    
C18   Br6   S    
N4    N14   A    
C7    C79   A    
C80   H38   S    
C45   H31   S    
C15   C17   A    
N7    N11   A    
C59   H43   S    
C9    C65   A    
C7    C32   S    
C6    C46   A    
C30   C33   A    
C83   C85   A    
C8    C31   S    
C21   Br7   S    
C79   H37   S    
C69   C87   S    
C20   C22   A    
C1    N1    A    
C19   C34   S    
C78   N10   A    
C12   H4    S    
N6    Ni4   S    
C53   C58   A    
C16   H6    S    
C84   N16   A    
C25   C27   A    
C72   H30   S    
C80   N12   A    
C9    H27   S    
N2    N16   A    
C29   C31   A    
C40   C52   A    
C70   C88   S    
C76   H10   S    
C30   C32   A    
C11   C13   A    
C79   N11   A    
C5    C45   A    
C48   C50   A    
C17   C19   A    
C56   C58   A    
N1    N15   A    
C35   C62   S    
C18   C20   A    
C5    C73   S    
C78   H36   S    
C83   H41   S    
C77   H35   S    
N11   Ni1   S    
C15   H5    S    
C12   C60   A    
C61   C65   A    
C81   N13   A    
C4    C82   A    
C16   C18   A    
C22   C26   A    
C8    C80   A    
N15   Ni3   S    
C35   C63   A    
N1    Ni1   S    
C36   C64   A    
C67   N7    A    
C67   H33   S    
C14   H8    S    
C68   H34   S    
C44   C48   A    
C19   C21   A    
C54   C57   A    
