data_mof_unit_40307.cif
_audit_creation_date              2013-03-05T15:43:33-0500
_audit_creation_method            fapswitch 2.2
_symmetry_space_group_name_H-M    P1
_symmetry_Int_Tables_number       1
_space_group_crystal_system       triclinic
_cell_length_a                    10.029476
_cell_length_b                    10.739562
_cell_length_c                    13.087007
_cell_angle_alpha                 89.756624
_cell_angle_beta                  69.964097
_cell_angle_gamma                 90.127834
_cell_volume                      1324.29443853

loop_
_atom_site_label
_atom_site_type_symbol
_atom_site_description
_atom_site_fract_x
_atom_site_fract_y
_atom_site_fract_z
_atom_type_partial_charge
O1    O     O_R   0.386950 0.680940 0.500020 -0.613435
O2    O     O_R   0.613110 0.680900 0.499980 -0.608298
C1    C     C_R   0.499687 0.737370 0.501419 0.931511
O3    O     O_R   0.330780 0.500000 0.653640 -0.605402
O4    O     O_R   0.556930 0.499960 0.653610 -0.624417
C2    C     C_R   0.420891 0.493739 0.704352 0.907770
Zn1   Zn    Zn3+2 0.349000 0.500030 0.500020 0.954732
Zn2   Zn    Zn3+2 0.651000 0.499970 0.499980 0.933764
O5    O     O_R   0.386890 0.319100 0.500020 -0.602555
O6    O     O_R   0.613050 0.319060 0.499980 -0.630955
O7    O     O_R   0.443070 0.500040 0.346390 -0.615838
O8    O     O_R   0.669220 0.500000 0.346360 -0.612935
C3    C     C_R   0.502003 0.262829 0.495227 0.986021
C4    C     C_R   0.578925 0.500578 0.295399 0.863556
C5    C     C_R   0.777595 0.385516 0.015052 -0.130041
H1    H     H_    0.834935 0.412758 0.157069 0.158072
H2    H     H_    0.879226 0.343794 0.972048 0.189343
C6    C     C_R   0.626498 0.485323 0.177949 -0.056763
C7    C     C_R   0.235198 0.528999 0.882401 -0.189332
C8    C     C_R   0.195741 0.540583 0.994319 -0.141180
C9    C     C_R   0.293171 0.513275 0.045385 -0.170975
C10   C     C_R   0.429649 0.466047 0.985185 0.062634
C11   C     C_R   0.456278 0.429587 0.877135 0.074196
C12   C     C_R   0.540007 0.454466 0.028509 0.052676
C13   C     C_R   0.667774 0.391115 0.970108 0.132834
C14   C     C_R   0.680433 0.332623 0.870559 -0.127391
C15   C     C_R   0.570276 0.346620 0.827080 -0.114779
C16   C     C_R   0.527478 0.508452 0.127931 -0.231160
C17   C     C_R   0.755070 0.428669 0.119941 -0.227042
C18   C     C_R   0.367812 0.478740 0.822631 -0.057809
H3    H     H_    0.437562 0.565394 0.171076 0.152197
H4    H     H_    0.163955 0.562741 0.842311 0.156176
H5    H     H_    0.257702 0.527399 0.132137 0.131297
H6    H     H_    0.092359 0.577303 0.040845 0.148626
C19   C     C_2   0.618488 0.067148 0.486663 -0.144799
C20   C     C_2   0.507536 0.131642 0.481204 -0.286062
H7    H     H_    0.710641 0.112549 0.495818 0.161075
H8    H     H_    0.419424 0.089173 0.463996 0.143346
C21   C     C_2   0.619178 0.933085 0.481436 -0.152254
C22   C     C_2   0.497582 0.869194 0.507964 -0.313620
H9    H     H_    0.721409 0.886719 0.457900 0.172578
H10   H     H_    0.393828 0.912312 0.537135 0.159692
C23   C     C_2   0.104993 0.435384 0.432292 -0.122909
N1    N     N_2   0.148270 0.498670 0.498870 -0.189251
H11   H     H_    0.182077 0.380802 0.370238 0.163900
H12   H     H_    0.074872 0.545236 0.561263 0.159209
C24   C     C_2   0.953179 0.430183 0.436309 -0.157868
N2    N     N_2   0.852610 0.498640 0.498840 -0.197706
H13   H     H_    0.927804 0.366151 0.381683 0.159905
H14   H     H_    0.877008 0.563805 0.546806 0.168435
C25   C     C_2   0.804362 0.252894 0.813105 0.361496
H15   H     H_    0.856689 0.262585 0.725881 0.056492
O9    O     O_2   0.845018 0.172618 0.861804 -0.547144
C26   C     C_2   0.561150 0.257649 0.742620 0.464151
H16   H     H_    0.656001 0.219318 0.683494 0.044588
O10   O     O_2   0.445943 0.222015 0.741477 -0.578350

loop_
_geom_bond_atom_site_label_1
_geom_bond_atom_site_label_2
_geom_bond_distance
_ccdc_geom_bond_type
O4    Zn2   1.905960 S    
C19   C21   1.441609 S    
C23   N1    1.293199 D    
Zn2   N2    2.017062 S    
C5    H2    1.080553 S    
C11   C15   1.423577 A    
C4    C6    1.455007 S    
C24   N2    1.292441 D    
Zn2   O8    1.955368 S    
C8    H6    1.082871 S    
C20   H8    1.084039 S    
O2    C1    1.284805 A    
C13   C14   1.414923 A    
C15   C26   1.490315 S    
O6    C3    1.285990 A    
C21   H9    1.086878 S    
C6    C17   1.394981 A    
O1    Zn1   1.978992 S    
C14   C25   1.487708 S    
C8    C9    1.390895 A    
Zn1   O7    1.905960 S    
C23   H11   1.084745 S    
C14   C15   1.413413 A    
O3    Zn1   1.955369 S    
C7    H4    1.083311 S    
N2    H14   1.025632 S    
C2    C18   1.462273 S    
O8    C4    1.295685 A    
C1    C22   1.418445 S    
C5    C17   1.394080 A    
C10   C12   1.411402 A    
C10   C11   1.403775 A    
O4    C2    1.298232 A    
Zn2   O6    1.978992 S    
O7    C4    1.295683 A    
C26   O10   1.221357 D    
C5    C13   1.416571 A    
O3    C2    1.293316 A    
C9    H5    1.078656 S    
C25   O9    1.220944 D    
C25   H15   1.085141 S    
C11   C18   1.416770 A    
C12   C16   1.392702 A    
C6    C16   1.386233 A    
C12   C13   1.423481 A    
C3    C20   1.420309 S    
C24   H13   1.084812 S    
C21   C22   1.335203 D    
Zn1   O5    1.980754 S    
O5    C3    1.286814 A    
C26   H16   1.083164 S    
C19   H7    1.086596 S    
H1    C17   1.083283 S    
C9    C10   1.420954 A    
C7    C18   1.402193 A    
C23   C24   1.506314 S    
Zn1   N1    2.018443 S    
C16   H3    1.078208 S    
O2    Zn2   1.980751 S    
C7    C8    1.386346 A    
N1    H12   1.025656 S    
C22   H10   1.083719 S    
O1    C1    1.287366 A    
C19   C20   1.334404 D    
