data_mof_unit_11153.cif
_audit_creation_date              2012-10-26T21:14:48-0400
_audit_creation_method            fapswitch 2.2
_symmetry_space_group_name_H-M    P1
_symmetry_Int_Tables_number       1
_space_group_crystal_system       triclinic
_cell_length_a                    15.001883
_cell_length_b                    10.946474
_cell_length_c                    13.946465
_cell_angle_alpha                 87.671269
_cell_angle_beta                  90.70981
_cell_angle_gamma                 86.143817
_cell_volume                      2282.9217927

loop_
_atom_site_label
_atom_site_type_symbol
_atom_type_description
_atom_site_fract_x
_atom_site_fract_y
_atom_site_fract_z
_atom_type_partial_charge
C1    C     C_R   0.496865 0.262734 0.501714 0.621569
C2    C     C_R   0.612912 0.854710 0.637895 -0.143732
C3    C     C_R   0.418803 0.172246 0.259064 -0.086459
C4    C     C_R   0.591792 0.822125 0.734139 -0.083572
C5    C     C_R   0.357621 0.241425 0.197114 0.367526
C6    C     C_R   0.655801 0.751246 0.791497 0.385639
C7    C     C_R   0.271731 0.275950 0.227923 0.381495
C8    C     C_R   0.739801 0.717385 0.755124 0.426794
C9    C     C_R   0.463533 0.944712 0.419806 -0.031054
C10   C     C_R   0.537376 0.054775 0.579138 0.040640
C11   C     C_R   0.507295 0.871420 0.494487 0.057142
C12   C     C_R   0.502990 0.737214 0.498114 0.575892
C13   C     C_R   0.493365 0.128343 0.504471 0.087507
C14   C     C_R   0.548633 0.927469 0.571371 -0.001383
C15   C     C_R   0.453839 0.072238 0.426099 -0.014847
C16   C     C_R   0.329164 0.503859 0.499767 0.565107
C17   C     C_R   0.670993 0.495893 0.499981 0.615768
C18   C     C_R   0.566012 0.435795 0.798416 0.154055
C19   C     C_R   0.431249 0.560549 0.202329 0.173128
C20   C     C_R   0.432757 0.566337 0.790423 0.141769
C21   C     C_R   0.571540 0.445762 0.208212 0.129273
C22   C     C_R   0.433388 0.576387 0.893275 -0.008800
C23   C     C_R   0.062060 0.283103 0.566505 0.036494
C24   C     C_R   0.573672 0.448187 0.105065 -0.039204
C25   C     C_R   0.500438 0.507271 0.948273 0.074643
C26   C     C_R   0.502247 0.509239 0.051201 0.068877
C27   C     C_R   0.563869 0.430921 0.901066 -0.000334
C28   C     C_R   0.434863 0.575493 0.099969 0.008874
C29   C     C_R   0.369885 0.653126 0.943569 0.016612
C30   C     C_R   0.643148 0.387282 0.053199 0.039921
C31   C     C_R   0.372882 0.655107 0.044921 0.024004
C32   C     C_R   0.625097 0.354154 0.958812 0.069830
C33   C     C_R   0.807757 0.581496 0.445887 0.406156
C34   C     C_R   0.941602 0.672240 0.381632 0.011285
C35   C     C_R   0.194525 0.401227 0.538796 0.414995
C36   C     C_R   0.768374 0.487312 0.496039 0.012435
C37   C     C_R   0.232359 0.504386 0.500195 -0.033698
C38   C     C_R   0.819572 0.380900 0.528532 -0.010125
C39   C     C_R   0.178774 0.606677 0.465753 -0.025225
C40   C     C_R   0.914208 0.375883 0.519576 0.010615
C41   C     C_R   0.087292 0.592382 0.446102 0.052328
C42   C     C_R   0.954288 0.480920 0.480697 -0.003272
C43   C     C_R   0.047775 0.487489 0.486018 -0.002630
C44   C     C_R   0.900770 0.579229 0.435715 0.068438
C45   C     C_R   0.245073 0.240985 0.319756 0.392301
C46   C     C_R   0.101542 0.391113 0.533711 0.077854
C47   C     C_R   0.970604 0.270792 0.548892 -0.021207
C48   C     C_R   0.035201 0.676735 0.384755 0.018707
C49   C     C_2   0.428340 0.891920 0.332459 0.293148
C50   C     C_2   0.571152 0.107102 0.667560 0.228472
C51   C     C_2   0.644511 0.381253 0.750341 0.237514
C52   C     C_2   0.345610 0.592580 0.247229 0.295592
C53   C     C_2   0.354683 0.619074 0.734640 0.283539
C54   C     C_2   0.643873 0.376036 0.263686 0.311233
C55   C     C_2   0.303024 0.740766 0.893286 0.255294
C56   C     C_R   0.761938 0.755485 0.662381 0.388127
C57   C     C_2   0.738540 0.389870 0.083873 0.339029
C58   C     C_2   0.319021 0.755429 0.090254 0.317047
C59   C     C_2   0.654622 0.228055 0.929795 0.375978
C60   C     C_2   0.773390 0.279241 0.574993 0.276813
C61   C     C_2   0.216109 0.729709 0.468407 0.330290
C62   C     C_2   0.938542 0.144896 0.552419 0.233242
C63   C     C_2   0.078067 0.757732 0.312856 0.309059
C64   C     C_2   0.115065 0.179237 0.616160 0.379135
C65   C     C_2   0.888781 0.758883 0.314498 0.372650
C66   C     C_2   0.506351 0.124069 0.222531 0.407004
C67   C     C_R   0.305249 0.175170 0.382777 0.362317
C68   C     C_2   0.504992 0.864883 0.775154 0.334293
C69   C     C_R   0.699155 0.824320 0.604251 0.370668
C70   C     C_R   0.393365 0.144609 0.355067 -0.145013
Cu1   Cu    Cu3+1 0.500010 0.499980 0.597420 1.071156
Cu2   Cu    Cu3+1 0.499990 0.500020 0.402580 1.103475
F1    F     F_    0.753573 0.678086 0.411228 -0.539152
F2    F     F_    0.637457 0.714855 0.882957 -0.530147
F3    F     F_    0.250706 0.311896 0.580970 -0.538560
F4    F     F_    0.212917 0.339921 0.167027 -0.518935
F5    F     F_    0.800929 0.649980 0.811129 -0.476989
F6    F     F_    0.159767 0.268103 0.346763 -0.562913
F7    F     F_    0.845126 0.727358 0.629293 -0.549824
F8    F     F_    0.276315 0.133532 0.469025 -0.546977
F9    F     F_    0.723349 0.866586 0.516196 -0.504759
F10   F     F_    0.379891 0.273640 0.105913 -0.541565
H1    H     H_    0.357777 0.906346 0.314285 0.176479
H2    H     H_    0.634394 0.195048 0.861420 0.114351
H3    H     H_    0.797311 0.238870 0.643676 0.129510
H4    H     H_    0.287587 0.738537 0.465617 0.144335
H5    H     H_    0.956678 0.081445 0.612385 0.128874
H6    H     H_    0.049470 0.849638 0.295303 0.134343
H7    H     H_    0.121606 0.090504 0.583989 0.174291
H8    H     H_    0.895582 0.856726 0.317267 0.150942
H9    H     H_    0.553954 0.072322 0.270146 0.176725
H10   H     H_    0.450712 0.902761 0.728642 0.161873
H11   H     H_    0.641906 0.097066 0.685612 0.114947
H12   H     H_    0.635625 0.324312 0.690534 0.149640
H13   H     H_    0.288254 0.541096 0.231756 0.152677
H14   H     H_    0.291443 0.577020 0.741674 0.154436
H15   H     H_    0.705533 0.418209 0.278910 0.114221
H16   H     H_    0.324591 0.812922 0.845302 0.187442
H17   H     H_    0.757654 0.454555 0.135745 0.112117
H18   H     H_    0.246932 0.753251 0.093732 0.187222
N1    N     N_R   0.499960 0.499900 0.743810 -0.266399
N2    N     N_R   0.500040 0.500100 0.256190 -0.258555
O1    O     O_R   0.500000 0.319630 0.582270 -0.466726
O2    O     O_2   0.518825 0.152901 0.724407 -0.482787
O3    O     O_2   0.719950 0.400592 0.776991 -0.461737
O4    O     O_2   0.336590 0.680981 0.297036 -0.485202
O5    O     O_2   0.358316 0.712267 0.684307 -0.527216
O6    O     O_2   0.636043 0.271246 0.293187 -0.459537
O7    O     O_2   0.223198 0.732276 0.905630 -0.442940
O8    O     O_2   0.797921 0.327327 0.046666 -0.354741
O9    O     O_2   0.355208 0.842960 0.120463 -0.402442
O10   O     O_2   0.696672 0.155532 0.984962 -0.360647
O11   O     O_2   0.710259 0.236960 0.534933 -0.490027
O12   O     O_R   0.500000 0.680370 0.417730 -0.426953
O13   O     O_2   0.167870 0.821886 0.480913 -0.462567
O14   O     O_2   0.894905 0.109580 0.485710 -0.388208
O15   O     O_2   0.144236 0.720394 0.270050 -0.463209
O16   O     O_2   0.148061 0.191231 0.695406 -0.369461
O17   O     O_2   0.840214 0.720684 0.253176 -0.387875
O18   O     O_2   0.526639 0.140289 0.138685 -0.357509
O19   O     O_2   0.493853 0.862233 0.861747 -0.402979
O20   O     O_R   0.499990 0.319660 0.417730 -0.499247
O21   O     O_R   0.500010 0.680340 0.582270 -0.498419
O22   O     O_R   0.370260 0.499960 0.582280 -0.463233
O23   O     O_R   0.629740 0.500040 0.417720 -0.476255
O24   O     O_R   0.370250 0.499990 0.417740 -0.525487
O25   O     O_R   0.629750 0.500010 0.582260 -0.540661
O26   O     O_2   0.479370 0.842284 0.276153 -0.385779

loop_
_geom_bond_atom_site_label_1
_geom_bond_atom_site_label_2
_ccdc_geom_bond_type
C40   C47   A    
C38   C40   A    
C50   O2    D    
C22   C29   A    
C63   H6    S    
C8    C56   A    
C47   C62   S    
C39   C41   A    
C62   O14   D    
C35   F3    S    
C56   F7    S    
C7    C45   A    
C31   C58   S    
Cu1   O21   S    
C35   C37   A    
C24   C26   A    
C21   C54   S    
C63   O15   D    
C11   C14   A    
C57   H17   S    
C30   C57   S    
Cu2   O12   S    
C33   C36   A    
C64   O16   D    
C52   H13   S    
C49   O26   D    
C1    O20   A    
C19   C52   S    
C58   H18   S    
C22   C25   A    
C45   C67   A    
C54   H15   S    
C45   F6    S    
C17   C36   S    
C2    C69   A    
C1    O1    A    
C19   N2    A    
C16   C37   S    
C40   C42   A    
Cu1   N1    S    
C52   O4    D    
C23   C46   A    
C66   O18   D    
C55   O7    D    
C53   H14   S    
C41   C43   A    
Cu1   O25   S    
C60   O11   D    
C42   C44   A    
C64   H7    S    
C34   C65   S    
C18   C51   S    
C6    F2    S    
C12   O12   A    
C65   H8    S    
C39   C61   S    
C23   C47   A    
C67   F8    S    
C58   O9    D    
Cu1   O22   S    
C3    C70   A    
C34   C44   A    
C59   H2    S    
C4    C6    A    
C10   C14   A    
C5    C7    A    
C17   O25   A    
C48   C63   S    
C6    C8    A    
C20   N1    A    
C29   C55   S    
C25   C26   A    
Cu2   O24   S    
C18   N1    A    
C2    C4    A    
C61   O13   D    
C53   O5    D    
C57   O8    D    
C51   O3    D    
C59   O10   D    
C65   O17   D    
C9    C49   S    
C19   C28   A    
C9    C11   A    
C7    F4    S    
C38   C60   S    
C21   N2    A    
C33   F1    S    
C23   C64   S    
C20   C22   A    
C13   C15   A    
C8    F5    S    
C3    C66   S    
C34   C48   A    
C42   C43   A    
C10   C50   S    
C4    C68   S    
C15   C70   S    
Cu1   O1    S    
Cu2   O20   S    
C27   C32   A    
C33   C44   A    
C28   C31   A    
C18   C27   A    
C20   C53   S    
C3    C5    A    
C10   C13   A    
C68   O19   D    
C60   H3    S    
C50   H11   S    
C66   H9    S    
C25   C27   A    
C62   H5    S    
C26   C28   A    
C54   O6    D    
Cu2   O23   S    
C67   C70   A    
C49   H1    S    
C36   C38   A    
C9    C15   A    
Cu1   Cu2   S    
C37   C39   A    
C30   C32   A    
C5    F10   S    
C17   O23   A    
C12   O21   A    
Cu2   N2    S    
C55   H16   S    
C68   H10   S    
C41   C48   A    
C16   O22   A    
C2    C14   S    
C43   C46   A    
C24   C30   A    
C69   F9    S    
C61   H4    S    
C51   H12   S    
C1    C13   S    
C29   C31   A    
C56   C69   A    
C21   C24   A    
C32   C59   S    
C35   C46   A    
C16   O24   A    
C11   C12   S    
