data_mof_unit_64287.cif
_audit_creation_date              2012-12-10T20:11:19-0500
_audit_creation_method            fapswitch 2.2
_symmetry_space_group_name_H-M    P1
_symmetry_Int_Tables_number       1
_space_group_crystal_system       triclinic
_cell_length_a                    41.443042
_cell_length_b                    35.528329
_cell_length_c                    21.765246
_cell_angle_alpha                 90.016168
_cell_angle_beta                  121.036786
_cell_angle_gamma                 89.956385
_cell_volume                      27459.1944182

loop_
_atom_site_label
_atom_site_type_symbol
_atom_type_description
_atom_site_fract_x
_atom_site_fract_y
_atom_site_fract_z
_atom_type_partial_charge
C1    C     C_R   0.426565 0.499994 0.927095 0.992842
C2    C     C_R   0.826906 0.472316 0.291544 0.413019
C3    C     C_R   0.021576 0.673638 0.565065 0.355024
C4    C     C_R   0.478536 0.173681 0.435088 0.354966
C5    C     C_R   0.524543 0.173412 0.565243 0.354446
C6    C     C_R   0.976377 0.633864 0.435312 0.365509
C7    C     C_R   0.022227 0.634052 0.564470 0.365043
C8    C     C_R   0.477834 0.134098 0.435634 0.365182
C9    C     C_R   0.523675 0.133816 0.564796 0.365366
C10   C     C_R   0.999640 0.614580 0.499858 -0.294757
C11   C     C_R   0.500393 0.114580 0.500223 -0.294751
C12   C     C_R   0.998422 0.693187 0.499942 -0.218036
C13   C     C_R   0.673177 0.972671 0.708935 0.413202
C14   C     C_R   0.501710 0.193183 0.500237 -0.218045
C15   C     C_1   0.998866 0.733374 0.499556 0.025946
C16   C     C_1   0.501304 0.233372 0.500667 0.025977
C17   C     C_R   0.000058 0.385561 0.500080 -0.205026
C18   C     C_R   0.500059 0.885561 0.500081 -0.205031
C19   C     C_1   0.500925 0.266973 0.500843 0.231786
C20   C     C_1   0.999255 0.766974 0.499379 0.231772
C21   C     C_R   0.472944 0.326124 0.440494 0.495461
C22   C     C_R   0.527802 0.326387 0.561090 0.495114
C23   C     C_R   0.972344 0.826385 0.439047 0.495034
C24   C     C_R   0.326909 0.972335 0.291465 0.413083
C25   C     C_R   0.027198 0.826127 0.559649 0.495537
C26   C     C_R   0.472488 0.365629 0.439660 0.285858
C27   C     C_R   0.527818 0.365890 0.561512 0.286520
C28   C     C_R   0.972288 0.865887 0.438573 0.286568
C29   C     C_R   0.027614 0.865634 0.560432 0.285814
C30   C     C_R   0.500084 0.385404 0.500435 -0.298643
C31   C     C_R   0.999997 0.885404 0.499631 -0.298644
C32   C     C_R   0.500510 0.306971 0.500861 -0.241788
C33   C     C_R   0.999650 0.806971 0.499306 -0.241774
C34   C     C_R   0.977220 0.326450 0.520216 0.311170
C35   C     C_R   0.133947 0.471885 0.668261 0.376940
C36   C     C_R   0.022076 0.326134 0.478947 0.310011
C37   C     C_R   0.477221 0.826450 0.520219 0.311174
C38   C     C_R   0.522076 0.826134 0.478947 0.310012
C39   C     C_R   0.976895 0.366219 0.519272 0.266586
C40   C     C_R   0.021891 0.365905 0.477997 0.263130
C41   C     C_R   0.476897 0.866219 0.519275 0.266558
C42   C     C_R   0.521891 0.865905 0.477997 0.263161
C43   C     C_1   0.499325 0.733365 0.499297 0.274383
C44   C     C_1   0.999324 0.233365 0.499297 0.274382
C45   C     C_R   0.499887 0.614751 0.500135 -0.530262
C46   C     C_R   0.866139 0.471601 0.332230 0.374580
C47   C     C_R   0.999887 0.114751 0.500135 -0.530261
C48   C     C_2   0.528063 0.521870 0.744012 0.421193
C49   C     C_2   0.471921 0.521906 0.255991 0.421366
C50   C     C_2   0.028062 0.021872 0.744011 0.421232
C51   C     C_2   0.971921 0.021906 0.255992 0.421328
C52   C     C_2   0.497675 0.512279 0.681073 0.389691
C53   C     C_2   0.502315 0.512302 0.318935 0.389510
C54   C     C_2   0.997674 0.012279 0.681073 0.389547
C55   C     C_2   0.002315 0.012302 0.318935 0.389653
C56   C     C_2   0.524574 0.525230 0.807759 0.368742
C57   C     C_R   0.633950 0.971865 0.668193 0.376852
C58   C     C_2   0.475415 0.525266 0.192250 0.368778
C59   C     C_2   0.024573 0.025231 0.807759 0.368779
C60   C     C_2   0.975415 0.025266 0.192250 0.368743
C61   C     C_R   0.366142 0.971622 0.332159 0.374675
C62   C     C_R   0.114345 0.498869 0.613361 -0.331494
C63   C     C_R   0.885670 0.498810 0.386671 -0.331735
C64   C     C_R   0.614343 0.998881 0.613360 -0.331244
C65   C     C_R   0.573436 0.499968 0.072908 0.992663
C66   C     C_R   0.385668 0.998798 0.386670 -0.331990
C67   C     C_R   0.134010 0.525566 0.597380 0.304368
C68   C     C_R   0.865943 0.525653 0.402276 0.304008
C69   C     C_R   0.634001 0.025618 0.597446 0.304182
C70   C     C_R   0.365935 0.025600 0.402345 0.304183
C71   C     C_R   0.173706 0.527132 0.640180 0.350795
C72   C     C_R   0.826240 0.527132 0.359509 0.350709
C73   C     C_R   0.673698 0.027185 0.640243 0.350700
C74   C     C_R   0.326232 0.027078 0.359575 0.350800
C75   C     C_R   0.192893 0.500264 0.694347 -0.208515
C76   C     C_R   0.926564 0.999994 0.927092 0.992775
C77   C     C_R   0.807118 0.500042 0.305793 -0.208458
C78   C     C_R   0.692891 0.000281 0.694336 -0.208491
C79   C     C_R   0.307115 0.000025 0.305781 -0.208481
C80   C     C_1   0.233067 0.501447 0.734665 0.127656
C81   C     C_1   0.766940 0.501190 0.265449 0.127068
C82   C     C_1   0.733065 0.001465 0.734647 0.127473
C83   C     C_1   0.266938 0.001172 0.265430 0.127248
C84   C     C_1   0.266696 0.501666 0.768528 0.149207
C85   C     C_1   0.733311 0.501413 0.231571 0.149094
C86   C     C_1   0.766694 0.001681 0.768508 0.148969
C87   C     C_R   0.073436 0.999968 0.072905 0.992731
C88   C     C_1   0.233309 0.001398 0.231550 0.149331
C89   C     C_R   0.325400 0.471661 0.858314 0.375830
C90   C     C_R   0.674612 0.471458 0.141799 0.375744
C91   C     C_R   0.825394 0.971664 0.858281 0.375764
C92   C     C_R   0.174607 0.971455 0.141764 0.375812
C93   C     C_R   0.501428 0.499727 0.882131 0.852203
C94   C     C_R   0.498578 0.499737 0.117874 0.852165
C95   C     C_R   0.001428 0.999727 0.882132 0.852182
C96   C     C_R   0.998578 0.999737 0.117874 0.852185
C97   C     C_R   0.365277 0.470365 0.896031 0.277094
C98   C     C_2   0.506540 0.497673 0.820836 0.262945
C99   C     C_R   0.634733 0.470224 0.104049 0.276989
C100  C     C_R   0.865272 0.970364 0.896003 0.277019
C101  C     C_R   0.134728 0.970225 0.104019 0.277062
C102  C     C_R   0.385278 0.500035 0.887295 -0.281095
C103  C     C_R   0.614725 0.499947 0.112732 -0.281046
C104  C     C_R   0.885278 0.000037 0.887284 -0.281066
C105  C     C_R   0.114724 0.999946 0.112720 -0.281074
C106  C     C_R   0.365704 0.529608 0.839414 0.597312
C107  C     C_R   0.634295 0.529510 0.160596 0.597208
C108  C     C_R   0.865706 0.029615 0.839412 0.597235
C109  C     C_2   0.493485 0.497703 0.179191 0.262945
C110  C     C_R   0.134298 0.029502 0.160595 0.597283
C111  C     C_R   0.326656 0.529610 0.799950 -0.283515
C112  C     C_R   0.673343 0.529452 0.200089 -0.283901
C113  C     C_R   0.826658 0.029621 0.799944 -0.283784
C114  C     C_R   0.173345 0.029441 0.200085 -0.283633
C115  C     C_R   0.306744 0.500852 0.809205 -0.074598
C116  C     C_R   0.693261 0.500642 0.190886 -0.074487
C117  C     C_R   0.806743 0.000861 0.809184 -0.074514
C118  C     C_R   0.193260 0.000633 0.190865 -0.074572
C119  C     C_R   0.499562 0.693347 0.499804 -0.411070
C120  C     C_2   0.006541 0.997673 0.820837 0.262937
C121  C     C_R   0.999561 0.193347 0.499804 -0.411070
C122  C     C_R   0.467304 0.634630 0.485968 0.520056
C123  C     C_R   0.532331 0.634825 0.514274 0.520412
C124  C     C_R   0.967304 0.134630 0.485968 0.520030
C125  C     C_R   0.032331 0.134825 0.514274 0.520437
C126  C     C_1   0.999128 0.266979 0.498782 0.255226
C127  C     C_1   0.499129 0.766979 0.498783 0.255227
C128  C     C_R   0.998977 0.307123 0.498145 -0.099577
C129  C     C_R   0.498978 0.807122 0.498146 -0.099579
C130  C     C_R   0.500015 0.426624 0.500107 1.040537
C131  C     C_2   0.993484 0.997703 0.179190 0.262950
C132  C     C_R   0.000010 0.926624 0.499913 1.040549
C133  C     C_R   0.467254 0.673796 0.485871 0.554785
C134  C     C_R   0.532055 0.674000 0.514020 0.554306
C135  C     C_R   0.967254 0.173795 0.485871 0.554720
C136  C     C_R   0.032055 0.174000 0.514020 0.554371
C137  C     C_R   0.499655 0.503209 0.618424 0.848464
C138  C     C_R   0.500341 0.503216 0.381577 0.848325
C139  C     C_R   0.999655 0.003209 0.618424 0.848239
C140  C     C_R   0.000341 0.003216 0.381577 0.848558
C141  C     C_R   0.499979 0.573447 0.500050 0.997760
C142  C     C_R   0.173175 0.472689 0.709010 0.413269
C143  C     C_R   0.999979 0.073447 0.500050 0.997761
C144  C     C_R   0.000081 0.426753 0.500061 0.980772
C145  C     C_R   0.500081 0.926753 0.500061 0.980769
C146  C     C_R   0.073263 0.499798 0.572929 0.973220
C147  C     C_R   0.926742 0.499796 0.427077 0.973925
C148  C     C_R   0.573262 0.999802 0.572929 0.973255
C149  C     C_R   0.426741 0.999792 0.427076 0.973876
C150  C     C_R   0.999993 0.573403 0.500016 1.065880
C151  C     C_R   0.500009 0.073403 0.500001 1.065859
C152  C     C_R   0.975559 0.673462 0.434914 0.354400
F1    F     F_    0.435733 0.692677 0.472342 -0.550295
F2    F     F_    0.564071 0.616703 0.527029 -0.547939
F3    F     F_    0.935703 0.116325 0.473375 -0.547763
F4    F     F_    0.064071 0.116704 0.527030 -0.547839
F5    F     F_    0.446859 0.306263 0.382626 -0.631402
F6    F     F_    0.554152 0.306784 0.619108 -0.633533
F7    F     F_    0.946014 0.806778 0.381053 -0.633628
F8    F     F_    0.053299 0.806269 0.617548 -0.631340
F9    F     F_    0.562362 0.527174 0.751171 -0.629282
F10   F     F_    0.437611 0.527210 0.248816 -0.629161
F11   F     F_    0.062361 0.027178 0.751169 -0.629251
F12   F     F_    0.563405 0.693088 0.527307 -0.551941
F13   F     F_    0.937611 0.027211 0.248818 -0.629194
F14   F     F_    0.462756 0.512810 0.672969 -0.620643
F15   F     F_    0.537237 0.512836 0.327055 -0.620854
F16   F     F_    0.962755 0.012807 0.672970 -0.620797
F17   F     F_    0.037237 0.012833 0.327054 -0.620703
F18   F     F_    0.935733 0.192677 0.472342 -0.550406
F19   F     F_    0.063404 0.193088 0.527308 -0.551832
F20   F     F_    0.384337 0.557890 0.828813 -0.599782
F21   F     F_    0.615658 0.557842 0.171150 -0.599899
F22   F     F_    0.884343 0.057899 0.828825 -0.599909
F23   F     F_    0.115664 0.057832 0.171165 -0.599771
F24   F     F_    0.435703 0.616326 0.473374 -0.547663
H1    H     H_    0.311875 0.552211 0.762222 0.222455
H2    H     H_    0.630218 0.417681 0.076173 0.359523
H3    H     H_    0.869783 0.917828 0.923909 0.359516
H4    H     H_    0.130207 0.917685 0.076116 0.359566
H5    H     H_    0.951856 0.718975 0.376912 0.385711
H6    H     H_    0.039354 0.719257 0.625292 0.383793
H7    H     H_    0.460844 0.219328 0.374903 0.383836
H8    H     H_    0.548301 0.218874 0.623297 0.385622
H9    H     H_    0.938912 0.629710 0.332443 0.403149
H10   H     H_    0.059763 0.630232 0.667370 0.403321
H11   H     H_    0.440299 0.130356 0.332726 0.403304
H12   H     H_    0.688118 0.552049 0.237797 0.222358
H13   H     H_    0.561130 0.129585 0.667663 0.403160
H14   H     H_    0.428986 0.367836 0.342051 0.403932
H15   H     H_    0.571206 0.368515 0.659206 0.403908
H16   H     H_    0.928905 0.868505 0.340867 0.403905
H17   H     H_    0.071113 0.867848 0.658037 0.403936
H18   H     H_    0.954635 0.320884 0.578887 0.365356
H19   H     H_    0.067920 0.319925 0.476135 0.368603
H20   H     H_    0.454638 0.820884 0.578892 0.365389
H21   H     H_    0.567920 0.819925 0.476133 0.368554
H22   H     H_    0.930440 0.371717 0.520155 0.361763
H23   H     H_    0.811881 0.052226 0.762226 0.222338
H24   H     H_    0.044656 0.371420 0.419707 0.363889
H25   H     H_    0.430442 0.871716 0.520161 0.361798
H26   H     H_    0.544655 0.871421 0.419705 0.363854
H27   H     H_    0.552358 0.572085 0.835268 0.378417
H28   H     H_    0.447567 0.572122 0.164707 0.378567
H29   H     H_    0.052354 0.072088 0.835263 0.378442
H30   H     H_    0.947570 0.072124 0.164710 0.378541
H31   H     H_    0.480134 0.449375 0.790664 0.370313
H32   H     H_    0.519959 0.449406 0.209400 0.370125
H33   H     H_    0.980137 0.949374 0.790667 0.370154
H34   H     H_    0.188124 0.052033 0.237802 0.222474
H35   H     H_    0.019956 0.949404 0.209397 0.370287
H36   H     H_    0.218460 0.448909 0.788096 0.362884
H37   H     H_    0.781672 0.448217 0.213020 0.362871
H38   H     H_    0.718467 0.948860 0.787954 0.362885
H39   H     H_    0.281680 0.948267 0.212872 0.362872
H40   H     H_    0.090604 0.439303 0.640744 0.329984
H41   H     H_    0.909634 0.439104 0.360094 0.328987
H42   H     H_    0.590599 0.939283 0.640634 0.329947
H43   H     H_    0.409629 0.939124 0.359979 0.329023
H44   H     H_    0.129290 0.556735 0.519843 0.358735
H45   H     H_    0.319029 0.435543 0.918291 0.364261
H46   H     H_    0.870606 0.557214 0.479339 0.358399
H47   H     H_    0.629271 0.056869 0.519993 0.358405
H48   H     H_    0.370588 0.057077 0.479497 0.358732
H49   H     H_    0.178821 0.577783 0.612418 0.360474
H50   H     H_    0.820988 0.577948 0.386468 0.359988
H51   H     H_    0.678805 0.077872 0.612618 0.359960
H52   H     H_    0.320972 0.077858 0.386678 0.360498
H53   H     H_    0.680997 0.435281 0.081879 0.364268
H54   H     H_    0.819018 0.935538 0.918240 0.364242
H55   H     H_    0.180986 0.935287 0.081824 0.364287
H56   H     H_    0.369794 0.417831 0.923962 0.359558
O1    O     O_R   0.444560 0.531280 0.944560 -0.564804
O2    O     O_R   0.944570 0.500110 0.393510 -0.617127
O3    O     O_3   0.305377 0.054872 0.367806 -0.723639
O4    O     O_R   0.555430 0.000110 0.606490 -0.617478
O5    O     O_R   0.444570 0.000110 0.393510 -0.617279
O6    O     O_R   0.000010 0.555520 0.448910 -0.575392
O7    O     O_R   0.999990 0.555520 0.551090 -0.576820
O8    O     O_R   0.500010 0.055520 0.448910 -0.576726
O9    O     O_R   0.499990 0.055520 0.551090 -0.575471
O10   O     O_R   0.444540 0.468700 0.944530 -0.575573
O11   O     O_R   0.555460 0.468700 0.055470 -0.575702
O12   O     O_R   0.944540 0.968700 0.944530 -0.575614
O13   O     O_R   0.555440 0.531280 0.055440 -0.564701
O14   O     O_R   0.055460 0.968700 0.055470 -0.575662
O15   O     O_R   0.500010 0.531280 0.909540 -0.560411
O16   O     O_R   0.499990 0.531280 0.090460 -0.560475
O17   O     O_R   0.000010 0.031280 0.909540 -0.560415
O18   O     O_R   0.999990 0.031280 0.090460 -0.560466
O19   O     O_R   0.499990 0.468700 0.909520 -0.633981
O20   O     O_R   0.500010 0.468700 0.090480 -0.634004
O21   O     O_R   0.999990 0.968700 0.909520 -0.634079
O22   O     O_R   0.000010 0.968700 0.090480 -0.633908
O23   O     O_R   0.531280 0.444560 0.531260 -0.578194
O24   O     O_R   0.944560 0.031280 0.944560 -0.564807
O25   O     O_R   0.468720 0.444560 0.468740 -0.577535
O26   O     O_R   0.031280 0.944560 0.531260 -0.577646
O27   O     O_R   0.968720 0.944560 0.468740 -0.578094
O28   O     O_R   0.531280 0.499990 0.621740 -0.579205
O29   O     O_R   0.468720 0.499990 0.378260 -0.579288
O30   O     O_R   0.031280 0.999990 0.621740 -0.579352
O31   O     O_R   0.968720 0.999990 0.378260 -0.579139
O32   O     O_R   0.468680 0.499990 0.559140 -0.576723
O33   O     O_R   0.531320 0.499990 0.440860 -0.576923
O34   O     O_R   0.968680 0.999990 0.559140 -0.576783
O35   O     O_R   0.055440 0.031280 0.055440 -0.564700
O36   O     O_R   0.031320 0.999990 0.440860 -0.576866
O37   O     O_R   0.531300 0.555420 0.531300 -0.562986
O38   O     O_R   0.468700 0.555420 0.468700 -0.562964
O39   O     O_R   0.031300 0.055420 0.531300 -0.562953
O40   O     O_R   0.968700 0.055420 0.468700 -0.562997
O41   O     O_R   0.999980 0.444660 0.448930 -0.593788
O42   O     O_R   0.000020 0.444660 0.551070 -0.590201
O43   O     O_R   0.499980 0.944660 0.448930 -0.593764
O44   O     O_R   0.500020 0.944660 0.551070 -0.590222
O45   O     O_3   0.304024 0.445528 0.868861 -0.745634
O46   O     O_R   0.055440 0.500090 0.504360 -0.570256
O47   O     O_3   0.695994 0.445270 0.131299 -0.745677
O48   O     O_3   0.804015 0.945529 0.868815 -0.745751
O49   O     O_3   0.195985 0.945270 0.131249 -0.745562
O50   O     O_3   0.385193 0.441005 0.941620 -0.713582
O51   O     O_3   0.614822 0.440876 0.058480 -0.713581
O52   O     O_3   0.885184 0.940999 0.941579 -0.713571
O53   O     O_3   0.114813 0.940883 0.058436 -0.713593
O54   O     O_3   0.952268 0.691519 0.370233 -0.722563
O55   O     O_3   0.044151 0.691870 0.629856 -0.721233
O56   O     O_3   0.455990 0.191959 0.370317 -0.721211
O57   O     O_R   0.944560 0.500090 0.495640 -0.570644
O58   O     O_3   0.547850 0.191422 0.629948 -0.722562
O59   O     O_3   0.954046 0.612950 0.373901 -0.708663
O60   O     O_3   0.045194 0.613350 0.625860 -0.708739
O61   O     O_3   0.454846 0.113445 0.374216 -0.708622
O62   O     O_3   0.545978 0.112856 0.626184 -0.708773
O63   O     O_3   0.446208 0.385555 0.380025 -0.690388
O64   O     O_3   0.553869 0.386068 0.620961 -0.690518
O65   O     O_3   0.946220 0.886060 0.379095 -0.690524
O66   O     O_3   0.053872 0.885564 0.620042 -0.690390
O67   O     O_3   0.957421 0.305716 0.543719 -0.701875
O68   O     O_R   0.555440 0.000090 0.504360 -0.570514
O69   O     O_3   0.045126 0.305073 0.463599 -0.701751
O70   O     O_3   0.457424 0.805716 0.543723 -0.701802
O71   O     O_3   0.545126 0.805074 0.463598 -0.701819
O72   O     O_3   0.953150 0.386882 0.533364 -0.729879
O73   O     O_3   0.042627 0.386232 0.456122 -0.727598
O74   O     O_3   0.453152 0.886882 0.533368 -0.729839
O75   O     O_3   0.542627 0.886232 0.456120 -0.727636
O76   O     O_3   0.540926 0.554991 0.854839 -0.735623
O77   O     O_3   0.459025 0.555026 0.145150 -0.735516
O78   O     O_3   0.040923 0.054994 0.854836 -0.735599
O79   O     O_R   0.444560 0.000090 0.495640 -0.570378
O80   O     O_3   0.959027 0.055027 0.145153 -0.735537
O81   O     O_3   0.496618 0.464893 0.780269 -0.740765
O82   O     O_3   0.503452 0.464927 0.219781 -0.741115
O83   O     O_3   0.996621 0.964893 0.780272 -0.741090
O84   O     O_3   0.003449 0.964926 0.219778 -0.740789
O85   O     O_3   0.190839 0.445627 0.761986 -0.645279
O86   O     O_3   0.809307 0.445029 0.239032 -0.645610
O87   O     O_3   0.690847 0.945575 0.761840 -0.645375
O88   O     O_3   0.309316 0.945084 0.238879 -0.645513
O89   O     O_3   0.115979 0.443620 0.683018 -0.647295
O90   O     O_R   0.055430 0.500110 0.606490 -0.617628
O91   O     O_3   0.884183 0.443202 0.317882 -0.649061
O92   O     O_3   0.615987 0.943569 0.682892 -0.647374
O93   O     O_3   0.384191 0.943255 0.317749 -0.648975
O94   O     O_3   0.113685 0.549854 0.540509 -0.722306
O95   O     O_3   0.886217 0.550159 0.458759 -0.723726
O96   O     O_3   0.613669 0.049942 0.540641 -0.723560
O97   O     O_3   0.386201 0.050068 0.458898 -0.722475
O98   O     O_3   0.194486 0.554839 0.631610 -0.723491
O99   O     O_3   0.805391 0.554960 0.367667 -0.724048
O100  O     O_3   0.694473 0.054925 0.631742 -0.723901
Zn1   Zn    Zn3+2 0.500000 0.541780 0.000000 1.184302
Zn2   Zn    Zn3+2 1.000000 0.500080 0.568210 1.114840
Zn3   Zn    Zn3+2 0.500000 0.000080 0.431790 1.111319
Zn4   Zn    Zn3+2 0.500000 0.000080 0.568210 1.115740
Zn5   Zn    Zn3+2 0.000000 0.041780 0.000000 1.184303
Zn6   Zn    Zn3+2 0.500000 0.458200 0.000000 1.091672
Zn7   Zn    Zn3+2 0.000000 0.958200 0.000000 1.091672
Zn8   Zn    Zn3+2 0.541790 0.499990 0.541780 1.178134
Zn9   Zn    Zn3+2 0.458210 0.499990 0.458220 1.178982
Zn10  Zn    Zn3+2 0.041790 0.999990 0.541780 1.178572
Zn11  Zn    Zn3+2 0.958210 0.999990 0.458220 1.178540
Zn12  Zn    Zn3+2 0.000000 0.500080 0.431790 1.112211

loop_
_geom_bond_atom_site_label_1
_geom_bond_atom_site_label_2
_ccdc_geom_bond_type
C99   C103  A    
C21   C26   A    
C24   C61   A    
C107  C112  A    
H49   O98   S    
C105  C110  A    
C70   O97   S    
C50   C59   S    
C145  O43   A    
C152  O54   S    
C8    O61   S    
C57   O92   S    
C47   C143  S    
C44   C121  S    
C100  C104  A    
C144  O42   A    
C17   C39   A    
O11   Zn6   S    
C1    O1    A    
C140  O31   A    
C70   C74   A    
C149  O5    A    
C90   C116  A    
C91   C100  A    
C95   O21   A    
H17   O66   S    
C83   C88   T    
C68   O95   S    
C19   C32   S    
C28   C31   A    
C25   C29   A    
C15   C20   T    
H3    O52   S    
C43   C119  S    
C123  C134  A    
O9    Zn4   S    
O23   Zn8   S    
C66   C149  S    
O16   Zn1   S    
C43   C127  T    
H20   O70   S    
C132  O26   A    
H54   O48   S    
C90   O47   S    
C108  C113  A    
C7    O60   S    
C78   C82   S    
C138  O29   A    
O4    Zn4   S    
C100  O52   S    
C52   C137  S    
C113  H23   S    
C101  O53   S    
C141  O38   A    
C121  C135  A    
O43   Zn3   S    
H5    O54   S    
C20   C33   S    
H7    O56   S    
C148  O68   A    
O12   Zn7   S    
C74   C79   A    
C95   C120  S    
O2    Zn12  S    
C147  O57   A    
C124  C135  A    
C106  F20   S    
C85   C116  S    
O38   Zn9   S    
H47   O96   S    
C94   O20   A    
C60   O80   S    
H21   O71   S    
C94   C109  S    
C42   O75   S    
C96   O22   A    
C66   C70   A    
C122  F24   S    
C37   C129  A    
C86   C117  S    
C51   C55   D    
C4    C14   A    
O33   Zn8   S    
C137  O32   A    
H18   O67   S    
C48   C52   D    
C150  O7    A    
C111  H1    S    
H32   O82   S    
C103  C107  A    
H37   O86   S    
H39   O88   S    
C123  F2    S    
C89   C115  A    
C59   C120  D    
C109  O82   S    
O41   Zn12  S    
C12   C152  A    
H9    O59   S    
H10   O60   S    
H29   O78   S    
C36   O69   S    
C45   C123  A    
C151  O8    A    
C72   C77   A    
C22   C32   A    
C17   C144  S    
C143  O39   A    
H25   O74   S    
C18   C42   A    
C73   O100  S    
C49   C53   D    
H35   O84   S    
C13   C57   A    
H41   O91   S    
C41   O74   S    
O32   Zn9   S    
C135  F18   S    
C61   O93   S    
H4    O53   S    
C92   C118  A    
C93   O15   A    
H6    O55   S    
C23   F7    S    
C71   O98   S    
C110  C114  A    
C64   C148  S    
C36   C128  A    
O20   Zn6   S    
C63   C147  S    
C106  C111  A    
O25   Zn9   S    
O34   Zn11  S    
C119  C134  A    
O44   Zn4   S    
O27   Zn11  S    
C34   C39   A    
H42   O92   S    
C37   O70   S    
C23   C28   A    
H53   O47   S    
C2    O86   S    
C39   O72   S    
O6    Zn12  S    
C127  C129  S    
C5    C9    A    
C151  O9    A    
H50   O99   S    
C24   C79   A    
C54   C139  S    
O28   Zn8   S    
C131  O84   S    
C89   O45   S    
C64   C69   A    
H38   O87   S    
C96   C131  S    
C113  C117  A    
C11   C151  S    
C26   C30   A    
C51   F13   S    
C65   C103  S    
C88   C118  S    
O19   Zn6   S    
C90   C99   A    
C112  C116  A    
C63   C68   A    
C126  C128  S    
H40   O89   S    
H55   O49   S    
H26   O75   S    
O8    Zn3   S    
C54   F16   S    
C138  O33   A    
O36   Zn10  S    
C46   C63   A    
C6    C152  A    
O79   Zn4   S    
O26   Zn10  S    
C37   C41   A    
C76   O24   A    
C1    O10   A    
C35   C142  A    
C147  O2    A    
C34   C128  A    
C62   C146  S    
C124  F3    S    
C51   C60   S    
C74   O3    S    
C146  O46   A    
C94   O16   A    
C81   C85   T    
C87   O35   A    
C76   C104  S    
C7    C10   A    
C146  O90   A    
C96   O18   A    
C80   C84   T    
C18   C145  S    
C5    O58   S    
C3    O55   S    
C65   O11   A    
O37   Zn8   S    
C38   O71   S    
C50   C54   D    
C57   C64   A    
C3    C7    A    
O22   Zn7   S    
O57   Zn2   S    
C149  O79   A    
H52   O3    S    
C92   O49   S    
C13   C78   A    
C108  F22   S    
C140  O36   A    
C69   C73   A    
C141  O37   A    
C97   C102  A    
H11   O61   S    
C125  F4    S    
O29   Zn9   S    
C130  O23   A    
C46   O91   S    
C45   C141  S    
H44   O94   S    
C60   C131  D    
C47   C125  A    
C53   C138  S    
C145  O44   A    
C48   F9    S    
C22   F6    S    
C30   C130  S    
O35   Zn5   S    
C55   C140  S    
O14   Zn7   S    
C17   C40   A    
C38   C129  A    
C29   O66   S    
C12   C15   S    
C77   C81   S    
H2    O51   S    
O42   Zn2   S    
C25   F8    S    
H36   O85   S    
C4    O56   S    
C5    C14   A    
C92   C101  A    
C125  C136  A    
H28   O77   S    
C104  C108  A    
C6    O59   S    
H13   O62   S    
C65   O13   A    
C50   F11   S    
O68   Zn3   S    
C6    C10   A    
C59   O78   S    
O1    Zn1   S    
O15   Zn1   S    
C45   C122  A    
O30   Zn10  S    
C2    C77   A    
C82   C86   T    
C10   C150  S    
C79   C83   S    
C114  H34   S    
C47   C124  A    
C16   C19   T    
C134  F12   S    
C98   O81   S    
C67   C71   A    
C121  C136  A    
C29   C31   A    
C144  O41   A    
H56   O50   S    
C1    C102  S    
C55   F17   S    
C69   O96   S    
O24   Zn5   S    
C58   C109  D    
H45   O45   S    
C13   O87   S    
C56   C98   D    
C27   O64   S    
C4    C8    A    
C95   O17   A    
O21   Zn7   S    
H48   O97   S    
C110  F23   S    
C2    C46   A    
O7    Zn2   S    
C44   C126  T    
C119  C133  A    
C62   C67   A    
C133  F1    S    
C76   O12   A    
C38   C42   A    
O13   Zn1   S    
C72   O99   S    
O5    Zn3   S    
C3    C12   A    
C52   F14   S    
C61   C66   A    
C53   F15   S    
O31   Zn11  S    
C34   O67   S    
C150  O6    A    
O40   Zn11  S    
C73   C78   A    
C136  F19   S    
O46   Zn12  S    
C75   C80   S    
C87   C105  S    
C68   C72   A    
C67   O94   S    
H14   O63   S    
C27   C30   A    
H24   O73   S    
C58   O77   S    
C9    O62   S    
C132  O27   A    
H30   O80   S    
C101  C105  A    
O90   Zn2   S    
C21   C32   A    
C143  O40   A    
H43   O93   S    
C120  O83   S    
C36   C40   A    
C56   O76   S    
C18   C41   A    
C107  F21   S    
C23   C33   A    
H22   O72   S    
C49   C58   S    
C89   C97   A    
C148  O4    A    
C122  C133  A    
C31   C132  S    
C75   C142  A    
H51   O100  S    
O18   Zn5   S    
H27   O76   S    
C9    C11   A    
C49   F10   S    
C114  C118  A    
O39   Zn10  S    
H15   O64   S    
C139  O34   A    
C91   C117  A    
C84   C115  S    
O17   Zn5   S    
C14   C16   S    
C26   O63   S    
C35   O89   S    
C40   O73   S    
H8    O58   S    
C28   O65   S    
C130  O25   A    
C87   O14   A    
H46   O95   S    
C137  O28   A    
H16   O65   S    
C48   C56   S    
H31   O81   S    
C142  O85   S    
C21   F5    S    
C112  H12   S    
C22   C27   A    
O10   Zn6   S    
C24   O88   S    
C97   O50   S    
C71   C75   A    
H19   O69   S    
C8    C11   A    
C102  C106  A    
C35   C62   A    
C91   O48   S    
C139  O30   A    
C25   C33   A    
C111  C115  A    
C93   C98   S    
H33   O83   S    
C93   O19   A    
C99   O51   S    
