data_mof_unit_30527.cif
_audit_creation_date              2013-03-05T15:59:53-0500
_audit_creation_method            fapswitch 2.2
_symmetry_space_group_name_H-M    P1
_symmetry_Int_Tables_number       1
_space_group_crystal_system       triclinic
_cell_length_a                    6.96043
_cell_length_b                    21.298133
_cell_length_c                    23.645468
_cell_angle_alpha                 89.99993
_cell_angle_beta                  90.000131
_cell_angle_gamma                 90.000374
_cell_volume                      3505.30263306

loop_
_atom_site_label
_atom_site_type_symbol
_atom_site_description
_atom_site_fract_x
_atom_site_fract_y
_atom_site_fract_z
_atom_type_partial_charge
O1    O     O_R   0.615270 0.806540 0.192260 -0.584699
O2    O     O_R   0.384730 0.193460 0.807740 -0.584692
O3    O     O_R   0.384730 0.193460 0.692260 -0.584704
O4    O     O_R   0.615270 0.806540 0.307740 -0.584698
O5    O     O_R   0.115270 0.693460 0.307740 -0.584698
O6    O     O_R   0.884730 0.306540 0.692260 -0.584689
O7    O     O_R   0.884730 0.306540 0.807740 -0.584702
O8    O     O_R   0.115270 0.693460 0.192260 -0.584696
O9    O     O_R   0.285500 0.813970 0.307340 -0.582106
O10   O     O_R   0.714500 0.186030 0.692660 -0.582104
O11   O     O_R   0.714500 0.186030 0.807340 -0.582108
O12   O     O_R   0.285500 0.813970 0.192660 -0.582104
O13   O     O_R   0.785500 0.686030 0.192660 -0.582106
O14   O     O_R   0.214500 0.313970 0.807340 -0.582103
O15   O     O_R   0.214500 0.313970 0.692660 -0.582108
O16   O     O_R   0.785500 0.686030 0.307340 -0.582104
C1    C     C_R   0.453959 0.829074 0.326732 0.976502
C2    C     C_R   0.546041 0.170926 0.673268 0.976499
C3    C     C_R   0.546042 0.170926 0.826732 0.976496
C4    C     C_R   0.453958 0.829074 0.173268 0.976498
C5    C     C_R   0.953958 0.670926 0.173268 0.976502
C6    C     C_R   0.046042 0.329074 0.826732 0.976501
C7    C     C_R   0.046043 0.329073 0.673268 0.976500
C8    C     C_R   0.953957 0.670926 0.326732 0.976500
O17   O     O_3   0.448760 0.710460 0.250000 -0.268126
O18   O     O_3   0.551240 0.289540 0.750000 -0.268124
O19   O     O_3   0.948760 0.789540 0.250000 -0.268129
O20   O     O_3   0.051240 0.210460 0.750000 -0.268128
V1    V     V_3+5 0.173900 0.757330 0.250000 1.247571
V2    V     V_3+5 0.826100 0.242670 0.750000 1.247574
V3    V     V_3+5 0.673900 0.742670 0.250000 1.247573
V4    V     V_3+5 0.326100 0.257330 0.750000 1.247576
C9    C     C_3   0.119579 0.524180 0.540111 -0.312507
C10   C     C_3   0.880413 0.475820 0.459889 -0.312588
C11   C     C_3   0.880422 0.475822 0.040113 -0.312551
C12   C     C_3   0.119583 0.524178 0.959887 -0.312603
C13   C     C_3   0.619578 0.975821 0.959888 -0.312519
C14   C     C_3   0.380414 0.024179 0.040112 -0.312594
C15   C     C_3   0.380426 0.024177 0.459886 -0.312563
C16   C     C_3   0.619580 0.975823 0.540114 -0.312621
C17   C     C_3   0.925945 0.553399 0.520525 -0.225428
C18   C     C_3   0.074045 0.446600 0.479475 -0.225453
C19   C     C_3   0.074046 0.446598 0.020522 -0.225425
C20   C     C_3   0.925961 0.553402 0.979478 -0.225447
C21   C     C_3   0.425947 0.946600 0.979476 -0.225427
C22   C     C_3   0.574044 0.053401 0.020524 -0.225451
C23   C     C_3   0.574045 0.053403 0.479479 -0.225425
C24   C     C_3   0.425962 0.946597 0.520521 -0.225448
H1    H     H_    0.219699 0.543998 0.571997 0.208734
H2    H     H_    0.780301 0.456000 0.428001 0.208855
H3    H     H_    0.780309 0.456004 0.072000 0.208773
H4    H     H_    0.219690 0.543997 0.927999 0.208857
H5    H     H_    0.719695 0.956003 0.928002 0.208746
H6    H     H_    0.280305 0.043998 0.071999 0.208857
H7    H     H_    0.280315 0.043994 0.427997 0.208778
H8    H     H_    0.719684 0.956005 0.572003 0.208868
C25   C     C_1   0.961350 0.625270 0.372225 -0.223139
C26   C     C_1   0.038650 0.374730 0.627774 -0.223115
C27   C     C_1   0.038643 0.374731 0.872224 -0.223142
C28   C     C_1   0.961357 0.625269 0.127775 -0.223126
C29   C     C_1   0.461353 0.874730 0.127775 -0.223141
C30   C     C_1   0.538647 0.125270 0.872225 -0.223120
C31   C     C_1   0.538638 0.125269 0.627776 -0.223145
C32   C     C_1   0.461362 0.874731 0.372224 -0.223128
C33   C     C_3   0.167909 0.511951 0.477069 0.394921
C34   C     C_3   0.832084 0.488049 0.522931 0.394734
C35   C     C_3   0.832081 0.488054 0.977072 0.394899
C36   C     C_3   0.167923 0.511946 0.022928 0.394771
C37   C     C_3   0.667912 0.988051 0.022930 0.394916
C38   C     C_3   0.332082 0.011949 0.977070 0.394743
C39   C     C_3   0.332078 0.011944 0.522926 0.394912
C40   C     C_3   0.667927 0.988056 0.477073 0.394773
C41   C     C_3   0.977965 0.541570 0.457769 0.001569
C42   C     C_3   0.022029 0.458431 0.542230 0.001646
C43   C     C_3   0.022015 0.458431 0.957768 0.001577
C44   C     C_3   0.977989 0.541569 0.042232 0.001632
C45   C     C_3   0.477970 0.958431 0.042231 0.001571
C46   C     C_3   0.522024 0.041569 0.957769 0.001642
C47   C     C_3   0.522008 0.041569 0.542232 0.001575
C48   C     C_3   0.477997 0.958431 0.457767 0.001632
C49   C     C_1   0.966952 0.587420 0.410626 0.225970
C50   C     C_1   0.033046 0.412580 0.589374 0.226029
C51   C     C_1   0.033031 0.412581 0.910624 0.225965
C52   C     C_1   0.966970 0.587419 0.089376 0.226005
C53   C     C_1   0.466957 0.912580 0.089375 0.225967
C54   C     C_1   0.533041 0.087420 0.910625 0.226021
C55   C     C_1   0.533022 0.087419 0.589376 0.225957
C56   C     C_1   0.466979 0.912581 0.410623 0.225999
C57   C     C_2   0.840815 0.611762 0.545359 0.724203
H9    H     H_    0.809771 0.613744 0.590262 0.009400
O21   O     O_2   0.806478 0.657147 0.515553 -0.538857
C58   C     C_2   0.159145 0.388231 0.454642 0.724446
H10   H     H_    0.190157 0.386242 0.409738 0.009427
O22   O     O_2   0.193483 0.342849 0.484451 -0.538929
C59   C     C_2   0.159160 0.388231 0.045353 0.724252
H11   H     H_    0.190195 0.386244 0.090256 0.009423
O23   O     O_2   0.193491 0.342848 0.015544 -0.538876
C60   C     C_2   0.840867 0.611773 0.954648 0.724425
H12   H     H_    0.809853 0.613765 0.909744 0.009442
O24   O     O_2   0.806536 0.657155 0.984459 -0.538918
C61   C     C_2   0.340819 0.888236 0.954643 0.724216
H13   H     H_    0.309778 0.886252 0.909740 0.009408
O25   O     O_2   0.306483 0.842851 0.984450 -0.538862
C62   C     C_2   0.659144 0.111770 0.045356 0.724439
H14   H     H_    0.690157 0.113760 0.090260 0.009432
O26   O     O_2   0.693481 0.157153 0.015546 -0.538928
C63   C     C_2   0.659157 0.111772 0.454649 0.724254
H15   H     H_    0.690193 0.113760 0.409747 0.009430
O27   O     O_2   0.693486 0.157154 0.484460 -0.538875
C64   C     C_2   0.340872 0.888224 0.545349 0.724439
H16   H     H_    0.309859 0.886230 0.590253 0.009449
O28   O     O_2   0.306543 0.842843 0.515537 -0.538920
N1    N     N_R   0.648540 0.473693 0.549539 0.243484
O29   O     O_R   0.538365 0.430781 0.527708 -0.375540
O30   O     O_R   0.612833 0.494201 0.600258 -0.432406
N2    N     N_R   0.351468 0.526307 0.450470 0.243582
O31   O     O_R   0.461311 0.569376 0.472188 -0.375470
O32   O     O_R   0.387430 0.505637 0.399822 -0.432397
N3    N     N_R   0.351484 0.526296 0.049529 0.243490
O33   O     O_R   0.461519 0.569274 0.027746 -0.375514
O34   O     O_R   0.387297 0.505721 0.100219 -0.432425
N4    N     N_R   0.648509 0.473704 0.950477 0.243558
O35   O     O_R   0.538704 0.430617 0.972183 -0.375467
O36   O     O_R   0.612520 0.494391 0.899837 -0.432414
N5    N     N_R   0.148533 0.026303 0.950464 0.243485
O37   O     O_R   0.038398 0.069233 0.972281 -0.375534
O38   O     O_R   0.112796 0.005775 0.899753 -0.432413
N6    N     N_R   0.851474 0.973697 0.049528 0.243576
O39   O     O_R   0.961304 0.930622 0.027815 -0.375469
O40   O     O_R   0.887444 0.994373 0.100174 -0.432404
N7    N     N_R   0.851494 0.973709 0.450476 0.243484
O41   O     O_R   0.961497 0.930716 0.472250 -0.375511
O42   O     O_R   0.887329 0.994297 0.399791 -0.432433
N8    N     N_R   0.148499 0.026291 0.549518 0.243557
O43   O     O_R   0.038744 0.069400 0.527827 -0.375460
O44   O     O_R   0.112478 0.005585 0.600149 -0.432423

loop_
_geom_bond_atom_site_label_1
_geom_bond_atom_site_label_2
_geom_bond_distance
_ccdc_geom_bond_type
O17   V3    1.710647 S    
C7    C26   1.450987 S    
C24   C64   1.497023 S    
C14   C38   1.550183 S    
O18   V4    1.710646 S    
C61   H13   1.084321 S    
C34   N1    1.456517 S    
C13   C37   1.550186 S    
O12   V1    1.974054 S    
O19   V1    1.710655 S    
C37   C45   1.534320 S    
C59   H11   1.084318 S    
C10   C18   1.555073 S    
C23   C47   1.548058 S    
C43   C51   1.483959 S    
N6    O39   1.299874 A    
C44   C52   1.483959 S    
C39   N8    1.456525 S    
C62   O26   1.219908 D    
C9    C33   1.550183 S    
O15   V4    1.974058 S    
C12   C36   1.550181 S    
O16   V3    1.974056 S    
C30   C54   1.214824 T    
O11   C3    1.299454 A    
O8    V1    1.970024 S    
C27   C51   1.214825 T    
C26   C50   1.214824 T    
C36   N3    1.456518 S    
C2    C31   1.450984 S    
C38   C46   1.534318 S    
C3    C30   1.450984 S    
C9    H1    1.110063 S    
C34   C42   1.534317 S    
O1    V3    1.970026 S    
C33   C41   1.534320 S    
N2    O31   1.299875 A    
O3    C2    1.301026 A    
O2    V4    1.970024 S    
C41   C49   1.483959 S    
C4    C29   1.450983 S    
C20   C44   1.548058 S    
C64   H16   1.084320 S    
C22   C37   1.538605 S    
C20   C60   1.497022 S    
C15   H7    1.110059 S    
O11   V2    1.974052 S    
C19   C36   1.538592 S    
C16   H8    1.110057 S    
C18   C33   1.538604 S    
C19   C59   1.497018 S    
C63   H15   1.084321 S    
C57   O21   1.219909 D    
C11   C19   1.555085 S    
C12   H4    1.110059 S    
O9    V1    1.974052 S    
C13   H5    1.110061 S    
C46   C54   1.483961 S    
O15   C7    1.299451 A    
O2    C3    1.301034 A    
C45   C53   1.483959 S    
O16   C8    1.299450 A    
O7    V2    1.970023 S    
C48   C56   1.483957 S    
C19   C43   1.548060 S    
C63   O27   1.219907 D    
C10   C34   1.550184 S    
C42   C50   1.483963 S    
C47   C55   1.483955 S    
C62   H14   1.084320 S    
O5    V1    1.970022 S    
N3    O34   1.300301 A    
O17   V1    2.157923 S    
C11   C44   1.557070 S    
C10   H2    1.110059 S    
C18   C42   1.548058 S    
O19   V3    2.157911 S    
O20   V4    2.157912 S    
C37   N6    1.456528 S    
C5    C28   1.450984 S    
C6    C27   1.450984 S    
C22   C46   1.548057 S    
C8    C25   1.450985 S    
N8    O44   1.300258 A    
C22   C62   1.497021 S    
C39   C47   1.534325 S    
C12   C43   1.557080 S    
O10   V2    1.974054 S    
C14   H6    1.110058 S    
C11   C35   1.550181 S    
O12   C4    1.299453 A    
C58   O22   1.219909 D    
O8    C5    1.301029 A    
C16   C47   1.557080 S    
O13   C5    1.299457 A    
N8    O43   1.299865 A    
C29   C53   1.214825 T    
O4    C1    1.301026 A    
C38   N5    1.456517 S    
O9    C1    1.299458 A    
O6    V2    1.970023 S    
O18   V2    2.157923 S    
C60   O24   1.219907 D    
C21   C61   1.497013 S    
C11   H3    1.110060 S    
N5    O37   1.299929 A    
C33   N2    1.456528 S    
C25   C49   1.214827 T    
C12   C20   1.555077 S    
C35   C43   1.534323 S    
C24   C39   1.538602 S    
N4    O36   1.300259 A    
N7    O41   1.299914 A    
C35   N4    1.456525 S    
C17   C57   1.497015 S    
C40   N7    1.456518 S    
C15   C23   1.555087 S    
N1    O29   1.299932 A    
C16   C24   1.555079 S    
O1    C4    1.301033 A    
C16   C40   1.550177 S    
C31   C55   1.214823 T    
C21   C38   1.538591 S    
O13   V3    1.974062 S    
O14   V4    1.974061 S    
N7    O42   1.300300 A    
N6    O40   1.300258 A    
N3    O33   1.299912 A    
C59   O23   1.219909 D    
C17   C34   1.538588 S    
C14   C45   1.557083 S    
C36   C44   1.534323 S    
O7    C6    1.301028 A    
C13   C46   1.557068 S    
C23   C63   1.497017 S    
C9    C17   1.555081 S    
C15   C48   1.557068 S    
O14   C6    1.299457 A    
O20   V2    1.710654 S    
N4    O35   1.299874 A    
C40   C48   1.534324 S    
C28   C52   1.214825 T    
C24   C48   1.548055 S    
O5    C8    1.301034 A    
O10   C2    1.299458 A    
O6    C7    1.301034 A    
C58   H10   1.084321 S    
N2    O32   1.300260 A    
C18   C58   1.497022 S    
O3    V4    1.970029 S    
C64   O28   1.219909 D    
C23   C40   1.538592 S    
C14   C22   1.555075 S    
O4    V3    1.970028 S    
C10   C41   1.557083 S    
C17   C41   1.548063 S    
C9    C42   1.557070 S    
C61   O25   1.219909 D    
C60   H12   1.084319 S    
N5    O38   1.300317 A    
C15   C39   1.550180 S    
C20   C35   1.538603 S    
C21   C45   1.548062 S    
C1    C32   1.450984 S    
C57   H9    1.084324 S    
C13   C21   1.555084 S    
C32   C56   1.214823 T    
N1    O30   1.300325 A    
