data_mof_unit_49832.cif
_audit_creation_date              2012-12-10T17:35:42-0500
_audit_creation_method            fapswitch 2.2
_symmetry_space_group_name_H-M    P1
_symmetry_Int_Tables_number       1
_space_group_crystal_system       triclinic
_cell_length_a                    10.522236
_cell_length_b                    12.013494
_cell_length_c                    12.920284
_cell_angle_alpha                 93.622899
_cell_angle_beta                  90.64042
_cell_angle_gamma                 85.283611
_cell_volume                      1624.42528685

loop_
_atom_site_label
_atom_site_type_symbol
_atom_type_description
_atom_site_fract_x
_atom_site_fract_y
_atom_site_fract_z
_atom_type_partial_charge
C1    C     C_R   0.499244 0.522637 0.700728 0.921441
C2    C     C_R   0.608340 0.159019 0.587874 0.566929
C3    C     C_R   0.550948 0.857244 0.542329 -0.046534
C4    C     C_R   0.447856 0.142660 0.458962 -0.044221
C5    C     C_R   0.542793 0.974742 0.535624 0.001806
C6    C     C_R   0.456413 0.025190 0.465406 0.009024
C7    C     C_R   0.742646 0.498928 0.498609 0.928026
C8    C     C_R   0.257281 0.501099 0.500645 0.899296
C9    C     C_3   0.972764 0.393914 0.491752 0.515651
C10   C     C_3   0.027005 0.606775 0.506242 0.503101
C11   C     C_3   0.048774 0.447377 0.581430 -0.249912
C12   C     C_R   0.502749 0.477364 0.299245 0.932180
C13   C     C_3   0.950823 0.553198 0.416871 -0.224539
C14   C     C_3   0.122247 0.503587 0.500339 -0.124135
C15   C     C_3   0.877531 0.496995 0.497954 -0.127987
C16   C     C_3   0.048262 0.449266 0.410804 -0.292648
C17   C     C_3   0.951436 0.551718 0.587495 -0.299652
C18   C     C_R   0.512590 0.462601 0.187440 -0.243868
C19   C     C_R   0.506297 0.537479 0.812620 -0.249597
C20   C     C_R   0.511884 0.652031 0.972948 0.306117
C21   C     C_R   0.542804 0.348337 0.027578 0.294003
C22   C     C_R   0.493236 0.644113 0.865493 0.422246
C23   C     C_R   0.528618 0.440936 0.866754 -0.212483
C24   C     C_R   0.520714 0.355917 0.134444 0.431331
C25   C     C_3   0.403484 0.206662 0.165035 0.164360
C26   C     C_3   0.281932 0.275588 0.204221 -0.521142
C27   C     C_3   0.166314 0.206771 0.191625 -0.805658
C28   C     C_3   0.344493 0.788569 0.830171 0.134776
C29   C     C_3   0.246493 0.731895 0.760670 -0.416584
C30   C     C_3   0.111823 0.784223 0.783648 -0.803474
C31   C     C_R   0.516775 0.559323 0.133728 -0.218462
C32   C     C_R   0.532336 0.446943 0.973493 -0.042254
C33   C     C_R   0.521482 0.553450 0.027072 -0.040056
C34   C     C_R   0.381042 0.957195 0.403268 -0.273219
C35   C     C_R   0.618839 0.042792 0.597097 -0.256144
C36   C     C_R   0.392482 0.840899 0.411527 0.573364
Cl1   Cl    Cl    0.939973 0.250566 0.478491 -0.519619
Cl2   Cl    Cl    0.059253 0.750303 0.513744 -0.560082
Cl3   Cl    Cl    0.525299 0.785693 0.036855 -0.568163
Cl4   Cl    Cl    0.590505 0.216276 0.964610 -0.545999
Cl5   Cl    Cl    0.707366 0.239088 0.667085 -0.507698
Cl6   Cl    Cl    0.296209 0.760525 0.330001 -0.528543
H1    H     H_    0.092345 0.404156 0.648209 0.187471
H2    H     H_    0.686335 0.006154 0.651818 0.201073
H3    H     H_    0.411793 0.126237 0.203532 0.185903
H4    H     H_    0.393416 0.184360 0.080861 0.183703
H5    H     H_    0.293140 0.303168 0.287088 0.246138
H6    H     H_    0.264499 0.351275 0.159263 0.224400
H7    H     H_    0.155558 0.175747 0.109420 0.272108
H8    H     H_    0.078266 0.259138 0.214764 0.279198
H9    H     H_    0.177218 0.134403 0.241293 0.272379
H10   H     H_    0.341977 0.877950 0.812189 0.191112
H11   H     H_    0.315683 0.788096 0.912782 0.168370
H12   H     H_    0.907190 0.596315 0.350054 0.194847
H13   H     H_    0.268985 0.740960 0.677982 0.283044
H14   H     H_    0.249975 0.641330 0.774357 0.201571
H15   H     H_    0.088749 0.778693 0.866765 0.259388
H16   H     H_    0.041775 0.738698 0.736474 0.281787
H17   H     H_    0.103007 0.873385 0.764484 0.286015
H18   H     H_    0.091691 0.409112 0.338809 0.176106
H19   H     H_    0.907369 0.593327 0.659036 0.178969
H20   H     H_    0.510365 0.640397 0.175481 0.259505
H21   H     H_    0.536660 0.359802 0.825235 0.261798
H22   H     H_    0.380787 0.182080 0.406050 0.147482
H23   H     H_    0.616738 0.817559 0.596454 0.174839
H24   H     H_    0.313986 0.993844 0.348265 0.175378
N1    N     N_R   0.523490 0.207800 0.519350 -0.141353
N2    N     N_R   0.476510 0.792200 0.480650 -0.151545
O1    O     O_R   0.506270 0.421700 0.658830 -0.602770
O2    O     O_3   0.470281 0.739924 0.811238 -0.594397
O3    O     O_R   0.493730 0.578300 0.341170 -0.596582
O4    O     O_R   0.491200 0.609310 0.646410 -0.593638
O5    O     O_R   0.508800 0.390690 0.353590 -0.582377
O6    O     O_R   0.693580 0.406210 0.506230 -0.544283
O7    O     O_R   0.306420 0.593790 0.493770 -0.563218
O8    O     O_R   0.678510 0.593830 0.493810 -0.632724
O9    O     O_R   0.321490 0.406170 0.506190 -0.643240
O10   O     O_3   0.516468 0.260376 0.188979 -0.580369
Zn1   Zn    Zn3+2 0.510060 0.374730 0.508290 1.032920
Zn2   Zn    Zn3+2 0.489940 0.625270 0.491710 1.020010

loop_
_geom_bond_atom_site_label_1
_geom_bond_atom_site_label_2
_ccdc_geom_bond_type
C2    C35   A    
N2    Zn2   S    
C36   Cl6   S    
C3    N2    A    
C34   H24   S    
C26   C27   S    
C18   C24   A    
C28   C29   S    
C9    C16   S    
C5    C6    A    
C11   C14   S    
C2    Cl5   S    
C30   H15   S    
C5    C35   A    
C16   H18   S    
C17   H19   S    
C31   C33   A    
C11   H1    S    
O7    Zn2   S    
C27   H8    S    
C26   H6    S    
C23   H21   S    
C12   O5    A    
C31   H20   S    
C3    H23   S    
O3    Zn2   S    
C27   H9    S    
C7    O6    A    
O9    Zn1   S    
C21   C32   A    
C1    C19   S    
C1    O4    A    
C25   O10   S    
C19   C22   A    
N1    Zn1   S    
C4    C6    A    
C2    N1    A    
C10   C14   S    
C20   Cl3   S    
C29   H13   S    
C25   C26   S    
C8    O7    A    
C1    O1    A    
C6    C34   A    
C19   C23   A    
C29   C30   S    
C30   H17   S    
C9    Cl1   S    
O5    Zn1   S    
C35   H2    S    
C9    C11   S    
C26   H5    S    
C20   C33   A    
C24   O10   S    
C12   O3    A    
C20   C22   A    
O6    Zn1   S    
C13   C15   S    
C8    O9    A    
C14   C16   S    
O1    Zn1   S    
C21   C24   A    
C25   H3    S    
C13   H12   S    
C15   C17   S    
C11   C17   S    
C8    C14   S    
C28   O2    S    
O8    Zn2   S    
C3    C5    A    
C10   C13   S    
C4    N1    A    
C28   H11   S    
C36   N2    A    
C7    O8    A    
C29   H14   S    
C4    H22   S    
C10   Cl2   S    
C23   C32   A    
C9    C15   S    
O4    Zn2   S    
C32   C33   A    
C28   H10   S    
C21   Cl4   S    
C30   H16   S    
C7    C15   S    
C34   C36   A    
C13   C16   S    
C12   C18   S    
C18   C31   A    
C10   C17   S    
C25   H4    S    
C22   O2    S    
C27   H7    S    
