data_mof_unit_46077.cif
_audit_creation_date              2013-03-05T16:45:52-0500
_audit_creation_method            fapswitch 2.2
_symmetry_space_group_name_H-M    P1
_symmetry_Int_Tables_number       1
_space_group_crystal_system       triclinic
_cell_length_a                    18.33584
_cell_length_b                    18.358051
_cell_length_c                    18.333001
_cell_angle_alpha                 60.191069
_cell_angle_beta                  60.302891
_cell_angle_gamma                 60.235474
_cell_volume                      4387.61988857

loop_
_atom_site_label
_atom_site_type_symbol
_atom_site_description
_atom_site_fract_x
_atom_site_fract_y
_atom_site_fract_z
_atom_type_partial_charge
Zn1   Zn    Zn3+2 0.206620 0.206630 0.380140 1.017262
Zn2   Zn    Zn3+2 0.793380 0.793370 0.619860 1.017370
Zn3   Zn    Zn3+2 0.206630 0.380140 0.206620 1.024852
Zn4   Zn    Zn3+2 0.793370 0.619860 0.793380 1.024795
Zn5   Zn    Zn3+2 0.380140 0.206620 0.206630 1.020305
Zn6   Zn    Zn3+2 0.619860 0.793380 0.793370 1.020304
Zn7   Zn    Zn3+2 0.206620 0.206620 0.206620 0.972732
Zn8   Zn    Zn3+2 0.793380 0.793380 0.793380 0.972711
O1    O     O_3   0.250000 0.250000 0.250000 -0.517929
O2    O     O_3   0.750000 0.750000 0.750000 -0.517929
O3    O     O_R   0.305080 0.134200 0.134200 -0.639054
O4    O     O_R   0.694920 0.865800 0.865800 -0.639062
O5    O     O_R   0.134200 0.134200 0.305080 -0.635723
O6    O     O_R   0.865800 0.865800 0.694920 -0.635750
O7    O     O_R   0.134200 0.305080 0.134200 -0.643227
O8    O     O_R   0.865800 0.694920 0.865800 -0.643207
O9    O     O_R   0.134200 0.305090 0.426530 -0.619556
O10   O     O_R   0.865800 0.694910 0.573470 -0.619523
O11   O     O_R   0.305090 0.426530 0.134200 -0.621090
O12   O     O_R   0.694910 0.573470 0.865800 -0.621105
O13   O     O_R   0.426530 0.134200 0.305090 -0.623365
O14   O     O_R   0.573470 0.865800 0.694910 -0.623387
O15   O     O_R   0.134190 0.426530 0.134200 -0.608677
O16   O     O_R   0.865810 0.573470 0.865800 -0.608768
O17   O     O_R   0.426530 0.134200 0.134190 -0.615572
O18   O     O_R   0.573470 0.865800 0.865810 -0.615599
O19   O     O_R   0.134200 0.134190 0.426530 -0.619758
O20   O     O_R   0.865800 0.865810 0.573470 -0.619699
O21   O     O_R   0.426530 0.305080 0.134210 -0.635042
O22   O     O_R   0.573470 0.694920 0.865790 -0.635054
O23   O     O_R   0.305080 0.134210 0.426530 -0.638303
O24   O     O_R   0.694920 0.865790 0.573470 -0.638244
O25   O     O_R   0.134210 0.426530 0.305080 -0.636602
O26   O     O_R   0.865790 0.573470 0.694920 -0.636611
C1    C     C_R   0.389739 0.110144 0.110099 0.786682
C2    C     C_R   0.610261 0.889856 0.889900 0.786674
C3    C     C_R   0.110154 0.110098 0.389748 0.776788
C4    C     C_R   0.889846 0.889902 0.610252 0.776773
C5    C     C_R   0.110201 0.389670 0.110133 0.782012
C6    C     C_R   0.889798 0.610330 0.889867 0.782010
C7    C     C_R   0.110002 0.390157 0.389825 0.876636
C8    C     C_R   0.889996 0.609844 0.610173 0.876595
C9    C     C_R   0.390169 0.389787 0.110012 0.876170
C10   C     C_R   0.609831 0.610213 0.889990 0.876194
C11   C     C_R   0.389757 0.110065 0.390165 0.870739
C12   C     C_R   0.610244 0.889934 0.609835 0.870936
H1    H     H_    0.277339 0.818411 0.554225 0.181016
H2    H     H_    0.722660 0.181590 0.445777 0.180973
H3    H     H_    0.797434 0.457831 0.298173 0.161845
H4    H     H_    0.202566 0.542174 0.701827 0.161887
H5    H     H_    0.559900 0.821193 0.274991 0.171564
H6    H     H_    0.440098 0.178808 0.725008 0.171277
C13   C     C_R   0.930541 0.176181 0.391648 -0.141191
C14   C     C_R   0.069458 0.823819 0.608352 -0.141176
C15   C     C_R   0.187631 0.442488 0.919575 -0.151478
C16   C     C_R   0.812368 0.557513 0.080425 -0.151492
C17   C     C_R   0.388767 0.174723 0.931634 -0.123827
C18   C     C_R   0.611233 0.825278 0.068365 -0.123835
C19   C     C_R   0.843744 0.209063 0.391787 -0.132636
C20   C     C_R   0.156256 0.790937 0.608214 -0.132562
C21   C     C_R   0.226074 0.468232 0.827143 -0.126326
C22   C     C_R   0.773926 0.531771 0.172857 -0.126355
C23   C     C_R   0.387332 0.206805 0.845530 -0.103539
C24   C     C_R   0.612668 0.793196 0.154469 -0.103556
C25   C     C_R   0.790266 0.155696 0.445395 -0.042474
C26   C     C_R   0.209733 0.844304 0.554607 -0.042365
C27   C     C_R   0.172491 0.522274 0.773597 -0.102700
C28   C     C_R   0.827509 0.477730 0.226404 -0.102738
C29   C     C_R   0.440820 0.153423 0.792152 -0.116392
C30   C     C_R   0.559179 0.846577 0.207847 -0.116359
C31   C     C_R   0.823273 0.069196 0.499215 -0.081247
C32   C     C_R   0.176726 0.930805 0.500788 -0.081329
C33   C     C_R   0.080156 0.550933 0.812173 -0.107266
C34   C     C_R   0.919844 0.449070 0.187827 -0.107150
C35   C     C_R   0.496103 0.067692 0.824564 -0.144117
C36   C     C_R   0.503897 0.932308 0.175435 -0.144135
C37   C     C_R   0.911757 0.033647 0.499428 0.055809
C38   C     C_R   0.088243 0.966353 0.500573 0.055789
C39   C     C_R   0.039488 0.525759 0.905923 0.079923
C40   C     C_R   0.960511 0.474243 0.094077 0.079962
C41   C     C_R   0.497888 0.032855 0.912427 0.080077
C42   C     C_R   0.502111 0.967146 0.087572 0.080096
C43   C     C_R   0.966235 0.087948 0.444769 0.076855
C44   C     C_R   0.033765 0.912052 0.555231 0.076854
C45   C     C_R   0.093980 0.470803 0.960381 0.075345
C46   C     C_R   0.906020 0.529198 0.039619 0.075338
C47   C     C_R   0.443280 0.087179 0.966841 0.081991
C48   C     C_R   0.556720 0.912822 0.033158 0.082000
C49   C     C_R   0.945893 0.946096 0.554304 -0.137142
C50   C     C_R   0.054107 0.053904 0.445696 -0.137151
C51   C     C_R   0.945942 0.554489 0.945972 -0.129393
C52   C     C_R   0.054058 0.445511 0.054028 -0.129357
C53   C     C_R   0.554309 0.946076 0.945925 -0.130882
C54   C     C_R   0.445691 0.053925 0.054074 -0.130875
H7    H     H_    0.968729 0.221054 0.349959 0.131732
H8    H     H_    0.031271 0.778946 0.650040 0.131737
H9    H     H_    0.232015 0.400365 0.958502 0.118832
H10   H     H_    0.767985 0.599636 0.041498 0.118840
H11   H     H_    0.347198 0.219728 0.969609 0.131473
H12   H     H_    0.652802 0.780273 0.030390 0.131477
H13   H     H_    0.817697 0.276493 0.350556 0.151176
H14   H     H_    0.182303 0.723507 0.649444 0.151189
H15   H     H_    0.297771 0.446161 0.796959 0.162918
H16   H     H_    0.702229 0.553843 0.203042 0.162924
H17   H     H_    0.345004 0.273657 0.819892 0.154275
H18   H     H_    0.654996 0.726344 0.180107 0.154292
H19   H     H_    0.778323 0.031091 0.540842 0.145677
H20   H     H_    0.221676 0.968909 0.459161 0.145682
H21   H     H_    0.041200 0.593009 0.767810 0.119147
H22   H     H_    0.958800 0.406995 0.232190 0.119132
H23   H     H_    0.537746 0.029753 0.779520 0.137713
H24   H     H_    0.462253 0.970247 0.220479 0.137724
H25   H     H_    0.242579 0.705705 0.091037 0.196229
H26   H     H_    0.757220 0.294498 0.908951 0.196264
H27   H     H_    0.701727 0.091284 0.247140 0.199863
H28   H     H_    0.298244 0.908759 0.752948 0.199828
H29   H     H_    0.095273 0.248754 0.703574 0.199746
H30   H     H_    0.904610 0.751311 0.296210 0.199810
C55   C     C_R   0.240426 0.622923 0.225096 -0.083246
C56   C     C_R   0.759409 0.377289 0.774888 -0.083334
C57   C     C_R   0.619701 0.225475 0.243853 -0.091114
C58   C     C_R   0.380264 0.774575 0.756200 -0.091117
C59   C     C_R   0.229234 0.244657 0.619256 -0.091065
C60   C     C_R   0.770657 0.755421 0.380596 -0.090896
H31   H     H_    0.302503 0.626165 0.214266 0.245374
H32   H     H_    0.697284 0.374129 0.785739 0.245435
H33   H     H_    0.621685 0.214374 0.306697 0.236983
H34   H     H_    0.378275 0.785693 0.693352 0.236961
H35   H     H_    0.219657 0.306972 0.620943 0.242307
H36   H     H_    0.780156 0.693156 0.378865 0.242190
C61   C     C_R   0.194487 0.574204 0.308653 0.238114
C62   C     C_R   0.805401 0.425945 0.691313 0.238020
C63   C     C_R   0.572156 0.309218 0.196766 0.241486
C64   C     C_R   0.427812 0.690822 0.803270 0.241587
C65   C     C_R   0.311854 0.197340 0.570916 0.238597
C66   C     C_R   0.688097 0.802714 0.429013 0.238804
C67   C     C_R   0.111864 0.572923 0.321786 -0.135637
C68   C     C_R   0.888082 0.427115 0.678186 -0.135712
C69   C     C_R   0.572340 0.322429 0.113372 -0.137286
C70   C     C_R   0.427642 0.677583 0.886666 -0.137266
C71   C     C_R   0.323220 0.114511 0.571645 -0.132751
C72   C     C_R   0.676785 0.885485 0.428345 -0.132688
C73   C     C_R   0.080369 0.615179 0.248079 0.330507
C74   C     C_R   0.919576 0.384812 0.751905 0.330399
C75   C     C_R   0.615553 0.248864 0.081771 0.328758
C76   C     C_R   0.384429 0.751127 0.918297 0.328749
C77   C     C_R   0.248740 0.083908 0.616019 0.337774
C78   C     C_R   0.751285 0.916055 0.383963 0.337871
C79   C     C_R   0.129421 0.662361 0.165482 -0.221798
C80   C     C_R   0.870475 0.337682 0.834501 -0.221621
C81   C     C_R   0.661463 0.166137 0.131994 -0.221358
C82   C     C_R   0.338517 0.833867 0.868090 -0.221387
C83   C     C_R   0.167200 0.134333 0.662783 -0.222837
C84   C     C_R   0.832787 0.865650 0.337133 -0.223105
H37   H     H_    0.107085 0.696254 0.108482 0.192358
H38   H     H_    0.892804 0.303753 0.891510 0.192381
H39   H     H_    0.695831 0.109142 0.109823 0.192216
H40   H     H_    0.304151 0.890848 0.890282 0.192234
H41   H     H_    0.109590 0.112904 0.698171 0.194318
H42   H     H_    0.890411 0.887059 0.301735 0.194336
C85   C     C_R   0.207323 0.667534 0.154825 -0.218528
C86   C     C_R   0.792517 0.332623 0.845159 -0.218491
C87   C     C_R   0.664678 0.155239 0.210982 -0.214421
C88   C     C_R   0.335295 0.844795 0.789093 -0.214420
C89   C     C_R   0.158274 0.212569 0.665641 -0.220606
C90   C     C_R   0.841644 0.787474 0.334204 -0.220691
C91   C     C_R   0.003784 0.585897 0.469053 0.056847
C92   C     C_R   0.996189 0.414119 0.530929 0.056851
C93   C     C_R   0.585437 0.469629 0.004834 0.059237
C94   C     C_R   0.414561 0.530373 0.995176 0.059273
C95   C     C_R   0.469961 0.004955 0.585277 0.053946
C96   C     C_R   0.530047 0.995049 0.414718 0.053791
C97   C     C_R   0.946517 0.553122 0.554530 0.010655
C98   C     C_R   0.053475 0.446885 0.445461 0.010426
C99   C     C_R   0.553076 0.554588 0.946536 0.010651
C100  C     C_R   0.446923 0.445411 0.053469 0.010733
C101  C     C_R   0.554632 0.946486 0.553072 0.013340
C102  C     C_R   0.445372 0.053512 0.446927 0.013484
C103  C     C_R   0.944049 0.466212 0.586447 0.059017
C104  C     C_R   0.055936 0.533798 0.413540 0.058784
C105  C     C_R   0.466578 0.585998 0.943075 0.058180
C106  C     C_R   0.533419 0.414003 0.056936 0.058211
C107  C     C_R   0.585795 0.942901 0.466730 0.060465
C108  C     C_R   0.414211 0.057096 0.533269 0.060876
N1    N     N_3   0.011168 0.671283 0.440304 -0.417710
H43   H     H_    0.998736 0.711033 0.379971 0.189925
H44   H     H_    0.075768 0.662260 0.430852 0.210333
N2    N     N_3   0.988747 0.328768 0.559647 -0.417758
H45   H     H_    0.924133 0.337850 0.569079 0.210271
H46   H     H_    0.001152 0.288991 0.619990 0.189823
N3    N     N_3   0.670215 0.441620 0.013334 -0.420262
H47   H     H_    0.710512 0.381235 0.001426 0.189585
H48   H     H_    0.660270 0.432545 0.078134 0.208348
N4    N     N_3   0.329772 0.558393 0.986690 -0.420246
H49   H     H_    0.339700 0.567492 0.921887 0.208334
H50   H     H_    0.289478 0.618766 0.998624 0.189648
N5    N     N_3   0.442517 0.013690 0.669769 -0.428241
H51   H     H_    0.381826 0.002397 0.710289 0.190892
H52   H     H_    0.434311 0.078285 0.659295 0.194355
N6    N     N_3   0.557499 0.986340 0.330211 -0.428220
H53   H     H_    0.565688 0.921759 0.340661 0.194443
H54   H     H_    0.618196 0.997623 0.289706 0.190901
N7    N     N_R   0.231814 0.527888 0.379420 0.224342
O27   O     O_R   0.221004 0.452792 0.439018 -0.368687
O28   O     O_R   0.285114 0.555567 0.378959 -0.321233
N8    N     N_R   0.768052 0.472307 0.620546 0.224252
O29   O     O_R   0.779332 0.547138 0.560629 -0.369007
O30   O     O_R   0.714287 0.444981 0.621293 -0.320748
N9    N     N_R   0.525527 0.380017 0.233789 0.225457
O31   O     O_R   0.451099 0.440104 0.221517 -0.364100
O32   O     O_R   0.552246 0.379234 0.288106 -0.334135
N10   N     N_R   0.474431 0.620039 0.766229 0.225522
O33   O     O_R   0.548913 0.560000 0.778415 -0.364135
O34   O     O_R   0.447642 0.620796 0.711980 -0.334157
N11   N     N_R   0.383593 0.233314 0.523290 0.221626
O35   O     O_R   0.442683 0.220700 0.448755 -0.373676
O36   O     O_R   0.384763 0.286946 0.549292 -0.344505
N12   N     N_R   0.616327 0.766801 0.476659 0.221807
O37   O     O_R   0.557721 0.778815 0.551551 -0.373208
O38   O     O_R   0.614692 0.713786 0.450262 -0.345479
N13   N     N_R   0.001699 0.609002 0.253893 0.196282
O39   O     O_R   0.946623 0.576481 0.329682 -0.422365
O40   O     O_R   0.984383 0.636414 0.181840 -0.392935
N14   N     N_R   0.998299 0.390883 0.746106 0.196274
O41   O     O_R   0.053270 0.423610 0.670349 -0.422467
O42   O     O_R   0.015761 0.363185 0.818147 -0.392995
N15   N     N_R   0.611901 0.255000 0.001591 0.197406
O43   O     O_R   0.578182 0.330595 0.947005 -0.414908
O44   O     O_R   0.642731 0.183398 0.982442 -0.388579
N16   N     N_R   0.388079 0.744953 0.998495 0.197372
O45   O     O_R   0.421775 0.669338 0.053079 -0.414776
O46   O     O_R   0.357261 0.816541 0.017668 -0.388610
N17   N     N_R   0.252824 0.004256 0.613364 0.190121
O47   O     O_R   0.326600 0.951739 0.575030 -0.442084
O48   O     O_R   0.181153 0.983333 0.650119 -0.408740
N18   N     N_R   0.747253 0.995657 0.386665 0.190175
O49   O     O_R   0.673488 0.048205 0.424972 -0.441951
O50   O     O_R   0.818958 0.016510 0.349968 -0.408668

loop_
_geom_bond_atom_site_label_1
_geom_bond_atom_site_label_2
_geom_bond_distance
_ccdc_geom_bond_type
C17   H11   1.081256 S    
Zn7   O5    1.944485 S    
N4    H50   1.044045 S    
C7    C98   1.461525 S    
C101  C107  1.416508 A    
C62   N8    1.442336 S    
C42   C54   1.416251 A    
H3    C28   1.082573 S    
C31   H19   1.081420 S    
C13   H7    1.081440 S    
C63   N9    1.442139 S    
Zn3   O15   1.937083 S    
O26   C8    1.279179 A    
C10   C99   1.460850 S    
C16   H10   1.082366 S    
N7    O27   1.301079 A    
C95   N5    1.439737 S    
N14   O41   1.300164 A    
C55   C85   1.389622 A    
C14   C44   1.418135 A    
C73   N13   1.450180 S    
C13   C19   1.393183 A    
N12   O37   1.300914 A    
Zn3   O25   1.943563 S    
C94   C100  1.406821 A    
Zn6   O22   1.942946 S    
C38   C50   1.415859 A    
C92   C98   1.407050 A    
C75   N15   1.450283 S    
C4    C49   1.458954 S    
C37   C49   1.415857 A    
C3    C50   1.458954 S    
C92   N2    1.439387 S    
C81   H39   1.082340 S    
Zn2   O24   1.940154 S    
C21   H15   1.082542 S    
C41   C53   1.416252 A    
C57   H33   1.082126 S    
C46   C51   1.413733 A    
O10   C8    1.285103 A    
C64   C70   1.422389 A    
Zn4   O16   1.937081 S    
C24   C30   1.388549 A    
C56   H32   1.081733 S    
H26   C86   1.078170 S    
C66   N12   1.441994 S    
C97   C103  1.416793 A    
C28   C34   1.393734 A    
Zn6   O14   1.939561 S    
C47   C54   1.415913 A    
C6    C51   1.456586 S    
Zn1   O23   1.940152 S    
C58   C88   1.389306 A    
N18   O49   1.300039 A    
N2    H46   1.044055 S    
N5    H52   1.044417 S    
C58   C64   1.401488 A    
C32   C38   1.417986 A    
H6    C29   1.082726 S    
N9    O32   1.301535 A    
C16   C46   1.416363 A    
C2    C53   1.459879 S    
C65   N11   1.442223 S    
C32   H20   1.081420 S    
H29   C89   1.077377 S    
N6    H53   1.044405 S    
C102  C108  1.416508 A    
C91   C104  1.400123 A    
C66   C72   1.422374 A    
Zn3   O11   1.942864 S    
C18   C48   1.418288 A    
C27   C33   1.393733 A    
H5    C30   1.082720 S    
O20   C4    1.276498 A    
H2    C25   1.082733 S    
O4    C2    1.278140 A    
C61   N7    1.442161 S    
N17   O47   1.300033 A    
H1    C26   1.082732 S    
O5    C3    1.277617 A    
C56   C86   1.389587 A    
C99   C105  1.416789 A    
C22   C28   1.390246 A    
C83   C89   1.387564 A    
Zn7   O7    1.941898 S    
C72   C107  1.489241 S    
C67   C73   1.430874 A    
C20   C26   1.388848 A    
Zn8   O8    1.941900 S    
C34   C40   1.416403 A    
C59   H35   1.082045 S    
C58   H34   1.082126 S    
C12   C101  1.458316 S    
O22   C10   1.279576 A    
N5    H51   1.044057 S    
C78   C84   1.404356 A    
C20   H14   1.082694 S    
C68   C103  1.489273 S    
O12   C10   1.285466 A    
C45   C52   1.413733 A    
O11   C9    1.285462 A    
C17   C23   1.393129 A    
O13   C11   1.284962 A    
C18   C24   1.393128 A    
C80   C86   1.388182 A    
C26   C32   1.393261 A    
C64   N10   1.442108 S    
C84   H42   1.082279 S    
C60   C66   1.401131 A    
C60   H36   1.082050 S    
C39   C51   1.413616 A    
C19   H13   1.082694 S    
C72   C78   1.431395 A    
C95   C108  1.398963 A    
C18   H12   1.081256 S    
C36   C42   1.418450 A    
C94   N4    1.439391 S    
C71   C77   1.431449 A    
N8    O29   1.301263 A    
C35   C41   1.418453 A    
C14   C20   1.393182 A    
C25   C31   1.393262 A    
C74   C80   1.404327 A    
C55   C61   1.401206 A    
H30   C90   1.077397 S    
C22   H16   1.082544 S    
N3    H47   1.044035 S    
H4    C27   1.082575 S    
C59   C65   1.401230 A    
N2    H45   1.044450 S    
C78   N18   1.450694 S    
Zn5   O13   1.939558 S    
C59   C89   1.389133 A    
C15   C45   1.416364 A    
Zn7   O3    1.945880 S    
N11   O35   1.301250 A    
N3    H48   1.044543 S    
Zn5   O1    1.955334 S    
N13   O39   1.300159 A    
Zn3   O1    1.955499 S    
C38   C44   1.414000 A    
O6    C4    1.277619 A    
N7    O28   1.301545 A    
C9    C100  1.460841 S    
C21   C27   1.390247 A    
N12   O38   1.301517 A    
N15   O43   1.300004 A    
C65   C71   1.422565 A    
C36   H24   1.081244 S    
C15   H9    1.082367 S    
N9    O31   1.301021 A    
C93   C99   1.406826 A    
Zn1   O1    1.954163 S    
C41   C47   1.414304 A    
N10   O33   1.301086 A    
N16   O46   1.301974 A    
C40   C52   1.413616 A    
N17   O48   1.301937 A    
O7    C5    1.277704 A    
C82   C88   1.387557 A    
C69   C106  1.488985 S    
C11   C102  1.458348 S    
O8    C6    1.277701 A    
C82   H40   1.082340 S    
C60   C90   1.389174 A    
C77   N17   1.450732 S    
O18   C2    1.276747 A    
O14   C12   1.284964 A    
O17   C1    1.276747 A    
C63   C69   1.422418 A    
C96   N6    1.439743 S    
C81   C87   1.387546 A    
C94   C105  1.399796 A    
C30   C36   1.393059 A    
C76   C82   1.404015 A    
C23   H17   1.082447 S    
C44   C49   1.415512 A    
C93   N3    1.439390 S    
Zn4   O2    1.955502 S    
Zn2   O2    1.954160 S    
Zn5   O21   1.942946 S    
C55   H31   1.081727 S    
C5    C52   1.456583 S    
C31   C37   1.417986 A    
C83   H41   1.082277 S    
C76   N16   1.450282 S    
C1    C54   1.459879 S    
C96   C102  1.406528 A    
Zn7   O1    1.945443 S    
C43   C50   1.415512 A    
C48   C53   1.415910 A    
C69   C75   1.431060 A    
Zn8   O6    1.944487 S    
N15   O44   1.301934 A    
C56   C62   1.401274 A    
O24   C12   1.279229 A    
H28   C88   1.076977 S    
C95   C101  1.406537 A    
C70   C76   1.431050 A    
C91   N1    1.439391 S    
N10   O34   1.301574 A    
Zn2   O10   1.944236 S    
C33   C39   1.416404 A    
C8    C97   1.461545 S    
N14   O42   1.301945 A    
Zn6   O2    1.955336 S    
C24   H18   1.082445 S    
C75   C81   1.404008 A    
C80   H38   1.082350 S    
C92   C103  1.400114 A    
C98   C104  1.416797 A    
C35   H23   1.081243 S    
C70   C105  1.488974 S    
C91   C97   1.407044 A    
C13   C43   1.418136 A    
C71   C108  1.489210 S    
O25   C7    1.279150 A    
N11   O36   1.301847 A    
C79   H37   1.082348 S    
C23   C29   1.388550 A    
N13   O40   1.301919 A    
C68   C74   1.430940 A    
C19   C25   1.388848 A    
N4    H49   1.044546 S    
C96   C107  1.398992 A    
N1    H43   1.044068 S    
Zn6   O18   1.941157 S    
C67   C104  1.489289 S    
O19   C3    1.276495 A    
C42   C48   1.414305 A    
C15   C21   1.393833 A    
O3    C1    1.278140 A    
O16   C6    1.276978 A    
C39   C45   1.413867 A    
N18   O50   1.301935 A    
C29   C35   1.393062 A    
C16   C22   1.393834 A    
C33   H21   1.082378 S    
Zn4   O26   1.943561 S    
H27   C87   1.076972 S    
N16   O45   1.300025 A    
C77   C83   1.404317 A    
O9    C7    1.285122 A    
C93   C106  1.399810 A    
C74   N14   1.450241 S    
N1    H44   1.044447 S    
C100  C106  1.416795 A    
H25   C85   1.078190 S    
Zn4   O12   1.942862 S    
C17   C47   1.418287 A    
C40   C46   1.413869 A    
C73   C79   1.404341 A    
C79   C85   1.388237 A    
Zn1   O9    1.944237 S    
Zn8   O2    1.945441 S    
O23   C11   1.279246 A    
Zn1   O19   1.940351 S    
C37   C43   1.414000 A    
C84   C90   1.387626 A    
Zn2   O20   1.940352 S    
C57   C63   1.401502 A    
C34   H22   1.082379 S    
N8    O30   1.301743 A    
C62   C68   1.422119 A    
C14   H8    1.081439 S    
O15   C5    1.276978 A    
N6    H54   1.044054 S    
O21   C9    1.279575 A    
Zn8   O4    1.945881 S    
C61   C67   1.421962 A    
Zn5   O17   1.941159 S    
C57   C87   1.389291 A    
