data_mof_unit_19580.cif
_audit_creation_date              2012-12-10T18:47:44-0500
_audit_creation_method            fapswitch 2.2
_symmetry_space_group_name_H-M    P1
_symmetry_Int_Tables_number       1
_space_group_crystal_system       triclinic
_cell_length_a                    9.904775
_cell_length_b                    10.638076
_cell_length_c                    15.497695
_cell_angle_alpha                 90.452555
_cell_angle_beta                  66.764265
_cell_angle_gamma                 89.179457
_cell_volume                      1500.19020501

loop_
_atom_site_label
_atom_site_type_symbol
_atom_type_description
_atom_site_fract_x
_atom_site_fract_y
_atom_site_fract_z
_atom_type_partial_charge
C1    C     C_R   0.500063 0.739530 0.498457 0.888854
C2    C     C_R   0.500020 0.260442 0.501418 0.888749
C3    C     C_R   0.319016 0.503139 0.109424 -0.230206
C4    C     C_R   0.640510 0.626198 0.909338 -0.229045
C5    C     C_R   0.217020 0.487159 0.069597 -0.247386
C6    C     C_R   0.742127 0.641800 0.949718 -0.242137
C7    C     C_R   0.534685 0.932779 0.565858 -0.230893
C8    C     C_R   0.465576 0.067135 0.433864 -0.231155
C9    C     C_R   0.536180 0.062239 0.568898 0.187913
C10   C     C_R   0.464275 0.937644 0.430748 0.186196
C11   C     C_R   0.501548 0.127921 0.501791 -0.075642
C12   C     C_R   0.498671 0.872008 0.497962 -0.075378
C13   C     C_R   0.973184 0.436888 0.431053 0.239810
C14   C     C_R   0.026985 0.563894 0.568550 0.240022
C15   C     C_R   0.115924 0.436766 0.432105 -0.112037
C16   C     C_R   0.884141 0.563535 0.567719 -0.105545
C17   C     C_R   0.407466 0.501839 0.676348 0.861342
C18   C     C_R   0.592449 0.500540 0.323683 0.860502
C19   C     C_R   0.348444 0.509457 0.778769 -0.061452
C20   C     C_R   0.648831 0.517161 0.222298 -0.062723
C21   C     C_R   0.160221 0.470572 0.931888 -0.211345
C22   C     C_R   0.815070 0.614250 0.080574 -0.216378
C23   C     C_R   0.205293 0.473877 0.834650 -0.208568
C24   C     C_R   0.782260 0.575787 0.172471 -0.220149
C25   C     C_R   0.443028 0.547662 0.820549 -0.259752
C26   C     C_R   0.552185 0.493486 0.179069 -0.250557
C27   C     C_R   0.401609 0.543491 0.917623 0.095788
C28   C     C_R   0.574960 0.543279 0.091599 0.097539
C29   C     C_R   0.258511 0.501602 0.973477 0.176123
C30   C     C_R   0.711671 0.599477 0.040090 0.174414
C31   C     C_R   0.502835 0.569993 0.959327 0.069397
C32   C     C_R   0.465481 0.537485 0.054258 0.069506
H1    H     H_    0.106811 0.458589 0.113709 0.148834
H2    H     H_    0.845606 0.686181 0.909601 0.151343
H3    H     H_    0.456643 0.438494 0.216681 0.142268
H4    H     H_    0.552670 0.573059 0.775078 0.149327
H5    H     H_    0.857895 0.595976 0.205399 0.154334
H6    H     H_    0.130842 0.443603 0.803291 0.152984
H7    H     H_    0.050871 0.438401 0.974174 0.152168
H8    H     H_    0.918601 0.659640 0.042467 0.149382
H9    H     H_    0.278884 0.490639 0.184349 0.150277
H10   H     H_    0.671282 0.663331 0.839793 0.139195
H11   H     H_    0.559895 0.878673 0.616903 0.146535
H12   H     H_    0.440341 0.121236 0.382830 0.146706
H13   H     H_    0.206019 0.386880 0.377916 0.138941
H14   H     H_    0.794144 0.613797 0.621693 0.136875
N1    N     N_R   0.142780 0.500030 0.500020 -0.093519
N2    N     N_R   0.857220 0.499970 0.499980 -0.093572
O1    O     O_R   0.385370 0.683250 0.500010 -0.616591
O2    O     O_R   0.614630 0.316750 0.499990 -0.615645
O3    O     O_R   0.614700 0.683220 0.500000 -0.614093
O4    O     O_R   0.385300 0.316780 0.500000 -0.612986
O5    O     O_R   0.319830 0.500020 0.632250 -0.612522
O6    O     O_R   0.680170 0.499980 0.367750 -0.613393
O7    O     O_R   0.549160 0.499990 0.632240 -0.618378
O8    O     O_R   0.450840 0.500010 0.367760 -0.617094
Zn1   Zn    Zn3+2 0.346870 0.500020 0.500000 0.935952
Zn2   Zn    Zn3+2 0.653130 0.499980 0.500000 0.935183
C33   C     C_3   0.569425 0.127678 0.644943 -0.868726
H15   H     H_    0.674413 0.178484 0.613495 0.260379
H16   H     H_    0.479140 0.195339 0.684250 0.230417
H17   H     H_    0.580455 0.059907 0.696053 0.228331
C34   C     C_3   0.431592 0.872108 0.354497 -0.865555
H18   H     H_    0.522231 0.804741 0.315180 0.233887
H19   H     H_    0.326833 0.820936 0.385734 0.259545
H20   H     H_    0.420450 0.939865 0.303419 0.228934
C35   C     C_3   0.953714 0.370171 0.351197 -0.855563
H21   H     H_    0.052420 0.312262 0.309070 0.195436
H22   H     H_    0.859986 0.305850 0.377376 0.270958
H23   H     H_    0.938449 0.440118 0.303144 0.239531
C36   C     C_3   0.046812 0.632790 0.647455 -0.848476
H24   H     H_    0.948028 0.690847 0.689227 0.190576
H25   H     H_    0.062668 0.564275 0.696049 0.243096
H26   H     H_    0.140137 0.697371 0.620418 0.268913

loop_
_geom_bond_atom_site_label_1
_geom_bond_atom_site_label_2
_ccdc_geom_bond_type
C36   H26   S    
C19   C23   A    
C34   H19   S    
N2    Zn2   S    
C14   N1    A    
C14   C16   A    
C7    H11   S    
N1    Zn1   S    
C23   H6    S    
C1    O3    A    
C14   C36   S    
C17   O7    A    
C18   C20   S    
C10   C34   S    
C21   H7    S    
C15   N1    A    
C3    C5    A    
C35   H23   S    
C22   H8    S    
C7    C9    A    
C16   N2    A    
C28   C30   A    
C24   H5    S    
C34   H20   S    
C36   H24   S    
C20   C26   A    
O3    Zn2   S    
O8    Zn1   S    
C35   H22   S    
C18   O8    A    
C9    C11   A    
C8    H12   S    
C7    C12   A    
C1    C12   S    
C2    O4    A    
C8    C11   A    
C2    C11   S    
C10   C12   A    
C28   C32   A    
C4    C6    A    
C26   C28   A    
C6    C30   A    
C18   O6    A    
C5    C29   A    
C13   C15   A    
C21   C23   A    
C13   C35   S    
C3    C32   A    
C19   C25   A    
C4    H10   S    
C22   C24   A    
C33   H16   S    
C4    C31   A    
C25   C27   A    
O4    Zn1   S    
C15   H13   S    
C25   H4    S    
C27   C31   A    
C35   H21   S    
O2    Zn2   S    
C17   O5    A    
C26   H3    S    
C33   H15   S    
O1    Zn1   S    
C27   C29   A    
C8    C10   A    
O6    Zn2   S    
O7    Zn2   S    
C16   H14   S    
C2    O2    A    
C36   H25   S    
C20   C24   A    
C3    H9    S    
C33   H17   S    
O5    Zn1   S    
C22   C30   A    
C17   C19   S    
C21   C29   A    
C31   C32   A    
C6    H2    S    
C5    H1    S    
C34   H18   S    
C9    C33   S    
C13   N2    A    
C1    O1    A    
