data_mof_unit_31684.cif
_audit_creation_date              2012-12-11T16:28:02-0500
_audit_creation_method            fapswitch 2.2
_symmetry_space_group_name_H-M    P1
_symmetry_Int_Tables_number       1
_space_group_crystal_system       triclinic
_cell_length_a                    30.160808
_cell_length_b                    22.497672
_cell_length_c                    18.139753
_cell_angle_alpha                 89.970306
_cell_angle_beta                  123.53348
_cell_angle_gamma                 89.934743
_cell_volume                      10260.0562725

loop_
_atom_site_label
_atom_site_type_symbol
_atom_type_description
_atom_site_fract_x
_atom_site_fract_y
_atom_site_fract_z
_atom_type_partial_charge
C1    C     C_R   0.544233 0.580692 0.742390 -0.131354
C2    C     C_R   0.637445 0.284635 0.428142 -0.199765
C3    C     C_R   0.800539 0.628094 0.028564 -0.191184
C4    C     C_R   0.300943 0.870158 0.023113 -0.201722
C5    C     C_R   0.769738 0.295150 0.178729 -0.205926
C6    C     C_R   0.769003 0.708541 0.172453 -0.172159
C7    C     C_R   0.299660 0.136839 0.015451 -0.199628
C8    C     C_R   0.852762 0.353600 0.066578 -0.225498
C9    C     C_R   0.221892 0.817079 0.144265 -0.188402
C10   C     C_R   0.221934 0.190037 0.139038 -0.209816
C11   C     C_R   0.850351 0.650830 0.056819 -0.211197
C12   C     C_R   0.349341 0.844898 0.047819 -0.203790
C13   C     C_R   0.611285 0.730989 0.416677 -0.141744
C14   C     C_R   0.717646 0.313546 0.143438 -0.223501
C15   C     C_R   0.717911 0.688155 0.140616 -0.188964
C16   C     C_R   0.346293 0.164234 0.035492 -0.196364
C17   C     C_R   0.575972 0.610095 0.427574 -0.096820
C18   C     C_R   0.419549 0.393789 0.573687 -0.102832
C19   C     C_R   0.405618 0.586030 0.573032 -0.106892
C20   C     C_R   0.577418 0.391176 0.426948 -0.130994
C21   C     C_R   0.095535 0.084743 0.428034 -0.118081
C22   C     C_R   0.908081 0.911106 0.574873 -0.109805
C23   C     C_R   0.905746 0.081596 0.575570 -0.118558
C24   C     C_R   0.386869 0.263081 0.557765 -0.123541
C25   C     C_R   0.084372 0.896050 0.428650 -0.119458
C26   C     C_R   0.389103 0.603075 0.281547 -0.127339
C27   C     C_R   0.618339 0.418381 0.742849 -0.064881
C28   C     C_R   0.618263 0.580948 0.743095 -0.148772
C29   C     C_R   0.385987 0.404453 0.269582 -0.128816
C30   C     C_R   0.893340 0.108721 0.293092 -0.119758
C31   C     C_R   0.118489 0.919503 0.743166 -0.127898
C32   C     C_R   0.118221 0.082387 0.741416 -0.121025
C33   C     C_R   0.890600 0.894984 0.285234 -0.121573
C34   C     C_R   0.597954 0.594940 0.793731 0.066889
C35   C     C_R   0.820290 0.149807 0.576267 -0.153969
C36   C     C_R   0.410945 0.378236 0.232393 0.056189
C37   C     C_R   0.414377 0.630508 0.245478 0.059146
C38   C     C_R   0.598185 0.404344 0.793681 0.061928
C39   C     C_R   0.098393 0.095879 0.792974 0.057709
C40   C     C_R   0.917383 0.865406 0.253335 0.055450
C41   C     C_R   0.922226 0.140838 0.267227 0.052575
C42   C     C_R   0.098597 0.906094 0.794535 0.060017
C43   C     C_R   0.609255 0.645266 0.501073 0.039216
C44   C     C_R   0.379023 0.364250 0.499049 0.022402
C45   C     C_R   0.356504 0.602383 0.498540 0.027922
C46   C     C_R   0.115800 0.764849 0.446889 -0.137378
C47   C     C_R   0.613194 0.357847 0.500556 0.069831
C48   C     C_R   0.144125 0.101958 0.502831 0.023893
C49   C     C_R   0.860678 0.891599 0.501606 0.012385
C50   C     C_R   0.855438 0.094065 0.503821 0.032467
C51   C     C_R   0.123733 0.866038 0.504041 0.022506
C52   C     C_R   0.223293 0.670180 0.422845 -0.143187
C53   C     C_R   0.675740 0.204807 0.568727 -0.294306
C54   C     C_R   0.687529 0.788479 0.572205 -0.144754
C55   C     C_R   0.281640 0.237137 0.424682 -0.152331
C56   C     C_R   0.716554 0.110948 0.454685 -0.166525
C57   C     C_R   0.201367 0.098141 0.444529 -0.143442
C58   C     C_R   0.221358 0.739274 0.579300 -0.137186
C59   C     C_R   0.276732 0.171756 0.579807 -0.137310
C60   C     C_R   0.746022 0.795740 0.451454 -0.146448
C61   C     C_R   0.268583 0.655441 0.424030 -0.016867
C62   C     C_R   0.647445 0.255042 0.566010 -0.021301
C63   C     C_R   0.657746 0.742134 0.575946 -0.036012
C64   C     C_R   0.301289 0.293791 0.427804 -0.046966
C65   C     C_R   0.758548 0.085675 0.453033 -0.041343
C66   C     C_R   0.201589 0.796006 0.575744 -0.043164
C67   C     C_R   0.230888 0.157132 0.577010 -0.044590
C68   C     C_R   0.795552 0.900353 0.542058 -0.147661
C69   C     C_R   0.791465 0.814447 0.455984 -0.025641
C70   C     C_R   0.308603 0.620397 0.494849 0.026941
C71   C     C_R   0.631997 0.297951 0.498374 0.116197
C72   C     C_R   0.625011 0.707450 0.498698 0.025717
C73   C     C_R   0.354839 0.306900 0.495412 0.026882
C74   C     C_R   0.810447 0.109069 0.510415 0.019344
C75   C     C_R   0.148047 0.808883 0.508182 0.028581
C76   C     C_R   0.192369 0.120130 0.507709 0.031624
C77   C     C_R   0.815881 0.867707 0.501062 0.027600
C78   C     C_2   0.275419 0.682974 0.356397 0.443510
C79   C     C_R   0.257477 0.618143 0.561164 -0.172947
C80   C     C_2   0.634306 0.259528 0.633382 0.465182
C81   C     C_2   0.659928 0.732843 0.658750 0.475274
C82   C     C_2   0.263141 0.339888 0.367096 0.459497
C83   C     C_2   0.747774 0.034157 0.394330 0.477672
C84   C     C_2   0.239192 0.842365 0.636471 0.470227
C85   C     C_2   0.221685 0.186711 0.640778 0.468200
C86   C     C_2   0.814013 0.776782 0.416904 0.454413
C87   C     C_R   0.662646 0.232994 0.429072 -0.151110
C88   C     C_R   0.638685 0.778957 0.413328 -0.168255
C89   C     C_R   0.459751 0.405972 0.269593 -0.122315
C90   C     C_R   0.365420 0.208249 0.557118 -0.177034
C91   C     C_R   0.778813 0.172126 0.579876 -0.161861
C92   C     C_R   0.137028 0.709636 0.448671 -0.176920
C93   C     C_R   0.245740 0.116184 0.445451 -0.178161
C94   C     C_R   0.750488 0.880686 0.537784 -0.150701
C95   C     C_R   0.219582 0.655482 0.494164 0.070052
C96   C     C_R   0.684418 0.194774 0.501605 0.145111
C97   C     C_R   0.680970 0.803056 0.491795 0.074188
C98   C     C_R   0.312193 0.195993 0.492195 0.075199
C99   C     C_R   0.726690 0.155197 0.516248 0.069620
C100  C     C_R   0.460618 0.598256 0.274351 -0.140377
C101  C     C_R   0.190414 0.697540 0.513095 0.073556
C102  C     C_R   0.282406 0.154944 0.511208 0.074744
C103  C     C_R   0.725305 0.828663 0.491524 0.084366
C104  C     C_R   0.398996 0.687314 0.196433 0.131801
C105  C     C_R   0.629673 0.387582 0.888520 0.124724
C106  C     C_R   0.629540 0.611083 0.888589 0.126147
C107  C     C_R   0.393852 0.323534 0.179098 0.131528
C108  C     C_R   0.908273 0.200121 0.224436 0.129776
C109  C     C_R   0.130945 0.891204 0.889953 0.127336
C110  C     C_R   0.130835 0.111994 0.887851 0.127752
C111  C     C_R   0.544581 0.419417 0.742764 -0.130327
C112  C     C_R   0.902356 0.807735 0.206531 0.132088
C113  C     C_R   0.411648 0.763317 0.114766 -0.196805
C114  C     C_R   0.634585 0.352379 0.019445 -0.205779
C115  C     C_R   0.635185 0.646367 0.019990 -0.197512
C116  C     C_R   0.405396 0.248757 0.094923 -0.190078
C117  C     C_R   0.920946 0.278791 0.146170 -0.206346
C118  C     C_R   0.138677 0.859595 0.024676 -0.195680
C119  C     C_R   0.139107 0.145223 0.022330 -0.199654
C120  C     C_R   0.915506 0.729298 0.128584 -0.200700
C121  C     C_R   0.426724 0.709625 0.160675 -0.172787
C122  C     C_R   0.044700 0.080883 0.742684 -0.129587
C123  C     C_R   0.604838 0.373964 0.932964 -0.163882
C124  C     C_R   0.605139 0.624203 0.933894 -0.165808
C125  C     C_R   0.420003 0.302739 0.139860 -0.169051
C126  C     C_R   0.937914 0.225985 0.194454 -0.166530
C127  C     C_R   0.107721 0.880719 0.937830 -0.165194
C128  C     C_R   0.107977 0.122970 0.936193 -0.167258
C129  C     C_R   0.931479 0.782821 0.174869 -0.175163
C130  C     C_R   0.357854 0.721227 0.189540 -0.250356
C131  C     C_R   0.685169 0.382792 0.934289 -0.255837
C132  C     C_R   0.684873 0.616265 0.933301 -0.236814
C133  C     C_R   0.963382 0.897833 0.281244 -0.133293
C134  C     C_R   0.354190 0.288664 0.175245 -0.238056
C135  C     C_R   0.863640 0.230399 0.210820 -0.251203
C136  C     C_R   0.186025 0.884543 0.932710 -0.248466
C137  C     C_R   0.185718 0.119177 0.929561 -0.247906
C138  C     C_R   0.859012 0.776377 0.195608 -0.242919
C139  C     C_R   0.341647 0.775139 0.142818 0.084463
C140  C     C_R   0.715838 0.360693 0.021108 0.083198
C141  C     C_R   0.715701 0.639245 0.019210 0.083536
C142  C     C_R   0.338516 0.234453 0.129821 0.080487
C143  C     C_R   0.845178 0.282989 0.160730 0.080660
C144  C     C_R   0.967569 0.107341 0.292715 -0.130022
C145  C     C_R   0.217679 0.862801 0.019224 0.086348
C146  C     C_R   0.217443 0.142430 0.014962 0.084320
C147  C     C_R   0.841923 0.722721 0.148569 0.087484
C148  C     C_R   0.368150 0.795062 0.102747 0.180107
C149  C     C_R   0.689449 0.343094 0.062258 0.185999
C150  C     C_R   0.689753 0.656863 0.061096 0.160091
C151  C     C_R   0.363960 0.215310 0.087532 0.178045
C152  C     C_R   0.873528 0.305871 0.125548 0.185306
C153  C     C_R   0.192928 0.847600 0.063914 0.155008
C154  C     C_R   0.193057 0.158064 0.060104 0.169833
C155  C     C_R   0.044710 0.919958 0.743157 -0.127045
C156  C     C_R   0.869812 0.700320 0.112243 0.186431
C157  C     C_R   0.296051 0.806116 0.126576 0.046488
C158  C     C_R   0.771040 0.349131 0.063623 0.072990
C159  C     C_R   0.770288 0.652540 0.059032 0.078611
C160  C     C_R   0.294580 0.202044 0.117628 0.059497
C161  C     C_R   0.795978 0.309256 0.136199 0.070807
C162  C     C_R   0.271695 0.847850 0.056697 0.070394
C163  C     C_R   0.270829 0.158791 0.050066 0.068887
C164  C     C_R   0.794481 0.694429 0.128638 0.047151
C165  C     C_R   0.624618 0.609758 0.574297 -0.144571
C166  C     C_R   0.301404 0.600005 0.560801 -0.143337
C167  C     C_R   0.369293 0.395492 0.426012 -0.126972
C168  C     C_R   0.356077 0.583482 0.425985 -0.160252
C169  C     C_R   0.626817 0.391591 0.574222 -0.052887
C170  C     C_R   0.143745 0.084082 0.574985 -0.145594
C171  C     C_R   0.857841 0.912054 0.427324 -0.168696
C172  C     C_R   0.854954 0.080630 0.428677 -0.149923
C173  C     C_R   0.130958 0.895741 0.576129 -0.134286
C174  C     C_R   0.801535 0.373908 0.033911 -0.212127
C175  C     C_R   0.272221 0.794713 0.173843 -0.174368
C176  C     C_R   0.271438 0.213595 0.166071 -0.186171
H1    H     H_    0.517671 0.577541 0.764657 0.085990
H2    H     H_    0.336776 0.703737 0.216923 0.121890
H3    H     H_    0.270568 0.386572 0.384478 0.027139
H4    H     H_    0.780020 0.006079 0.404956 0.019793
H5    H     H_    0.230336 0.889133 0.620649 0.018993
H6    H     H_    0.181826 0.191401 0.626190 0.029029
H7    H     H_    0.849639 0.790074 0.420320 0.029503
H8    H     H_    0.334543 0.305219 0.205684 0.119534
H9    H     H_    0.703309 0.607602 0.898021 0.119123
H10   H     H_    0.203565 0.890617 0.895490 0.118710
H11   H     H_    0.841104 0.210307 0.233764 0.116774
H12   H     H_    0.836792 0.795913 0.219530 0.110614
H13   H     H_    0.202924 0.112405 0.892003 0.120064
H14   H     H_    0.562213 0.377646 0.900258 0.113968
H15   H     H_    0.459530 0.685446 0.166577 0.112120
H16   H     H_    0.451504 0.328118 0.143232 0.113739
H17   H     H_    0.486179 0.402379 0.247330 0.080579
H18   H     H_    0.562631 0.619895 0.902028 0.114642
H19   H     H_    0.065445 0.886324 0.907505 0.113459
H20   H     H_    0.973174 0.204659 0.205249 0.116640
H21   H     H_    0.965939 0.804954 0.183905 0.113285
H22   H     H_    0.065849 0.116858 0.906701 0.112753
H23   H     H_    0.432660 0.778786 0.085557 0.129908
H24   H     H_    0.614217 0.339952 0.051082 0.123079
H25   H     H_    0.615167 0.658717 0.052258 0.123994
H26   H     H_    0.425399 0.234048 0.063601 0.128780
H27   H     H_    0.943377 0.296667 0.120831 0.128604
H28   H     H_    0.485841 0.602230 0.249821 0.083982
H29   H     H_    0.119545 0.849165 0.059047 0.125631
H30   H     H_    0.120249 0.156008 0.057041 0.126032
H31   H     H_    0.937610 0.711874 0.102350 0.127347
H32   H     H_    0.786578 0.409460 0.985852 0.129616
H33   H     H_    0.292034 0.768854 0.234035 0.155484
H34   H     H_    0.290860 0.240764 0.224906 0.147080
H35   H     H_    0.786369 0.591115 0.983065 0.126212
H36   H     H_    0.286880 0.907169 0.977504 0.133104
H37   H     H_    0.789015 0.270395 0.239941 0.135020
H38   H     H_    0.788027 0.735124 0.231706 0.167991
H39   H     H_    0.518434 0.423256 0.765777 0.081015
H40   H     H_    0.286446 0.098683 0.972145 0.131857
H41   H     H_    0.653124 0.619792 0.642849 0.099991
H42   H     H_    0.340371 0.384746 0.358090 0.089624
H43   H     H_    0.321454 0.578634 0.359341 0.104694
H44   H     H_    0.655060 0.380063 0.642638 0.090084
H45   H     H_    0.177749 0.080566 0.642500 0.097108
H46   H     H_    0.822697 0.913027 0.360711 0.105348
H47   H     H_    0.820328 0.078619 0.361642 0.092749
H48   H     H_    0.157685 0.884179 0.644972 0.100932
H49   H     H_    0.561193 0.620766 0.360431 0.083459
H50   H     H_    0.018616 0.077629 0.765901 0.084322
H51   H     H_    0.437099 0.381558 0.642030 0.094873
H52   H     H_    0.416702 0.585979 0.640810 0.088481
H53   H     H_    0.560989 0.378788 0.359565 0.093348
H54   H     H_    0.085872 0.083094 0.361128 0.086014
H55   H     H_    0.919483 0.910390 0.642834 0.094533
H56   H     H_    0.917679 0.078711 0.643729 0.089066
H57   H     H_    0.072291 0.886258 0.362005 0.088809
H58   H     H_    0.350811 0.613357 0.270013 0.098637
H59   H     H_    0.659605 0.421657 0.765014 0.062092
H60   H     H_    0.659509 0.577037 0.765365 0.091988
H61   H     H_    0.990666 0.890596 0.261622 0.084158
H62   H     H_    0.344669 0.400276 0.246545 0.095577
H63   H     H_    0.855994 0.120293 0.284233 0.096912
H64   H     H_    0.159609 0.924073 0.765077 0.086989
H65   H     H_    0.159173 0.079845 0.761647 0.088704
H66   H     H_    0.852349 0.884703 0.273554 0.091327
H67   H     H_    0.194552 0.700777 0.372841 0.157916
H68   H     H_    0.692166 0.174141 0.623988 0.124120
H69   H     H_    0.718054 0.810474 0.632351 0.157591
H70   H     H_    0.239797 0.228070 0.376952 0.157866
H71   H     H_    0.675830 0.097650 0.406826 0.164566
H72   H     H_    0.998943 0.118746 0.283618 0.093020
H73   H     H_    0.263290 0.730297 0.626621 0.161811
H74   H     H_    0.304399 0.203588 0.628505 0.160673
H75   H     H_    0.727452 0.754107 0.418958 0.163587
H76   H     H_    0.330765 0.571891 0.614132 0.116914
H77   H     H_    0.625575 0.315984 0.375040 0.116697
H78   H     H_    0.582751 0.710005 0.354582 0.111419
H79   H     H_    0.428078 0.272004 0.608977 0.131030
H80   H     H_    0.859889 0.167193 0.622001 0.121794
H81   H     H_    0.074498 0.773812 0.395879 0.124005
H82   H     H_    0.173071 0.068742 0.392311 0.115475
H83   H     H_    0.018381 0.923456 0.765860 0.084068
H84   H     H_    0.814219 0.941500 0.576256 0.115269
H85   H     H_    0.786886 0.206975 0.626970 0.122826
H86   H     H_    0.113205 0.678157 0.396019 0.128665
H87   H     H_    0.249246 0.103979 0.391104 0.125446
H88   H     H_    0.735272 0.905840 0.570152 0.121913
H89   H     H_    0.255339 0.607394 0.617346 0.128897
H90   H     H_    0.670004 0.226029 0.377581 0.123099
H91   H     H_    0.631703 0.791902 0.350157 0.127431
H92   H     H_    0.388958 0.177218 0.610778 0.129945
H93   H     H_    0.874689 0.372622 0.041009 0.133247
H94   H     H_    0.703897 0.391754 0.899511 0.112599
H95   H     H_    0.204065 0.806455 0.180657 0.169356
H96   H     H_    0.204489 0.201054 0.175933 0.154214
H97   H     H_    0.872041 0.632096 0.030608 0.133122
H98   H     H_    0.370141 0.861815 0.018980 0.142854
H99   H     H_    0.698299 0.301052 0.176768 0.132571
H100  H     H_    0.699034 0.700844 0.174652 0.151792
H101  H     H_    0.366527 0.147741 0.005427 0.140270
H102  H     H_    0.314715 0.689297 0.369195 0.012450
H103  H     H_    0.659173 0.237223 0.696630 0.010898
H104  H     H_    0.627173 0.711295 0.656895 0.020596
N1    N     N_R   0.532910 0.558440 0.665240 -0.040849
N2    N     N_R   0.402970 0.441090 0.454460 -0.036339
N3    N     N_R   0.402970 0.558910 0.454460 -0.037647
N4    N     N_R   0.597030 0.441090 0.545540 -0.049431
N5    N     N_R   0.097030 0.058910 0.545540 -0.036132
N6    N     N_R   0.902970 0.941090 0.454460 -0.033898
N7    N     N_R   0.902970 0.058910 0.454460 -0.036138
N8    N     N_R   0.097030 0.941090 0.545540 -0.037524
N9    N     N_R   0.566200 0.559270 0.454460 -0.044940
N10   N     N_R   0.433800 0.440730 0.545540 -0.040900
N11   N     N_R   0.433800 0.559270 0.545540 -0.042064
N12   N     N_R   0.467090 0.441560 0.334760 -0.035924
N13   N     N_R   0.566200 0.440730 0.454460 -0.043873
N14   N     N_R   0.066200 0.059270 0.454460 -0.039588
N15   N     N_R   0.933800 0.940730 0.545540 -0.038880
N16   N     N_R   0.933800 0.059270 0.545540 -0.038433
N17   N     N_R   0.066200 0.940730 0.454460 -0.038480
N18   N     N_R   0.421050 0.559750 0.334770 -0.040208
N19   N     N_R   0.578950 0.440250 0.665230 -0.032348
N20   N     N_R   0.578950 0.559750 0.665230 -0.043084
N21   N     N_R   0.421050 0.440250 0.334770 -0.036483
N22   N     N_R   0.921050 0.059750 0.334770 -0.041100
N23   N     N_R   0.467090 0.558440 0.334760 -0.039802
N24   N     N_R   0.078950 0.940250 0.665230 -0.039233
N25   N     N_R   0.078950 0.059750 0.665230 -0.040315
N26   N     N_R   0.921050 0.940250 0.334770 -0.039750
N27   N     N_R   0.532910 0.441560 0.665240 -0.034624
N28   N     N_R   0.032910 0.058440 0.665240 -0.039426
N29   N     N_R   0.967090 0.941560 0.334760 -0.039434
N30   N     N_R   0.967090 0.058440 0.334760 -0.041624
N31   N     N_R   0.032910 0.941560 0.665240 -0.038971
N32   N     N_R   0.597030 0.558910 0.545540 -0.042894
Ni1   Ni    Ni4+2 0.483090 0.500000 0.604440 0.213381
Ni2   Ni    Ni4+2 0.516910 0.500000 0.395560 0.219030
Ni3   Ni    Ni4+2 0.983090 0.000000 0.604440 0.205729
Ni4   Ni    Ni4+2 0.016910 0.000000 0.395560 0.212964
Ni5   Ni    Ni4+2 0.586780 0.500000 0.604440 0.217401
Ni6   Ni    Ni4+2 0.413220 0.500000 0.395560 0.226322
Ni7   Ni    Ni4+2 0.086780 0.000000 0.604440 0.213088
Ni8   Ni    Ni4+2 0.913220 0.000000 0.395560 0.218074
O1    O     O_2   0.236946 0.699683 0.285500 -0.605223
O2    O     O_2   0.594103 0.284936 0.617372 -0.571140
O3    O     O_2   0.697534 0.750684 0.729652 -0.577348
O4    O     O_2   0.222358 0.326132 0.297316 -0.588342
O5    O     O_2   0.702425 0.021455 0.334512 -0.578485
O6    O     O_2   0.281135 0.828797 0.704585 -0.580956
O7    O     O_2   0.258678 0.207171 0.710202 -0.580842
O8    O     O_2   0.793365 0.729563 0.381290 -0.600382

loop_
_geom_bond_atom_site_label_1
_geom_bond_atom_site_label_2
_ccdc_geom_bond_type
C36   C89   A    
C94   H88   S    
C85   H6    S    
N25   Ni7   S    
C31   C42   A    
C82   O4    D    
C53   H68   S    
C10   C154  A    
C105  C131  A    
N30   Ni4   S    
C106  C132  A    
N9    Ni2   S    
C83   H4    S    
C57   C76   A    
C42   C109  S    
C111  H39   S    
C52   C61   A    
C54   C63   A    
C96   C99   S    
C105  C123  A    
C118  C153  A    
C11   H97   S    
C131  C140  A    
C109  C127  A    
C1    C34   A    
C112  C129  A    
C4    C12   A    
C60   C103  A    
C117  C126  A    
C167  H42   S    
C88   C97   A    
C21   C48   A    
C84   O6    D    
C119  C128  A    
N9    N32   A    
N16   Ni3   S    
C174  H32   S    
C20   N13   A    
C22   N15   A    
C32   N25   A    
C67   C85   S    
C34   C106  S    
C160  C163  A    
C112  C138  A    
C137  C146  A    
C78   H102  S    
C134  H8    S    
C68   H84   S    
C98   C102  S    
C7    C163  A    
C166  H76   S    
N22   Ni8   S    
C5    C161  A    
C142  C151  A    
C17   C43   A    
C127  H19   S    
C89   N12   A    
C146  C154  A    
C89   H17   S    
C59   H74   S    
C113  H23   S    
C88   H91   S    
C58   C101  A    
C47   C71   S    
C97   C103  S    
C22   C49   A    
C86   H7    S    
C2    C71   A    
C68   C77   A    
C20   H53   S    
C136  H10   S    
C59   C102  A    
N7    Ni8   S    
N8    Ni7   S    
C86   O8    D    
C24   C90   A    
C37   C104  S    
C13   C72   A    
C81   O3    D    
N11   Ni1   S    
C172  H47   S    
N23   Ni2   S    
C1    N1    A    
N19   N27   A    
C21   H54   S    
C115  H25   S    
C14   C149  A    
C16   C151  A    
C20   C47   A    
C3    C11   A    
C18   H51   S    
C87   H90   S    
C169  H44   S    
C139  C157  A    
C106  C124  A    
C108  C126  A    
C173  H48   S    
C157  C162  A    
C143  C161  A    
C129  H21   S    
C110  C128  A    
C31   H64   S    
N31   Ni3   S    
N26   Ni8   S    
C48   C76   S    
C69   C77   A    
C171  N6    A    
C40   C112  S    
C111  N27   A    
C18   N10   A    
C39   C122  A    
C113  C148  A    
C62   C80   S    
C8    C152  A    
C107  C134  A    
N12   Ni2   S    
C50   C74   S    
C8    C174  A    
C55   C98   A    
C54   H69   S    
C59   C67   A    
C17   H49   S    
C141  C159  A    
C78   O1    D    
C80   H103  S    
C64   C73   A    
C30   C41   A    
C61   C78   S    
C7    H40   S    
C91   H85   S    
C165  H41   S    
C26   H58   S    
C135  C143  A    
C9    C153  A    
C114  H24   S    
C55   C64   A    
C122  N28   A    
C44   C73   S    
C133  H61   S    
N1    N20   A    
C135  H11   S    
C46   C75   A    
C47   C169  A    
C30   N22   A    
C141  C150  A    
C3    H35   S    
C139  C148  A    
C33   C40   A    
C120  C129  A    
C2    C87   A    
C107  C125  A    
C108  C135  A    
C52   H67   S    
N24   Ni7   S    
C68   C94   A    
C65   C74   A    
C82   H3    S    
C138  H12   S    
N28   Ni3   S    
C155  H83   S    
N12   N21   A    
C3    C159  A    
C123  H14   S    
C28   H60   S    
C114  C123  A    
C116  C125  A    
C170  N5    A    
C118  C127  A    
C124  H18   S    
C29   H62   S    
C132  C141  A    
N13   Ni2   S    
C158  C174  A    
C132  H9    S    
C121  H15   S    
C19   C45   A    
C168  N3    A    
C38   C105  S    
N2    Ni6   S    
C131  H94   S    
C60   C69   A    
C13   H78   S    
C49   C77   S    
C62   C71   A    
C9    C175  A    
N18   N23   A    
C175  H33   S    
C45   C168  A    
C128  H22   S    
C126  H20   S    
C113  C121  A    
C25   N17   A    
C159  C164  A    
C58   H73   S    
C50   C172  A    
C56   C99   A    
C91   C99   A    
C33   N26   A    
C140  C149  A    
C28   N20   A    
C116  C151  A    
C95   C101  S    
C10   H96   S    
C61   C70   A    
C35   C74   A    
C83   O5    D    
C24   C73   A    
C46   C92   A    
C27   C38   A    
C122  H50   S    
C120  C156  A    
C52   C95   A    
C32   C39   A    
C130  H2    S    
C158  C161  A    
C22   H55   S    
C55   H70   S    
N5    N14   A    
C60   H75   S    
N8    N17   A    
C54   C97   A    
N27   Ni1   S    
C13   C88   A    
N4    Ni5   S    
C147  C164  A    
C9    H95   S    
C28   C34   A    
C104  C130  A    
C53   C96   A    
C130  C139  A    
C133  N29   A    
C43   C165  A    
C56   H71   S    
N26   N29   A    
C118  H29   S    
C41   C144  A    
C12   H98   S    
C23   C50   A    
N3    N11   A    
C44   C167  A    
C90   H92   S    
C79   C95   A    
C16   H101  S    
C27   N19   A    
C134  C142  A    
C6    H38   S    
C119  H30   S    
C147  C156  A    
C5    C14   A    
C92   C101  A    
N14   Ni4   S    
C143  C152  A    
C6    C164  A    
C94   C103  A    
C119  C154  A    
C4    C162  A    
C2    H77   S    
N19   Ni5   S    
C146  C163  A    
C115  C124  A    
C45   C70   S    
C120  H31   S    
C110  C137  A    
N17   Ni4   S    
C93   C102  A    
C26   C37   A    
C100  N23   A    
C42   C155  A    
C100  H28   S    
C173  N8    A    
C66   C75   A    
N6    N15   A    
C125  H16   S    
C144  N30   A    
C168  H43   S    
C15   H100  S    
C63   C72   A    
C114  C149  A    
C15   C150  A    
C29   N21   A    
N24   N31   A    
N5    Ni7   S    
C43   C72   S    
C41   C108  S    
N6    Ni8   S    
C32   H65   S    
C81   H104  S    
C80   O2    D    
C57   H82   S    
C30   H63   S    
C29   C36   A    
C63   C81   S    
C84   H5    S    
C90   C98   A    
C51   C75   S    
C18   C44   A    
C31   N24   A    
C70   C166  A    
C65   C83   S    
C145  C162  A    
C56   C65   A    
N21   Ni6   S    
N7    N16   A    
C26   N18   A    
C51   C173  A    
C6    C15   A    
C1    H1    S    
C14   H99   S    
C58   C66   A    
C39   C110  S    
N18   Ni6   S    
C23   H56   S    
C27   H59   S    
C140  C158  A    
C46   H81   S    
C25   H57   S    
C57   C93   A    
C36   C107  S    
C160  C176  A    
C33   H66   S    
N1    Ni1   S    
N29   Ni4   S    
N2    N10   A    
C10   C176  A    
C155  N31   A    
C49   C171  A    
C172  N7    A    
C104  C121  A    
C165  N32   A    
C24   H79   S    
C19   H52   S    
C25   C51   A    
C8    H93   S    
N3    Ni6   S    
N10   Ni1   S    
C170  H45   S    
C53   C62   A    
C138  C147  A    
N25   N28   A    
N15   Ni3   S    
C87   C96   A    
N22   N30   A    
C64   C82   S    
C11   C156  A    
C157  C175  A    
C137  H13   S    
C144  H72   S    
C35   H80   S    
C48   C170  A    
C171  H46   S    
C7    C16   A    
C21   N14   A    
C136  C145  A    
C142  C160  A    
C19   N11   A    
C116  H26   S    
N20   Ni5   S    
C40   C133  A    
C4    H36   S    
C169  N4    A    
C12   C148  A    
C145  C153  A    
C17   N9    A    
N4    N13   A    
C5    H37   S    
C115  C150  A    
C79   H89   S    
C176  H34   S    
C117  C152  A    
C37   C100  A    
C79   C166  A    
C167  N2    A    
C66   C84   S    
N32   Ni5   S    
C67   C76   A    
C93   H87   S    
C38   C111  A    
C117  H27   S    
C85   O7    D    
C92   H86   S    
C69   C86   S    
C23   N16   A    
C109  C136  A    
C35   C91   A    
