data_mof_unit_8174.cif
_audit_creation_date              2013-03-05T15:46:34-0500
_audit_creation_method            fapswitch 2.2
_symmetry_space_group_name_H-M    P1
_symmetry_Int_Tables_number       1
_space_group_crystal_system       triclinic
_cell_length_a                    17.270984
_cell_length_b                    24.227693
_cell_length_c                    14.893958
_cell_angle_alpha                 90.109392
_cell_angle_beta                  125.481106
_cell_angle_gamma                 89.855594
_cell_volume                      5074.88230956

loop_
_atom_site_label
_atom_site_type_symbol
_atom_site_description
_atom_site_fract_x
_atom_site_fract_y
_atom_site_fract_z
_atom_type_partial_charge
C1    C     C_R   0.351290 0.347959 0.908521 -0.137012
C2    C     C_R   0.690556 0.375862 0.092274 -0.126656
C3    C     C_R   0.851290 0.847959 0.908521 -0.137013
C4    C     C_R   0.190556 0.875862 0.092274 -0.126656
H1    H     H_    0.313507 0.334173 0.824068 0.097530
H2    H     H_    0.748754 0.370914 0.177847 0.097043
H3    H     H_    0.813507 0.834173 0.824068 0.097530
H4    H     H_    0.248754 0.870914 0.177847 0.097043
N1    N     N_R   0.394180 0.396910 0.943210 -0.041642
N2    N     N_R   0.605820 0.396910 0.056790 -0.045661
N3    N     N_R   0.894180 0.896910 0.943210 -0.041642
N4    N     N_R   0.105820 0.896910 0.056790 -0.045661
C5    C     C_R   0.444305 0.652586 0.091289 -0.130540
C6    C     C_R   0.598264 0.623991 0.907908 -0.120576
C7    C     C_R   0.944305 0.152586 0.091289 -0.130540
C8    C     C_R   0.098264 0.123991 0.907908 -0.120576
H5    H     H_    0.491714 0.666427 0.175621 0.090139
H6    H     H_    0.570836 0.628868 0.822322 0.093226
H7    H     H_    0.991714 0.166427 0.175621 0.090139
H8    H     H_    0.070836 0.128868 0.822322 0.093226
N5    N     N_R   0.450950 0.603070 0.056740 -0.037123
N6    N     N_R   0.549050 0.603070 0.943260 -0.041625
N7    N     N_R   0.950950 0.103070 0.056740 -0.037123
N8    N     N_R   0.049050 0.103070 0.943260 -0.041625
C9    C     C_R   0.480534 0.454396 0.249812 -0.092696
C10   C     C_R   0.449761 0.454494 0.694964 -0.110616
C11   C     C_R   0.980535 0.954396 0.249812 -0.092698
C12   C     C_R   0.949761 0.954494 0.694964 -0.110612
H9    H     H_    0.472841 0.411792 0.263893 0.146567
H10   H     H_    0.435392 0.412001 0.668787 0.154861
H11   H     H_    0.972841 0.911792 0.263893 0.146570
H12   H     H_    0.935392 0.912002 0.668786 0.154855
N9    N     N_R   0.525650 0.471570 0.206150 -0.055753
N10   N     N_R   0.474350 0.471570 0.793850 -0.051564
N11   N     N_R   0.025650 0.971570 0.206150 -0.055753
N12   N     N_R   0.974350 0.971570 0.793850 -0.051564
C13   C     C_R   0.232411 0.546591 0.753296 -0.136287
C14   C     C_R   0.753101 0.546107 0.304260 -0.161284
C15   C     C_R   0.732411 0.046591 0.753296 -0.136286
C16   C     C_R   0.253101 0.046107 0.304260 -0.161284
H13   H     H_    0.214157 0.589299 0.750646 0.110425
H14   H     H_    0.758442 0.587936 0.332448 0.108275
H15   H     H_    0.714157 0.089299 0.750646 0.110425
H16   H     H_    0.258442 0.087936 0.332448 0.108275
N13   N     N_R   0.319480 0.528420 0.793810 -0.041921
N14   N     N_R   0.680520 0.528420 0.206190 -0.039527
N15   N     N_R   0.819480 0.028420 0.793810 -0.041920
N16   N     N_R   0.180520 0.028420 0.206190 -0.039527
C17   C     C_R   0.478306 0.546602 0.245519 -0.137756
C18   C     C_R   0.447567 0.545906 0.695261 -0.153432
C19   C     C_R   0.978306 0.046602 0.245519 -0.137757
C20   C     C_R   0.947567 0.045906 0.695262 -0.153434
H17   H     H_    0.465467 0.589555 0.250995 0.098771
H18   H     H_    0.426556 0.588053 0.668098 0.093190
H19   H     H_    0.965467 0.089554 0.250995 0.098771
H20   H     H_    0.926556 0.088053 0.668098 0.093191
N17   N     N_R   0.525640 0.528390 0.206120 -0.045310
N18   N     N_R   0.474360 0.528390 0.793880 -0.043845
N19   N     N_R   0.025640 0.028390 0.206120 -0.045310
N20   N     N_R   0.974360 0.028390 0.793880 -0.043845
C21   C     C_R   0.230389 0.454356 0.748616 -0.058427
C22   C     C_R   0.755369 0.454648 0.304910 -0.131365
C23   C     C_R   0.730389 0.954356 0.748616 -0.058421
C24   C     C_R   0.255369 0.954648 0.304910 -0.131365
H21   H     H_    0.208610 0.411716 0.737026 0.093285
H22   H     H_    0.765549 0.412572 0.333721 0.086072
H23   H     H_    0.708610 0.911717 0.737026 0.093285
H24   H     H_    0.265549 0.912572 0.333721 0.086072
N21   N     N_R   0.319490 0.471590 0.793840 -0.040090
N22   N     N_R   0.680510 0.471590 0.206160 -0.040559
N23   N     N_R   0.819490 0.971590 0.793840 -0.040090
N24   N     N_R   0.180510 0.971590 0.206160 -0.040559
C25   C     C_R   0.352935 0.652586 0.908600 -0.138845
C26   C     C_R   0.690513 0.624035 0.092459 -0.104827
C27   C     C_R   0.852935 0.152586 0.908600 -0.138845
C28   C     C_R   0.190513 0.124035 0.092459 -0.104827
H25   H     H_    0.315931 0.666399 0.824274 0.087191
H26   H     H_    0.748657 0.628966 0.178100 0.096929
H27   H     H_    0.815931 0.166399 0.824274 0.087191
H28   H     H_    0.248657 0.128966 0.178100 0.096929
N25   N     N_R   0.394130 0.603080 0.943110 -0.038414
N26   N     N_R   0.605870 0.603080 0.056890 -0.041710
N27   N     N_R   0.894130 0.103080 0.943110 -0.038414
N28   N     N_R   0.105870 0.103080 0.056890 -0.041710
C29   C     C_R   0.442798 0.348036 0.091610 -0.066770
C30   C     C_R   0.598328 0.375831 0.907826 -0.122884
C31   C     C_R   0.942797 0.848036 0.091610 -0.066771
C32   C     C_R   0.098328 0.875831 0.907826 -0.122885
H29   H     H_    0.489502 0.334367 0.176113 0.082975
H30   H     H_    0.571009 0.370805 0.822333 0.100916
H31   H     H_    0.989502 0.834367 0.176113 0.082976
H32   H     H_    0.071009 0.870805 0.822333 0.100913
N29   N     N_R   0.450990 0.396900 0.056840 -0.043792
N30   N     N_R   0.549010 0.396900 0.943160 -0.043511
N31   N     N_R   0.950990 0.896900 0.056840 -0.043792
N32   N     N_R   0.049010 0.896900 0.943160 -0.043511
C33   C     C_R   0.381189 0.315985 0.000106 0.054527
C34   C     C_R   0.688786 0.363079 0.000082 0.043845
C35   C     C_R   0.881189 0.815985 0.000106 0.054527
C36   C     C_R   0.188786 0.863079 0.000082 0.043845
C37   C     C_R   0.383609 0.684883 0.999966 0.053195
C38   C     C_R   0.688628 0.636810 0.000258 0.042740
C39   C     C_R   0.883609 0.184883 0.999966 0.053195
C40   C     C_R   0.188628 0.136810 0.000258 0.042740
C41   C     C_R   0.447645 0.501070 0.273061 0.127095
C42   C     C_R   0.430520 0.500509 0.630108 0.124571
C43   C     C_R   0.947645 0.001070 0.273061 0.127096
C44   C     C_R   0.930520 0.000510 0.630108 0.124576
C45   C     C_R   0.174012 0.501093 0.723132 0.062754
C46   C     C_R   0.802263 0.500853 0.368468 0.085269
C47   C     C_R   0.674012 0.001093 0.723132 0.062753
C48   C     C_R   0.302263 0.000853 0.368468 0.085269
Ni1   Ni    Ni4+2 0.434860 0.434850 0.869700 0.241037
Ni2   Ni    Ni4+2 0.565140 0.434850 0.130300 0.212696
Ni3   Ni    Ni4+2 0.934860 0.934850 0.869700 0.241038
Ni4   Ni    Ni4+2 0.065140 0.934850 0.130300 0.212696
Ni5   Ni    Ni4+2 0.565130 0.565140 0.130240 0.218259
Ni6   Ni    Ni4+2 0.434870 0.565140 0.869760 0.217171
Ni7   Ni    Ni4+2 0.065130 0.065140 0.130240 0.218259
Ni8   Ni    Ni4+2 0.934870 0.065140 0.869760 0.217172
C49   C     C_R   0.021313 0.552917 0.623698 0.164511
C50   C     C_R   0.927347 0.552638 0.534108 0.153153
C51   C     C_R   0.521313 0.052917 0.623698 0.164511
C52   C     C_R   0.427347 0.052638 0.534108 0.153152
C53   C     C_R   0.071156 0.503132 0.667244 0.038034
C54   C     C_R   0.881215 0.502672 0.485200 0.031470
C55   C     C_R   0.571156 0.003132 0.667244 0.038034
C56   C     C_R   0.381215 0.002672 0.485200 0.031470
C57   C     C_R   0.017962 0.454128 0.637757 -0.173166
C58   C     C_R   0.922793 0.453831 0.546110 -0.193428
C59   C     C_R   0.517962 0.954128 0.637757 -0.173166
C60   C     C_R   0.422793 0.953831 0.546110 -0.193427
H33   H     H_    0.051910 0.415056 0.675117 0.130945
H34   H     H_    0.887028 0.414521 0.516223 0.127068
H35   H     H_    0.551910 0.915056 0.675117 0.130944
H36   H     H_    0.387028 0.914521 0.516223 0.127068
C61   C     C_3   0.939334 0.603083 0.485434 -0.500005
C62   C     C_3   0.042112 0.603310 0.582782 -0.509843
C63   C     C_3   0.439334 0.103083 0.485434 -0.500004
C64   C     C_3   0.542112 0.103310 0.582782 -0.509841
H37   H     H_    0.930337 0.595063 0.406304 0.201131
H38   H     H_    0.060819 0.639545 0.637723 0.197614
H39   H     H_    0.430337 0.095063 0.406304 0.201131
H40   H     H_    0.560819 0.139545 0.637723 0.197614
H41   H     H_    0.898802 0.638987 0.484796 0.203910
H42   H     H_    0.090732 0.595283 0.558024 0.205187
H43   H     H_    0.398802 0.138987 0.484796 0.203910
H44   H     H_    0.590732 0.095283 0.558024 0.205187
C65   C     C_R   0.292431 0.769227 0.900203 -0.159463
C66   C     C_R   0.842771 0.685805 0.100206 -0.144556
C67   C     C_R   0.792431 0.269227 0.900203 -0.159462
C68   C     C_R   0.342771 0.185805 0.100206 -0.144556
H45   H     H_    0.269491 0.751933 0.821471 0.111861
H46   H     H_    0.863659 0.669563 0.178865 0.114040
H47   H     H_    0.769491 0.251933 0.821471 0.111862
H48   H     H_    0.363659 0.169563 0.178865 0.114041
C69   C     C_R   0.744277 0.314947 0.900289 -0.155957
C70   C     C_R   0.389877 0.231908 0.100203 -0.131484
C71   C     C_R   0.244277 0.814947 0.900289 -0.155957
C72   C     C_R   0.889877 0.731908 0.100203 -0.131484
H49   H     H_    0.686240 0.331166 0.821660 0.118839
H50   H     H_    0.445257 0.249378 0.178924 0.120195
H51   H     H_    0.186240 0.831166 0.821660 0.118837
H52   H     H_    0.945257 0.749378 0.178924 0.120195
C73   C     C_R   0.762915 0.333838 0.000082 0.130749
C74   C     C_R   0.357200 0.258226 0.000284 0.125082
C75   C     C_R   0.262915 0.833838 0.000082 0.130749
C76   C     C_R   0.857200 0.758226 0.000284 0.125082
C77   C     C_R   0.844146 0.314966 0.099849 -0.147683
C78   C     C_R   0.290355 0.231594 0.900516 -0.161245
C79   C     C_R   0.344147 0.814966 0.099849 -0.147683
C80   C     C_R   0.790355 0.731594 0.900516 -0.161245
H53   H     H_    0.864788 0.331199 0.178485 0.115732
H54   H     H_    0.267303 0.248823 0.821776 0.113650
H55   H     H_    0.364788 0.831199 0.178485 0.115732
H56   H     H_    0.767303 0.748823 0.821776 0.113650
C81   C     C_R   0.392384 0.769259 0.099862 -0.143556
C82   C     C_R   0.743280 0.685492 0.900625 -0.160360
C83   C     C_R   0.892384 0.269259 0.099862 -0.143556
C84   C     C_R   0.243280 0.185492 0.900625 -0.160359
H57   H     H_    0.448283 0.751996 0.178565 0.115373
H58   H     H_    0.685762 0.668983 0.822010 0.109473
H59   H     H_    0.948283 0.251995 0.178565 0.115373
H60   H     H_    0.185762 0.168983 0.822010 0.109473
C85   C     C_R   0.359928 0.742828 0.000013 0.132300
C86   C     C_R   0.762229 0.666480 0.000390 0.133819
C87   C     C_R   0.859928 0.242828 0.000013 0.132300
C88   C     C_R   0.262229 0.166480 0.000390 0.133819
C89   C     C_R   0.411957 0.552295 0.478394 -0.199009
C90   C     C_R   0.414166 0.552839 0.388092 -0.193949
C91   C     C_R   0.911960 0.052296 0.478396 -0.199012
C92   C     C_R   0.914169 0.052839 0.388095 -0.193948
H61   H     H_    0.432210 0.590010 0.525713 0.131392
H62   H     H_    0.435309 0.591118 0.371359 0.131964
H63   H     H_    0.932215 0.090010 0.525717 0.131392
H64   H     H_    0.935314 0.091118 0.371363 0.131964
C93   C     C_R   0.404198 0.503598 0.333221 -0.032261
C94   C     C_R   0.397576 0.502791 0.514609 -0.034413
C95   C     C_R   0.904199 0.003598 0.333223 -0.032263
C96   C     C_R   0.897576 0.002792 0.514610 -0.034407
C97   C     C_R   0.368342 0.456247 0.352704 0.209727
C98   C     C_R   0.364607 0.455891 0.444972 0.217265
C99   C     C_R   0.868341 0.956248 0.352704 0.209731
C100  C     C_R   0.864605 0.955892 0.444971 0.217256
N33   N     N_R   0.330766 0.411130 0.275774 0.242944
O1    O     O_R   0.273818 0.421053 0.170508 -0.388794
O2    O     O_R   0.362739 0.361239 0.308718 -0.366472
N34   N     N_R   0.321093 0.410893 0.462730 0.241246
O3    O     O_R   0.355968 0.361274 0.480132 -0.368492
O4    O     O_R   0.254227 0.420815 0.475981 -0.403075
N35   N     N_R   0.830765 0.911131 0.275775 0.242946
O5    O     O_R   0.773816 0.921054 0.170509 -0.388793
O6    O     O_R   0.862743 0.861240 0.308718 -0.366478
N36   N     N_R   0.821086 0.910896 0.462727 0.241245
O7    O     O_R   0.855951 0.861275 0.480116 -0.368482
O8    O     O_R   0.754229 0.920821 0.475990 -0.403080

loop_
_geom_bond_atom_site_label_1
_geom_bond_atom_site_label_2
_geom_bond_distance
_ccdc_geom_bond_type
N13   Ni6   1.852239 S    
C28   C40   1.390082 A    
C27   C39   1.380529 A    
C99   C100  1.412689 A    
C32   N32   1.334242 A    
C44   C96   1.466266 S    
C13   H13   1.075009 S    
N34   O4    1.301287 A    
C69   H49   1.080584 S    
C97   C98   1.412687 A    
C6    H6    1.078235 S    
C52   C63   1.496978 S    
C3    N3    1.334142 A    
C4    H4    1.077916 S    
C21   C45   1.393340 A    
C64   H44   1.112337 S    
C73   C77   1.401639 A    
C11   C43   1.394603 A    
C17   N17   1.327188 A    
C51   C52   1.378563 A    
C16   C48   1.376306 A    
C2    H2    1.077916 S    
N33   O1    1.301311 A    
N22   Ni2   1.852246 S    
N10   Ni1   1.853161 S    
C67   C87   1.402153 A    
C41   C93   1.466203 S    
C43   C95   1.466203 S    
C63   H43   1.111787 S    
N9    Ni2   1.849437 S    
C38   C86   1.460910 S    
C27   H27   1.080072 S    
C66   C72   1.383522 A    
C36   C75   1.461657 S    
C1    H1    1.079909 S    
N6    N26   1.378135 A    
C61   H41   1.111787 S    
C8    H8    1.078234 S    
C26   N26   1.333844 A    
C14   H14   1.079666 S    
C3    H3    1.079909 S    
C24   H24   1.080464 S    
N7    Ni7   1.849410 S    
N36   O8    1.301285 A    
C6    C38   1.390278 A    
C83   C87   1.402256 A    
N2    N30   1.378134 A    
C80   C82   1.383729 A    
C33   C74   1.460873 S    
C100  N36   1.435020 S    
N18   Ni6   1.850151 S    
C81   C85   1.402257 A    
C22   N22   1.339931 A    
N11   N19   1.376618 A    
C92   C95   1.398125 A    
C81   H57   1.080353 S    
C65   H45   1.080382 S    
N5    Ni5   1.849410 S    
C20   N20   1.328159 A    
C20   H20   1.080441 S    
C63   H39   1.112469 S    
C10   N10   1.339073 A    
C77   H53   1.080622 S    
C32   H32   1.077521 S    
N34   O3    1.300560 A    
C31   N31   1.333411 A    
C94   C98   1.415736 A    
N19   Ni7   1.853881 S    
N32   Ni3   1.849291 S    
C93   C97   1.413232 A    
C67   H47   1.080383 S    
C14   C46   1.376306 A    
C30   N30   1.334242 A    
C83   H59   1.080354 S    
N2    Ni2   1.850172 S    
C96   C100  1.415736 A    
C52   C56   1.399520 A    
C7    N7    1.335148 A    
C66   H46   1.080705 S    
C8    N8    1.333909 A    
C98   N34   1.435017 S    
C95   C99   1.413234 A    
C99   N35   1.436802 S    
C58   H34   1.081144 S    
C29   N29   1.333410 A    
N16   N24   1.376857 A    
C37   C85   1.461368 S    
C56   C60   1.408000 A    
C25   N25   1.335107 A    
N30   Ni1   1.849291 S    
C8    C40   1.390279 A    
N16   Ni7   1.849488 S    
C31   C35   1.381750 A    
N33   O2    1.300431 A    
C19   N19   1.327187 A    
C9    H9    1.077466 S    
C40   C88   1.460909 S    
C68   C70   1.383519 A    
C28   N28   1.333844 A    
N8    Ni8   1.852270 S    
N14   N22   1.376857 A    
C31   H31   1.079844 S    
C22   H22   1.080464 S    
C11   H11   1.077464 S    
C91   C92   1.367529 A    
C18   N18   1.328161 A    
C68   H48   1.080705 S    
C12   H12   1.077449 S    
C1    N1    1.334142 A    
C91   C96   1.396646 A    
C30   H30   1.077521 S    
C69   C73   1.401777 A    
C29   H29   1.079844 S    
N36   O7    1.300558 A    
C75   C79   1.401639 A    
C19   H19   1.076224 S    
C11   N11   1.339420 A    
N1    N29   1.378134 A    
N13   N21   1.376858 A    
N25   Ni6   1.848986 S    
C89   C94   1.396648 A    
N14   Ni5   1.849488 S    
C78   C84   1.383729 A    
N27   Ni8   1.848986 S    
C50   C54   1.399520 A    
C7    H7    1.079991 S    
C23   H23   1.079062 S    
C49   C53   1.402207 A    
C3    C35   1.382663 A    
C10   C42   1.384209 A    
C72   C76   1.402356 A    
C51   C55   1.402207 A    
N35   O5    1.301311 A    
C92   H64   1.078785 S    
C1    C33   1.382663 A    
N31   Ni4   1.852152 S    
C60   H36   1.081144 S    
N21   Ni1   1.849488 S    
C61   H37   1.112468 S    
N23   Ni3   1.849488 S    
N11   Ni4   1.849437 S    
C18   H18   1.080441 S    
C79   C81   1.384026 A    
C65   C71   1.383919 A    
N15   N23   1.376858 A    
C49   C50   1.378563 A    
C32   C36   1.389760 A    
C67   C69   1.383920 A    
N7    N27   1.378133 A    
C46   C54   1.460114 S    
C97   N33   1.436804 S    
C15   N15   1.327980 A    
C45   C53   1.460879 S    
N15   Ni8   1.852239 S    
N35   O6    1.300432 A    
C23   N23   1.339782 A    
C74   C78   1.402059 A    
C4    C36   1.389949 A    
C53   C57   1.407709 A    
C62   H38   1.111964 S    
C57   H33   1.081636 S    
C4    N4    1.334356 A    
C13   N13   1.327980 A    
C59   C60   1.400133 A    
C2    N2    1.334356 A    
C72   H52   1.080257 S    
C18   C42   1.379824 A    
N3    Ni3   1.854003 S    
C70   C74   1.402358 A    
N17   Ni5   1.853881 S    
C35   C76   1.460873 S    
C78   H54   1.080314 S    
C76   C80   1.402059 A    
C21   N21   1.339782 A    
C16   N16   1.327885 A    
N6    Ni6   1.852270 S    
C34   C73   1.461657 S    
N9    N17   1.376618 A    
C91   H63   1.080258 S    
C13   C45   1.382711 A    
C17   C41   1.386514 A    
C65   C85   1.402154 A    
C28   H28   1.078309 S    
C50   C61   1.496978 S    
N5    N25   1.378133 A    
N12   N20   1.376617 A    
C49   C62   1.500046 S    
C66   C86   1.401541 A    
C15   H15   1.075009 S    
C63   C64   1.505140 S    
C10   H10   1.077451 S    
C5    H5    1.079991 S    
C82   H58   1.080625 S    
C61   C62   1.505140 S    
N24   Ni4   1.852246 S    
C59   H35   1.081636 S    
C42   C94   1.466270 S    
C26   C38   1.390081 A    
C62   H42   1.112337 S    
N1    Ni1   1.854003 S    
C6    N6    1.333909 A    
C64   H40   1.111964 S    
C57   C58   1.400133 A    
C2    C34   1.389949 A    
N8    N28   1.378135 A    
C5    N5    1.335148 A    
C14   N14   1.327885 A    
C47   C55   1.460879 S    
C15   C47   1.382711 A    
C27   N27   1.335107 A    
C79   H55   1.080623 S    
C22   C46   1.384104 A    
C12   C44   1.384211 A    
N28   Ni7   1.852818 S    
C17   H17   1.076226 S    
C51   C64   1.500046 S    
C25   C37   1.380528 A    
C90   H62   1.078785 S    
C84   C88   1.401614 A    
C71   C75   1.401778 A    
N20   Ni8   1.850151 S    
C71   H51   1.080584 S    
N29   Ni2   1.852152 S    
C24   N24   1.339931 A    
C21   H21   1.079062 S    
C23   C47   1.393340 A    
C89   C90   1.367532 A    
C30   C34   1.389760 A    
C55   C59   1.407709 A    
C9    C41   1.394603 A    
C48   C56   1.460114 S    
C24   C48   1.384104 A    
C29   C33   1.381751 A    
C70   H50   1.080256 S    
C68   C88   1.401542 A    
C82   C86   1.401613 A    
C89   H61   1.080258 S    
C16   H16   1.079666 S    
N3    N31   1.378134 A    
C12   N12   1.339074 A    
C25   H25   1.080072 S    
C19   C43   1.386514 A    
C26   H26   1.078309 S    
N10   N18   1.376617 A    
C54   C58   1.408000 A    
N4    N32   1.378134 A    
C20   C44   1.379823 A    
N26   Ni5   1.852818 S    
C7    C39   1.380567 A    
N12   Ni3   1.853161 S    
C5    C37   1.380566 A    
C77   C83   1.384026 A    
C39   C87   1.461367 S    
C84   H60   1.080625 S    
C90   C93   1.398124 A    
C9    N9    1.339422 A    
C80   H56   1.080316 S    
N4    Ni4   1.850172 S    
