data_mof_unit_41054.cif
_audit_creation_date              2012-12-11T16:06:48-0500
_audit_creation_method            fapswitch 2.2
_symmetry_space_group_name_H-M    P1
_symmetry_Int_Tables_number       1
_space_group_crystal_system       triclinic
_cell_length_a                    8.211738
_cell_length_b                    12.913148
_cell_length_c                    17.394467
_cell_angle_alpha                 95.830335
_cell_angle_beta                  95.696263
_cell_angle_gamma                 98.226262
_cell_volume                      1803.90782951

loop_
_atom_site_label
_atom_site_type_symbol
_atom_type_description
_atom_site_fract_x
_atom_site_fract_y
_atom_site_fract_z
_atom_type_partial_charge
Ba1   Ba    Ba6+2 0.158660 0.552610 0.463110 1.711279
Ba2   Ba    Ba6+2 0.651510 0.447380 0.536830 1.721303
C1    C     C_3   0.471546 0.808436 0.175026 0.245659
C2    C     C_R   0.728542 0.817823 0.473841 -0.272126
C3    C     C_R   0.698127 0.994333 0.443320 -0.095939
C4    C     C_3   0.936515 0.834276 0.284811 0.345355
C5    C     C_R   0.632850 0.887482 0.442007 0.018957
C6    C     C_R   0.888271 0.851522 0.511095 0.012615
C7    C     C_R   0.953543 0.963158 0.516512 -0.050320
C8    C     C_R   0.857048 0.035800 0.481524 -0.051511
C9    C     C_R   0.922052 0.147572 0.487576 0.040302
C10   C     C_R   0.175299 0.112160 0.558632 0.001973
C11   C     C_R   0.112010 0.004720 0.555126 -0.087669
C12   C     C_3   0.433996 0.773929 0.253856 0.415440
C13   C     C_R   0.604933 0.536396 0.279528 -0.280313
C14   C     C_R   0.446556 0.481447 0.255433 0.055448
C15   C     C_R   0.385181 0.467677 0.176099 -0.091049
C16   C     C_3   0.915373 0.932450 0.245951 -0.336498
C17   C     C_R   0.484146 0.508076 0.121191 0.003718
C18   C     C_R   0.646294 0.559375 0.145913 -0.137228
C19   C     C_R   0.706578 0.572291 0.225062 -0.007509
C20   C     C_R   0.419579 0.516760 0.836643 -0.051014
C21   C     C_R   0.367429 0.503008 0.756508 0.070405
C22   C     C_R   0.104577 0.404826 0.779571 0.078715
C23   C     C_3   0.468093 0.771258 0.652079 0.243467
C24   C     C_R   0.155962 0.418812 0.859818 -0.078316
C25   C     C_R   0.316161 0.471679 0.888320 0.015095
C26   C     C_1   0.372188 0.484065 0.970750 0.072603
C27   C     C_1   0.421887 0.494584 0.039410 0.090057
C28   C     C_3   0.744927 0.312311 0.305078 0.305038
C29   C     C_R   0.217902 0.438038 0.728369 -0.175602
C30   C     C_3   0.701341 0.280768 0.217984 -0.388369
C31   C     C_3   0.926335 0.744679 0.706680 0.607148
C32   C     C_3   0.889151 0.821223 0.774254 0.411695
C33   C     C_3   0.251980 0.230171 0.370505 0.284879
C34   C     C_3   0.525922 0.889584 0.666148 -0.327057
C35   C     C_3   0.268940 0.114587 0.355496 -0.342226
C36   C     C_3   0.881125 0.160094 0.696395 0.260522
C37   C     C_3   0.936229 0.070341 0.733974 -0.282964
C38   C     C_3   0.400176 0.215692 0.748156 0.385793
C39   C     C_3   0.438290 0.190533 0.830942 -0.314454
C40   C     C_R   0.079330 0.181830 0.527264 -0.288569
H1    H     H_    0.338339 0.702663 0.246781 0.103572
H2    H     H_    0.221952 0.070890 0.402353 0.082553
H3    H     H_    0.400741 0.106660 0.352215 0.127903
H4    H     H_    0.550209 0.751765 0.281074 -0.213999
H5    H     H_    0.577467 0.771673 0.156113 0.004879
H6    H     H_    0.513049 0.741424 0.596970 0.017603
H7    H     H_    0.332613 0.757717 0.647160 0.115050
H8    H     H_    0.653488 0.908518 0.650507 0.044181
H9    H     H_    0.446444 0.929456 0.627484 0.114278
H10   H     H_    0.519398 0.920448 0.727551 0.181364
H11   H     H_    0.806079 0.916015 0.201402 0.114565
H12   H     H_    0.588313 0.220361 0.206808 0.130491
H13   H     H_    0.778467 0.129744 0.649692 0.102055
H14   H     H_    0.989463 0.197782 0.670318 -0.062688
H15   H     H_    0.955881 0.007468 0.689109 0.074986
H16   H     H_    0.053294 0.098842 0.772414 0.168277
H17   H     H_    0.839149 0.041694 0.770004 0.173659
H18   H     H_    0.266701 0.222146 0.737834 -0.115302
H19   H     H_    0.475579 0.292525 0.742944 0.064559
H20   H     H_    0.411184 0.254997 0.872690 0.041181
H21   H     H_    0.570996 0.182500 0.842632 0.152121
H22   H     H_    0.040495 0.854127 0.332187 0.086336
H23   H     H_    0.678253 0.350018 0.188361 0.056984
H24   H     H_    0.360992 0.116109 0.839948 0.184209
H25   H     H_    0.187836 0.954412 0.582540 0.111636
H26   H     H_    0.130638 0.264473 0.531624 0.054964
H27   H     H_    0.675804 0.735644 0.471249 0.059669
H28   H     H_    0.536989 0.565227 0.858756 0.108884
H29   H     H_    0.725393 0.588468 0.104012 0.124507
H30   H     H_    0.071069 0.390688 0.899677 0.074298
H31   H     H_    0.652624 0.545993 0.340512 0.066252
H32   H     H_    0.820897 0.809605 0.310592 -0.062614
H33   H     H_    0.180995 0.424421 0.666250 0.069958
H34   H     H_    0.805407 0.247957 0.193281 0.134153
H35   H     H_    0.897835 0.997228 0.290022 0.057509
H36   H     H_    0.025766 0.957013 0.216437 0.170342
H37   H     H_    0.637335 0.339814 0.329531 0.009959
H38   H     H_    0.852374 0.376757 0.314632 0.058274
H39   H     H_    0.245647 0.743818 0.765837 0.360520
H40   H     H_    0.244848 0.852759 0.923354 0.394001
H41   H     H_    0.335179 0.263952 0.424120 0.070373
H42   H     H_    0.249618 0.926415 0.084617 0.329632
H43   H     H_    0.508709 0.895226 0.180254 0.015447
H44   H     H_    0.622461 0.044489 0.415466 0.097493
H45   H     H_    0.806784 0.714694 0.671189 -0.066050
H46   H     H_    0.262433 0.424247 0.157191 0.092518
H47   H     H_    0.805847 0.777994 0.810785 0.078814
H48   H     H_    0.816195 0.876317 0.749802 -0.134641
H49   H     H_    0.122293 0.237076 0.378749 -0.002067
H50   H     H_    0.197913 0.080099 0.299275 0.120150
O1    O     O_2   0.163080 0.763400 0.536930 -0.476487
O2    O     O_2   0.755375 0.414337 0.774387 -0.436104
O3    O     O_3   0.823828 0.225325 0.753937 -0.611560
O4    O     O_3   0.893330 0.628980 0.538660 -0.449983
O5    O     O_3   0.422000 0.445190 0.409310 -0.500684
O6    O     O_2   0.648720 0.552000 0.685060 -0.410071
O7    O     O_3   0.524384 0.721136 0.715129 -0.654048
O8    O     O_2   0.513537 0.116861 0.552916 -0.497367
O9    O     O_3   0.440324 0.135952 0.695498 -0.585248
O10   O     O_3   0.379830 0.697590 0.399610 -0.482293
O11   O     O_2   0.287591 0.882759 0.440272 -0.502575
O12   O     O_3   0.292158 0.278288 0.304909 -0.635520
O13   O     O_3   0.041729 0.789864 0.660641 -0.668501
O14   O     O_3   0.381861 0.856092 0.300396 -0.619241
O15   O     O_2   0.161570 0.447940 0.314920 -0.466527
O16   O     O_3   0.953630 0.643360 0.361440 -0.505254
O17   O     O_2   0.043861 0.565618 0.226753 -0.446588
O18   O     O_2   0.908150 0.602756 0.807590 -0.289046
O19   O     O_2   0.996154 0.558609 0.677695 -0.340316
O20   O     O_3   0.205794 0.676703 0.785024 -0.515211
O21   O     O_2   0.199218 0.932232 0.791205 -0.367694
O22   O     O_2   0.011854 0.982316 0.885199 -0.306763
O23   O     O_3   0.972972 0.756476 0.229303 -0.526093
O24   O     O_3   0.136254 0.813001 0.899967 -0.386526
O25   O     O_2   0.372462 0.756728 0.023504 -0.284098
O26   O     O_2   0.201817 0.667380 0.111083 -0.251570
O27   O     O_3   0.179630 0.863579 0.098510 -0.449754
O28   O     O_2   0.647210 0.236530 0.463040 -0.472196
O29   O     O_3   0.916960 0.371010 0.461280 -0.490395
O30   O     O_3   0.430470 0.302400 0.600330 -0.502015
O31   O     O_3   0.783893 0.224029 0.338944 -0.639260
O32   O     O_3   0.388290 0.554800 0.590630 -0.484502
O33   O     O_3   0.856660 0.356630 0.638500 -0.441636
P1    P     P_3+3 0.990420 0.746550 0.559720 1.003440
P2    P     P_3+3 0.330880 0.415450 0.326700 0.979543
P3    P     P_3+3 0.919737 0.632481 0.260000 1.018782
P4    P     P_3+3 0.819870 0.253440 0.440220 0.971635
P5    P     P_3+3 0.886008 0.354690 0.739054 1.084946
P6    P     P_3+3 0.420002 0.833760 0.397835 0.956680
P7    P     P_3+3 0.473403 0.584575 0.688984 1.017902
P8    P     P_3+3 0.389069 0.165627 0.600909 0.943531
S1    S     S_3+6 0.008268 0.641080 0.745622 -0.055555
S2    S     S_3+6 0.064435 0.891530 0.837881 -0.074940
S3    S     S_3+6 0.302541 0.770131 0.099818 -0.032373

loop_
_geom_bond_atom_site_label_1
_geom_bond_atom_site_label_2
_ccdc_geom_bond_type
C38   H18   S    
C1    H43   S    
C15   H46   S    
C24   H30   S    
C17   C18   A    
O5    P2    S    
O26   S3    D    
C12   H4    S    
O24   S2    S    
C10   C11   A    
C24   C25   A    
O2    P5    D    
O13   P1    S    
C26   C27   T    
C33   C35   S    
C22   C24   A    
C1    S3    S    
H42   O27   S    
C36   C37   S    
C13   C14   A    
C37   H15   S    
Ba2   P4    S    
O32   P7    S    
C9    C40   A    
Ba1   Ba2   S    
C4    H22   S    
C7    C11   A    
O1    P1    D    
C10   C40   A    
C16   H11   S    
C38   O9    S    
C31   S1    S    
C23   O7    S    
C36   H13   S    
Ba2   O5    S    
C14   C15   A    
C36   O3    S    
O3    P5    S    
O22   S2    D    
C18   H29   S    
C7    C8    A    
C5    P6    S    
C34   H10   S    
C2    C6    A    
C28   H38   S    
O31   P4    S    
C40   H26   S    
C39   H20   S    
C2    C5    A    
C9    P4    S    
C30   H12   S    
C2    H27   S    
C4    H32   S    
Ba1   O29   S    
Ba2   O30   S    
O14   P6    S    
C4    C16   S    
O28   P4    D    
C31   O13   S    
O10   P6    S    
C33   O12   S    
Ba1   O5    S    
C3    C5    A    
C33   H41   S    
C6    C7    A    
Ba1   O16   S    
C37   H16   S    
O16   P3    S    
C38   H19   S    
O23   P3    S    
C21   C29   A    
C32   H48   S    
O30   P8    S    
Ba1   O32   S    
O17   P3    D    
C29   H33   S    
H39   O20   S    
C13   C19   A    
C16   H36   S    
C37   H17   S    
C31   C32   S    
O4    P1    S    
Ba1   P1    S    
C19   P3    S    
C28   O31   S    
C34   H9    S    
C23   H6    S    
C1    C12   S    
Ba1   O15   S    
C28   H37   S    
O7    P7    S    
C6    P1    S    
C38   C39   S    
C13   H31   S    
Ba2   O32   S    
C10   P8    S    
O18   S1    D    
C3    H44   S    
C35   H3    S    
C17   C27   S    
C34   H8    S    
O8    P8    D    
C11   H25   S    
Ba2   O29   S    
O29   P4    S    
Ba2   O28   S    
C35   H50   S    
Ba1   P2    S    
O20   S1    S    
C30   H34   S    
O19   S1    D    
C39   H24   S    
O9    P8    S    
O27   S3    S    
C20   C25   A    
C35   H2    S    
Ba2   O4    S    
C31   H45   S    
C22   C29   A    
H40   O24   S    
C3    C8    A    
C28   C30   S    
O12   P2    S    
C32   S2    S    
C16   H35   S    
C1    H5    S    
C15   C17   A    
C21   P7    S    
C14   P2    S    
C23   H7    S    
C4    O23   S    
C32   H47   S    
C8    C9    A    
O33   P5    S    
C23   C34   S    
O15   P2    D    
Ba2   O33   S    
C22   P5    S    
C12   O14   S    
C36   H14   S    
C18   C19   A    
Ba2   O6    S    
Ba1   O1    S    
O21   S2    D    
O6    P7    D    
C25   C26   S    
C39   H21   S    
C20   C21   A    
C12   H1    S    
Ba1   O4    S    
O25   S3    D    
O11   P6    D    
Ba1   O10   S    
C20   H28   S    
C30   H23   S    
C33   H49   S    
