data_mof_unit_7611.cif
_audit_creation_date              2013-03-05T15:53:47-0500
_audit_creation_method            fapswitch 2.2
_symmetry_space_group_name_H-M    P1
_symmetry_Int_Tables_number       1
_space_group_crystal_system       triclinic
_cell_length_a                    7.103459
_cell_length_b                    11.887492
_cell_length_c                    35.850683
_cell_angle_alpha                 90.000121
_cell_angle_beta                  90.476009
_cell_angle_gamma                 90.000167
_cell_volume                      3027.21008607

loop_
_atom_site_label
_atom_site_type_symbol
_atom_site_description
_atom_site_fract_x
_atom_site_fract_y
_atom_site_fract_z
_atom_type_partial_charge
O1    O     O_R   0.379730 0.148600 0.662710 -0.572617
O2    O     O_R   0.620270 0.851400 0.337290 -0.576788
O3    O     O_R   0.120270 0.648600 0.337290 -0.572595
O4    O     O_R   0.879730 0.351400 0.662710 -0.576816
O5    O     O_R   0.722480 0.134490 0.741330 -0.589791
O6    O     O_R   0.277520 0.865510 0.258670 -0.577273
O7    O     O_R   0.777520 0.634490 0.258670 -0.589840
O8    O     O_R   0.222480 0.365510 0.741330 -0.577211
O9    O     O_R   0.892880 0.345890 0.741600 -0.607911
O10   O     O_R   0.107120 0.654110 0.258400 -0.593935
O11   O     O_R   0.607120 0.845890 0.258400 -0.607852
O12   O     O_R   0.392880 0.154110 0.741600 -0.593959
C1    C     C_R   0.553736 0.117677 0.755644 1.023482
C2    C     C_R   0.447869 0.892579 0.247403 1.002228
C3    C     C_R   0.946264 0.617678 0.244355 1.023437
C4    C     C_R   0.052128 0.392592 0.752593 1.002359
O13   O     O_R   0.709490 0.135560 0.662990 -0.576463
O14   O     O_R   0.290510 0.864440 0.337010 -0.562466
O15   O     O_R   0.790510 0.635560 0.337010 -0.576488
O16   O     O_R   0.209490 0.364440 0.662990 -0.562406
C5    C     C_R   0.540496 0.107820 0.651162 1.150247
C6    C     C_R   0.459564 0.891948 0.348929 1.142996
C7    C     C_R   0.959503 0.607819 0.348838 1.150206
C8    C     C_R   0.040436 0.391947 0.651071 1.143080
O17   O     O_3   0.552800 0.316610 0.702160 -0.275338
O18   O     O_3   0.447200 0.683390 0.297840 -0.281608
O19   O     O_3   0.947200 0.816610 0.297840 -0.275319
O20   O     O_3   0.052800 0.183390 0.702160 -0.281607
V1    V     V_3+5 0.827630 0.234380 0.702160 1.287374
V2    V     V_3+5 0.172370 0.765620 0.297840 1.307244
V3    V     V_3+5 0.672370 0.734380 0.297840 1.287369
V4    V     V_3+5 0.327630 0.265620 0.702160 1.307244
C9    C     C_R   0.979384 0.711921 0.899903 0.576805
C10   C     C_R   0.943015 0.409181 0.066608 0.622266
C11   C     C_R   0.520587 0.211881 0.100089 0.576773
C12   C     C_R   0.556919 0.909109 0.933375 0.622287
O21   O     O_2   0.975447 0.601718 0.908255 -0.480720
O22   O     O_2   0.873763 0.512269 0.061184 -0.479873
O23   O     O_2   0.524548 0.101677 0.091739 -0.480742
O24   O     O_2   0.626174 0.012198 0.938799 -0.479897
N1    N     N_R   0.971827 0.745848 0.863163 -0.162696
N2    N     N_R   0.998314 0.375402 0.101998 -0.165590
N3    N     N_R   0.528129 0.245812 0.136829 -0.162682
N4    N     N_R   0.501625 0.875327 0.897985 -0.165597
C13   C     C_R   0.982336 0.859523 0.855256 0.512402
C14   C     C_R   0.067926 0.267894 0.105566 0.468218
C15   C     C_R   0.517618 0.359484 0.144737 0.512594
C16   C     C_R   0.432034 0.767814 0.894417 0.468165
C17   C     C_R   0.116077 0.669640 0.804829 0.011614
C18   C     C_R   0.919097 0.387818 0.170041 -0.187019
C19   C     C_R   0.383820 0.169583 0.195156 0.011464
C20   C     C_R   0.580885 0.887775 0.829944 -0.187037
C21   C     C_R   0.145441 0.583539 0.778617 0.321916
C22   C     C_R   0.911499 0.440172 0.205315 0.403538
C23   C     C_R   0.354461 0.083468 0.221360 0.321929
C24   C     C_R   0.588560 0.940156 0.794674 0.403686
C25   C     C_R   0.894421 0.477421 0.806781 -0.242984
C26   C     C_R   0.005770 0.613498 0.176120 -0.359464
C27   C     C_R   0.605601 0.977409 0.193216 -0.242732
C28   C     C_R   0.494129 0.113447 0.823874 -0.359434
C29   C     C_R   0.863061 0.563377 0.832564 0.446361
C30   C     C_R   0.014028 0.561985 0.140557 0.423718
C31   C     C_R   0.636925 0.063363 0.167432 0.446364
C32   C     C_R   0.485857 0.061917 0.859434 0.423749
C33   C     C_R   0.979322 0.661023 0.833210 -0.041625
C34   C     C_R   0.976377 0.443555 0.136756 -0.052456
C35   C     C_R   0.520623 0.160989 0.166783 -0.041588
C36   C     C_R   0.523550 0.943491 0.863230 -0.052470
C37   C     C_R   0.000657 0.906434 0.921323 -0.145577
C38   C     C_R   0.009243 0.223374 0.040453 -0.153412
C39   C     C_R   0.499272 0.406390 0.078670 -0.145666
C40   C     C_R   0.490676 0.723308 0.959533 -0.153380
C41   C     C_R   0.002447 0.790635 0.929266 -0.351594
C42   C     C_R   0.953827 0.335501 0.035177 -0.340071
C43   C     C_R   0.497515 0.290590 0.070727 -0.351496
C44   C     C_R   0.546096 0.835434 0.964808 -0.340106
C45   C     C_R   0.030550 0.756191 0.966360 0.871198
C46   C     C_R   0.906658 0.370090 0.998704 0.884830
C47   C     C_R   0.469423 0.256141 0.033632 0.871209
C48   C     C_R   0.593255 0.870029 0.001280 0.884800
C49   C     C_R   0.982211 0.941038 0.884085 -0.014490
C50   C     C_R   0.065201 0.189660 0.076137 -0.058313
C51   C     C_R   0.517712 0.440999 0.115908 -0.014562
C52   C     C_R   0.434738 0.689585 0.923848 -0.058224
C53   C     C_R   0.035005 0.485007 0.780042 -0.331595
C54   C     C_R   0.957171 0.554555 0.208471 -0.301540
C55   C     C_R   0.464981 0.984974 0.219948 -0.331661
C56   C     C_R   0.542820 0.054532 0.791523 -0.301661
H1    H     H_    0.803445 0.404135 0.807316 0.174162
H2    H     H_    0.037175 0.702456 0.178605 0.184583
H3    H     H_    0.696617 0.904141 0.192686 0.174153
H4    H     H_    0.462677 0.202400 0.821391 0.184591
C57   C     C_R   0.062832 0.031386 0.016876 0.186822
C58   C     C_R   0.977070 0.103391 0.943157 0.251396
C59   C     C_R   0.437079 0.531325 0.983114 0.186844
C60   C     C_R   0.522807 0.603345 0.056832 0.251415
C61   C     C_R   0.968454 0.181783 0.973427 -0.026331
C62   C     C_R   0.048025 0.951065 0.987700 -0.023098
C63   C     C_R   0.531430 0.681731 0.026561 -0.026265
C64   C     C_R   0.451892 0.451010 0.012291 -0.023213
C65   C     C_R   0.013313 0.145362 0.010100 0.171854
C66   C     C_R   0.011700 0.987455 0.950755 0.174792
C67   C     C_R   0.486589 0.645303 0.989888 0.171988
C68   C     C_R   0.488201 0.487407 0.049237 0.174571
C69   C     C_R   0.124605 0.001298 0.052960 -0.053255
C70   C     C_R   0.950118 0.135243 0.905309 -0.035087
C71   C     C_R   0.375324 0.501228 0.947028 -0.053435
C72   C     C_R   0.549753 0.635204 0.094680 -0.035007
C73   C     C_R   0.126150 0.078909 0.081771 0.127947
C74   C     C_R   0.960210 0.056152 0.876427 -0.125000
C75   C     C_R   0.373794 0.578833 0.918215 0.128121
C76   C     C_R   0.539679 0.556115 0.123564 -0.125094
O25   O     O_2   0.145064 0.235584 0.137824 -0.585421
O26   O     O_2   0.990471 0.895052 0.819626 -0.557183
O27   O     O_2   0.354938 0.735493 0.862155 -0.585361
O28   O     O_2   0.509505 0.395008 0.180368 -0.557160
C77   C     C_R   0.057032 0.834375 0.994669 -0.423789
C78   C     C_R   0.914908 0.295370 0.968618 -0.356025
C79   C     C_R   0.442918 0.334318 0.005323 -0.423817
C80   C     C_R   0.584984 0.795317 0.031368 -0.355950
H5    H     H_    0.876881 0.300630 0.168734 0.206646
H6    H     H_    0.202905 0.743913 0.802663 0.218117
H7    H     H_    0.623116 0.800590 0.831249 0.206634
H8    H     H_    0.296952 0.243840 0.197323 0.218057
H9    H     H_    0.177981 0.051035 0.108675 0.196648
H10   H     H_    0.943807 0.085468 0.847977 0.157780
H11   H     H_    0.321982 0.550952 0.891310 0.196628
H12   H     H_    0.556074 0.585436 0.152014 0.157803
H13   H     H_    0.179357 0.919048 0.059599 0.139849
H14   H     H_    0.929285 0.221442 0.896959 0.136210
H15   H     H_    0.320579 0.418976 0.940391 0.139858
H16   H     H_    0.570563 0.721406 0.103029 0.136222
H17   H     H_    0.074188 0.800082 0.022317 0.216668
H18   H     H_    0.873180 0.328753 0.941863 0.214929
H19   H     H_    0.425774 0.300022 0.977675 0.216673
H20   H     H_    0.626705 0.828705 0.058123 0.214924
C81   C     C_R   0.967762 0.529595 0.380094 -0.486870
C82   C     C_R   0.031763 0.469892 0.619709 -0.478625
C83   C     C_R   0.532237 0.029597 0.619906 -0.486883
C84   C     C_R   0.468235 0.969894 0.380290 -0.478610
C85   C     C_R   0.971944 0.339831 0.403871 0.905008
C86   C     C_R   0.022838 0.659486 0.595835 0.897143
C87   C     C_R   0.528044 0.839833 0.596127 0.904994
C88   C     C_R   0.477155 0.159489 0.404163 0.897170
C89   C     C_R   0.951270 0.414039 0.374080 -0.303522
C90   C     C_R   0.042773 0.585647 0.625706 -0.291301
C91   C     C_R   0.548721 0.914041 0.625918 -0.303513
C92   C     C_R   0.457223 0.085649 0.374293 -0.291349
C93   C     C_R   0.991995 0.571926 0.416166 0.884139
C94   C     C_R   0.010579 0.427146 0.583604 0.881044
C95   C     C_R   0.508012 0.071930 0.583833 0.884131
C96   C     C_R   0.489414 0.927150 0.416396 0.881069
C97   C     C_R   0.985218 0.499032 0.447339 -0.146252
C98   C     C_R   0.015889 0.500007 0.552370 -0.146860
C99   C     C_R   0.514781 0.999036 0.552659 -0.146244
C100  C     C_R   0.484102 0.000011 0.447629 -0.146874
C101  C     C_R   0.994556 0.381590 0.440343 -0.231822
C102  C     C_R   0.003941 0.617465 0.559334 -0.230136
C103  C     C_R   0.505435 0.881594 0.559655 -0.231818
C104  C     C_R   0.496051 0.117469 0.440665 -0.230135
C105  C     C_R   0.980907 0.538080 0.485022 -0.138135
C106  C     C_R   0.020631 0.460928 0.514658 -0.137622
C107  C     C_R   0.519089 0.038085 0.514977 -0.138123
C108  C     C_R   0.479360 0.960933 0.485341 -0.137626
C109  C     C_R   0.069210 0.348778 0.505264 0.917690
C110  C     C_R   0.931775 0.650156 0.494321 0.917784
C111  C     C_R   0.430774 0.848784 0.494734 0.917682
C112  C     C_R   0.568223 0.150161 0.505678 0.917781
C113  C     C_R   0.040672 0.308391 0.469343 -0.280312
C114  C     C_R   0.958338 0.690512 0.530269 -0.277002
C115  C     C_R   0.459312 0.808397 0.530655 -0.280306
C116  C     C_R   0.541656 0.190517 0.469730 -0.277010
H21   H     H_    0.068491 0.220329 0.463788 0.205149
H22   H     H_    0.929297 0.778467 0.535767 0.205215
H23   H     H_    0.431488 0.720335 0.536210 0.205148
H24   H     H_    0.570698 0.278472 0.464231 0.205213
H25   H     H_    0.056660 0.618896 0.653677 0.225683
H26   H     H_    0.932158 0.381283 0.346129 0.230893
H27   H     H_    0.443336 0.118895 0.346321 0.225679
H28   H     H_    0.567827 0.881282 0.653870 0.230924
F1    F     F_    0.962447 0.317061 0.580155 -0.600887
F2    F     F_    0.043346 0.681499 0.419677 -0.600639
F3    F     F_    0.537542 0.817064 0.419845 -0.600887
F4    F     F_    0.456672 0.181505 0.580323 -0.600648
F5    F     F_    0.972006 0.227434 0.397015 -0.682443
F6    F     F_    0.019017 0.771876 0.602672 -0.687955
F7    F     F_    0.527973 0.727436 0.602983 -0.682441
F8    F     F_    0.480975 0.271879 0.397327 -0.687956
F9    F     F_    0.160889 0.279556 0.529351 -0.620710
F10   F     F_    0.841093 0.719308 0.470052 -0.621827
F11   F     F_    0.339088 0.779564 0.470648 -0.620705
F12   F     F_    0.658911 0.219311 0.529946 -0.621827
N5    N     N_R   0.698223 0.552715 0.854507 0.220351
O29   O     O_R   0.702058 0.480592 0.881793 -0.366479
O30   O     O_R   0.539559 0.565745 0.836780 -0.391445
N6    N     N_R   0.056424 0.634491 0.109797 0.250911
O31   O     O_R   0.167237 0.601762 0.083537 -0.421206
O32   O     O_R   0.997427 0.738175 0.109569 -0.397241
N7    N     N_R   0.801753 0.052721 0.145484 0.220355
O33   O     O_R   0.797969 0.980560 0.118209 -0.366413
O34   O     O_R   0.960422 0.065845 0.163201 -0.391341
N8    N     N_R   0.443392 0.134402 0.890195 0.250909
O35   O     O_R   0.332633 0.101625 0.916457 -0.421236
O36   O     O_R   0.502289 0.238108 0.890426 -0.397318
F13   F     F_    0.040101 0.646216 0.975715 -0.616800
F14   F     F_    0.849041 0.476371 0.991614 -0.612858
F15   F     F_    0.459902 0.146165 0.024279 -0.616789
F16   F     F_    0.650886 0.976309 0.008369 -0.612850
N9    N     N_R   0.858738 0.375415 0.237538 0.261815
O37   O     O_R   0.935956 0.395022 0.269923 -0.407130
O38   O     O_R   0.744380 0.290484 0.234162 -0.323505
N10   N     N_R   0.283985 0.599593 0.750219 0.251494
O39   O     O_R   0.241391 0.582384 0.715343 -0.401670
O40   O     O_R   0.445428 0.644783 0.758616 -0.299945
N11   N     N_R   0.641501 0.875442 0.762453 0.261963
O41   O     O_R   0.564488 0.895102 0.730052 -0.407094
O42   O     O_R   0.755849 0.790511 0.765840 -0.323614
N12   N     N_R   0.215831 0.099458 0.249743 0.251494
O43   O     O_R   0.258556 0.082623 0.284633 -0.401515
O44   O     O_R   0.054007 0.144078 0.241300 -0.299815

loop_
_geom_bond_atom_site_label_1
_geom_bond_atom_site_label_2
_geom_bond_distance
_ccdc_geom_bond_type
C26   C30   1.416043 A    
C63   C67   1.417975 A    
C39   C68   1.430305 A    
C48   C80   1.398859 A    
O1    C5    1.310885 A    
N7    O34   1.298537 A    
O13   V1    2.009136 S    
C86   C90   1.390965 A    
O3    C7    1.310882 A    
C107  C108  1.429916 A    
C10   N2    1.384566 A    
C30   N6    1.433586 S    
C88   C92   1.390967 A    
C77   H17   1.077717 S    
C31   N7    1.421726 S    
C84   C92   1.394826 A    
C105  C106  1.429919 A    
C28   C56   1.400693 A    
C38   C65   1.430200 A    
C95   F4    1.358223 S    
C37   C66   1.430305 A    
C82   C94   1.397543 A    
C87   C91   1.392057 A    
C116  H24   1.084113 S    
C83   C91   1.395253 A    
C18   C22   1.410877 A    
C43   C47   1.404151 A    
C17   C33   1.416269 A    
C32   C36   1.439269 A    
C81   C89   1.395253 A    
O20   V1    1.710489 S    
C46   C78   1.398864 A    
O9    C4    1.317482 A    
C2    C55   1.480526 S    
C98   C102  1.421085 A    
C45   C77   1.387812 A    
O10   C3    1.318010 A    
N11   O42   1.300854 A    
C88   F8    1.358633 S    
O4    C8    1.310551 A    
C20   H7    1.079860 S    
C47   F15   1.351206 S    
C24   C56   1.402270 A    
C60   C63   1.432087 A    
C6    C84   1.457826 S    
C64   C68   1.415079 A    
N10   O39   1.300184 A    
N2    C14   1.375899 A    
C61   C78   1.412985 A    
C93   C97   1.415311 A    
C38   C42   1.402187 A    
C24   N11   1.440413 S    
C32   N8    1.433598 S    
C12   C44   1.429779 A    
C101  C113  1.392734 A    
C63   C80   1.412980 A    
C14   C50   1.406435 A    
C20   C24   1.410909 A    
C91   H28   1.082572 S    
C22   N9    1.440392 S    
C59   C71   1.408767 A    
C96   C100  1.416378 A    
C59   C67   1.420214 A    
N5    O30   1.298564 A    
C47   C79   1.387807 A    
C89   H26   1.082574 S    
O2    C6    1.310550 A    
C109  F9    1.355578 S    
C23   C55   1.410833 A    
C37   C41   1.405751 A    
O14   V2    2.009131 S    
C15   C51   1.416757 A    
C88   C104  1.406085 A    
C11   N3    1.378147 A    
C84   C96   1.397543 A    
O5    C1    1.322996 A    
O4    V1    2.020155 S    
C20   C36   1.427109 A    
O9    V1    1.990058 S    
C57   C69   1.408758 A    
O17   V4    1.710485 S    
O7    C3    1.323003 A    
C60   C72   1.420162 A    
O15   V3    2.009137 S    
O18   V3    1.710485 S    
O8    C4    1.318751 A    
O14   C6    1.312660 A    
O12   V4    1.990063 S    
O19   V2    1.710489 S    
C109  C113  1.387691 A    
C19   H8    1.080191 S    
C81   C93   1.396983 A    
C73   H9    1.081547 S    
C18   H5    1.079862 S    
C71   C75   1.384926 A    
C86   C102  1.406082 A    
C13   O26   1.347069 S    
O16   V4    2.009142 S    
C94   F1    1.357944 S    
O5    V1    1.989303 S    
C28   H4    1.084278 S    
O17   V1    2.183297 S    
C15   O28   1.347077 S    
C86   F6    1.358633 S    
C31   C35   1.424638 A    
C52   C75   1.400033 A    
O7    V3    1.989302 S    
N8    O35   1.292125 A    
C30   C34   1.439269 A    
C99   C103  1.420086 A    
O8    V4    1.989302 S    
C50   C73   1.400032 A    
O16   C8    1.312663 A    
O20   V4    2.183292 S    
C37   C49   1.402043 A    
C71   H15   1.078118 S    
C103  C115  1.392731 A    
C57   C65   1.420223 A    
C22   C54   1.402258 A    
C59   C64   1.419484 A    
C102  C114  1.392533 A    
C19   C35   1.416288 A    
C58   C61   1.432076 A    
C99   C107  1.429042 A    
C62   C66   1.415069 A    
O19   V3    2.183292 S    
O1    V4    2.020153 S    
C79   H19   1.077720 S    
C16   C52   1.406454 A    
C90   H25   1.081603 S    
C97   C105  1.429039 A    
O2    V3    2.020153 S    
C110  F10   1.355858 S    
O3    V2    2.020155 S    
C11   O23   1.344170 S    
N11   O41   1.301017 A    
C46   F14   1.351530 S    
N8    O36   1.301855 A    
C26   C54   1.400701 A    
N9    O38   1.300847 A    
C45   F13   1.351213 S    
O6    C2    1.318740 A    
C106  C109  1.418375 A    
C26   H2    1.084278 S    
O10   V2    1.990063 S    
N12   O44   1.299449 A    
C12   O24   1.334158 S    
C11   C43   1.416886 A    
N9    O37   1.301009 A    
C104  C116  1.392534 A    
C40   C44   1.402180 A    
C64   C79   1.410836 A    
C27   H3    1.084969 S    
C49   C74   1.404143 A    
C96   F3    1.357944 S    
C25   C29   1.396946 A    
C18   C34   1.427097 A    
C114  H22   1.084113 S    
C100  C104  1.421085 A    
C40   C52   1.395308 A    
C25   H1    1.084974 S    
C10   C42   1.429786 A    
C16   O27   1.332199 S    
C9    C41   1.416901 A    
C48   F16   1.351525 S    
C74   H10   1.083240 S    
O18   V2    2.183297 S    
C92   H27   1.081607 S    
C95   C99   1.415314 A    
C60   C68   1.425810 A    
C75   H11   1.081557 S    
C4    C53   1.480567 S    
N4    C36   1.495522 S    
C85   F5    1.358543 S    
C5    C83   1.456941 S    
C29   N5    1.421726 S    
O15   C7    1.311925 A    
C62   C77   1.410842 A    
C9    O21   1.344162 S    
C70   C74   1.400882 A    
C112  C116  1.386595 A    
C85   C101  1.406568 A    
C70   H14   1.077384 S    
C69   C73   1.384915 A    
C58   C70   1.420158 A    
C72   H16   1.077382 S    
C41   C45   1.404153 A    
C14   O25   1.332191 S    
O6    V2    1.989303 S    
C10   O22   1.334153 S    
C87   F7    1.358544 S    
C7    C81   1.456940 S    
C108  C111  1.418373 A    
C13   C49   1.416742 A    
C44   C48   1.408469 A    
N10   O40   1.299463 A    
N6    O31   1.292130 A    
C78   H18   1.077361 S    
C98   C106  1.430240 A    
C69   H13   1.078120 S    
C87   C103  1.406567 A    
C40   C67   1.430205 A    
C85   C89   1.392060 A    
C111  F11   1.355575 S    
C42   C46   1.408466 A    
C27   C31   1.396938 A    
C112  F12   1.355858 S    
C111  C115  1.387690 A    
C28   C32   1.416026 A    
C8    C82   1.457834 S    
C21   C53   1.410894 A    
C107  C112  1.417707 A    
C9    N1    1.378146 A    
N1    C33   1.474359 S    
N1    C13   1.382865 A    
C39   C43   1.405750 A    
N12   O43   1.300188 A    
C93   F2    1.358224 S    
C115  H23   1.084088 S    
C82   C90   1.394826 A    
C21   N10   1.434613 S    
C17   C21   1.406204 A    
C17   H6    1.080182 S    
C1    C56   1.491853 S    
C83   C95   1.396984 A    
O11   C2    1.317475 A    
C110  C114  1.386592 A    
C25   C53   1.392936 A    
C19   C23   1.406154 A    
C29   C33   1.424652 A    
C97   C101  1.420083 A    
C23   N12   1.434535 S    
C38   C50   1.395291 A    
C27   C55   1.392924 A    
C76   H12   1.083236 S    
N6    O32   1.301850 A    
C12   N4    1.384567 A    
C105  C110  1.417705 A    
O11   V3    1.990069 S    
C72   C76   1.400890 A    
N7    O33   1.300879 A    
O12   C1    1.318008 A    
C100  C108  1.430238 A    
N3    C35   1.474332 S    
N5    O29   1.300876 A    
C94   C98   1.416382 A    
N2    C34   1.495529 S    
C113  H21   1.084089 S    
C51   C76   1.404135 A    
C39   C51   1.402057 A    
C80   H20   1.077354 S    
C3    C54   1.491875 S    
N3    C15   1.382840 A    
C57   C62   1.419476 A    
C61   C65   1.417968 A    
N4    C16   1.375903 A    
C58   C66   1.425831 A    
O13   C5    1.311925 A    
