data_mof_unit_48381.cif
_audit_creation_date              2012-12-10T19:44:56-0500
_audit_creation_method            fapswitch 2.2
_symmetry_space_group_name_H-M    P1
_symmetry_Int_Tables_number       1
_space_group_crystal_system       triclinic
_cell_length_a                    15.079686
_cell_length_b                    10.821311
_cell_length_c                    13.678554
_cell_angle_alpha                 90.126867
_cell_angle_beta                  89.854972
_cell_angle_gamma                 89.679448
_cell_volume                      2232.04579028

loop_
_atom_site_label
_atom_site_type_symbol
_atom_type_description
_atom_site_fract_x
_atom_site_fract_y
_atom_site_fract_z
_atom_type_partial_charge
C1    C     C_R   0.498284 0.262145 0.499716 0.800586
C2    C     C_R   0.501715 0.737855 0.500284 0.800583
C3    C     C_R   0.045759 0.484830 0.677775 -0.209577
C4    C     C_R   0.954241 0.515147 0.322222 -0.209578
C5    C     C_R   0.287739 0.240240 0.278695 -0.123378
C6    C     C_R   0.712270 0.759769 0.721299 -0.123388
C7    C     C_R   0.332357 0.179836 0.354159 -0.110271
C8    C     C_R   0.667645 0.820161 0.645834 -0.110259
C9    C     C_R   0.414733 0.122311 0.336928 0.035582
C10   C     C_R   0.585271 0.877690 0.663069 0.035585
C11   C     C_R   0.452442 0.125475 0.241823 0.038765
C12   C     C_R   0.547570 0.874537 0.758178 0.038755
C13   C     C_R   0.406247 0.186797 0.166667 -0.087148
C14   C     C_R   0.593771 0.813226 0.833333 -0.087147
C15   C     C_R   0.324742 0.244095 0.185265 -0.167759
C16   C     C_R   0.675275 0.755927 0.814733 -0.167766
C17   C     C_R   0.463992 0.933463 0.422119 -0.247816
C18   C     C_R   0.536008 0.066537 0.577879 -0.247814
C19   C     C_R   0.502897 0.871672 0.500978 -0.073288
C20   C     C_R   0.497103 0.128328 0.499021 -0.073289
C21   C     C_R   0.539503 0.938475 0.579856 -0.021422
C22   C     C_R   0.460498 0.061525 0.420142 -0.021422
C23   C     C_R   0.328445 0.500155 0.500098 0.813590
C24   C     C_R   0.671555 0.499845 0.499902 0.813590
C25   C     C_R   0.559117 0.426941 0.792971 0.021306
C26   C     C_R   0.440883 0.573059 0.207029 0.021304
C27   C     C_R   0.440916 0.573049 0.793534 0.022500
C28   C     C_R   0.559084 0.426951 0.206466 0.022504
C29   C     C_R   0.439486 0.574788 0.896639 -0.022768
C30   C     C_R   0.560514 0.425212 0.103361 -0.022779
C31   C     C_R   0.500011 0.500011 0.948161 0.077690
C32   C     C_R   0.499989 0.499989 0.051839 0.077686
C33   C     C_R   0.560532 0.425206 0.896062 -0.012269
C34   C     C_R   0.439468 0.574794 0.103938 -0.012270
C35   C     C_R   0.379328 0.649284 0.949204 -0.158500
C36   C     C_R   0.620672 0.350717 0.050795 -0.158495
C37   C     C_R   0.379341 0.649336 0.051943 -0.191297
C38   C     C_R   0.620659 0.350664 0.948056 -0.191294
C39   C     C_R   0.814920 0.507236 0.411119 -0.248096
C40   C     C_R   0.185080 0.492745 0.588880 -0.248098
C41   C     C_R   0.768373 0.499508 0.499804 -0.074602
C42   C     C_R   0.231627 0.500491 0.500194 -0.074602
C43   C     C_R   0.814519 0.491391 0.588501 -0.263825
C44   C     C_R   0.185482 0.508619 0.411498 -0.263822
C45   C     C_R   0.906870 0.491866 0.589230 0.107257
C46   C     C_R   0.093131 0.508129 0.410768 0.107256
C47   C     C_R   0.953523 0.499828 0.499949 0.064633
C48   C     C_R   0.046478 0.500155 0.500048 0.064632
C49   C     C_R   0.907316 0.507409 0.410567 0.107902
C50   C     C_R   0.092684 0.492569 0.589430 0.107903
C51   C     C_R   0.953303 0.484495 0.677676 -0.218894
C52   C     C_R   0.046698 0.515497 0.322322 -0.218891
Cu1   Cu    Cu3+1 0.500010 0.499980 0.597420 0.945103
Cu2   Cu    Cu3+1 0.499990 0.500020 0.402580 0.945102
H1    H     H_    0.779386 0.513384 0.342461 0.155169
H2    H     H_    0.220614 0.486594 0.657537 0.155170
H3    H     H_    0.434457 0.881854 0.362527 0.155117
H4    H     H_    0.565543 0.118146 0.637471 0.155117
H5    H     H_    0.605106 0.369864 0.751749 0.121231
H6    H     H_    0.394893 0.630135 0.248251 0.121229
H7    H     H_    0.395130 0.630425 0.752756 0.126781
H8    H     H_    0.604870 0.369575 0.247244 0.126784
H9    H     H_    0.332266 0.707480 0.910879 0.162522
H10   H     H_    0.667735 0.292521 0.089121 0.162536
H11   H     H_    0.332319 0.707640 0.090707 0.142455
H12   H     H_    0.667681 0.292361 0.909293 0.142457
H13   H     H_    0.778687 0.484614 0.657101 0.152167
H14   H     H_    0.221314 0.515420 0.342900 0.152165
H15   H     H_    0.918118 0.478502 0.746670 0.140409
H16   H     H_    0.081884 0.521498 0.253328 0.140407
H17   H     H_    0.080558 0.479022 0.746849 0.143151
H18   H     H_    0.919444 0.520948 0.253148 0.143152
H19   H     H_    0.290227 0.291692 0.127028 0.137357
H20   H     H_    0.709796 0.708340 0.872971 0.137358
H21   H     H_    0.224311 0.284124 0.292677 0.133858
H22   H     H_    0.775697 0.715884 0.707314 0.133856
H23   H     H_    0.302933 0.178377 0.426489 0.118324
H24   H     H_    0.697064 0.821612 0.573501 0.118320
H25   H     H_    0.433629 0.191765 0.093502 0.185348
H26   H     H_    0.566395 0.808269 0.906503 0.185347
N1    N     N_R   0.499960 0.499900 0.743810 -0.181229
N2    N     N_R   0.500040 0.500100 0.256190 -0.181228
O1    O     O_R   0.500000 0.319630 0.582270 -0.587507
O2    O     O_R   0.500000 0.680370 0.417730 -0.587509
O3    O     O_R   0.499990 0.319660 0.417730 -0.577359
O4    O     O_R   0.500010 0.680340 0.582270 -0.577360
O5    O     O_R   0.370260 0.499960 0.582280 -0.592337
O6    O     O_R   0.629740 0.500040 0.417720 -0.592337
O7    O     O_R   0.370250 0.499990 0.417740 -0.586748
O8    O     O_R   0.629750 0.500010 0.582260 -0.586747
C53   C     C_2   0.540340 0.068625 0.220865 0.303342
H27   H     H_    0.579842 0.029110 0.279198 0.091189
O9    O     O_2   0.570023 0.065278 0.137743 -0.547247
C54   C     C_2   0.459673 0.931389 0.779140 0.303346
H28   H     H_    0.420164 0.970892 0.720806 0.091186
O10   O     O_2   0.429998 0.934750 0.862264 -0.547237

loop_
_geom_bond_atom_site_label_1
_geom_bond_atom_site_label_2
_ccdc_geom_bond_type
C8    H24   S    
C13   H25   S    
C27   C29   A    
C18   C21   A    
C2    O2    A    
Cu2   N2    S    
Cu2   O2    S    
C47   C49   A    
Cu1   Cu2   S    
C23   C42   S    
C4    C52   A    
C16   H20   S    
C35   C37   A    
C9    C22   S    
C45   C51   A    
C34   C37   A    
C46   C52   A    
Cu1   N1    S    
C27   H7    S    
C26   C34   A    
C39   H1    S    
C31   C32   A    
C40   H2    S    
C37   H11   S    
C23   O7    A    
Cu1   O4    S    
C14   H26   S    
C7    H23   S    
C48   C50   A    
C26   N2    A    
C23   O5    A    
C25   N1    A    
C24   C41   S    
C41   C43   A    
C12   C54   S    
C42   C44   A    
C3    C50   A    
C44   C46   A    
C45   C47   A    
C10   C21   S    
C1    O3    A    
C46   C48   A    
C28   N2    A    
C38   H12   S    
C27   N1    A    
Cu2   O7    S    
C39   C41   A    
C53   H27   S    
C5    C7    A    
C3    C51   A    
C6    C8    A    
C32   C34   A    
C5    H21   S    
C3    H17   S    
C53   O9    D    
C24   O6    A    
C47   C48   A    
C29   C31   A    
C31   C33   A    
Cu1   O5    S    
C54   O10   D    
C9    C11   A    
C10   C12   A    
C43   H13   S    
C39   C49   A    
C20   C22   A    
C13   C15   A    
C14   C16   A    
C44   H14   S    
C4    H18   S    
C7    C9    A    
C1    C20   S    
C15   H19   S    
C2    C19   S    
C17   C22   A    
C12   C14   A    
C40   C42   A    
C24   O8    A    
Cu2   O3    S    
C6    H22   S    
C1    O1    A    
C51   H15   S    
C29   C35   A    
C33   C38   A    
C30   C36   A    
C4    C49   A    
Cu1   O1    S    
Cu2   O6    S    
C36   C38   A    
C43   C45   A    
C30   C32   A    
C11   C13   A    
C40   C50   A    
C28   C30   A    
C17   C19   A    
C18   H4    S    
C2    O4    A    
C18   C20   A    
C54   H28   S    
C5    C15   A    
C52   H16   S    
C6    C16   A    
C11   C53   S    
C8    C10   A    
C25   C33   A    
Cu1   O8    S    
C35   H9    S    
C25   H5    S    
C36   H10   S    
C26   H6    S    
C17   H3    S    
C19   C21   A    
C28   H8    S    
