data_mof_unit_64420.cif
_audit_creation_date              2012-12-10T22:08:29-0500
_audit_creation_method            fapswitch 2.2
_symmetry_space_group_name_H-M    P1
_symmetry_Int_Tables_number       1
_space_group_crystal_system       triclinic
_cell_length_a                    15.948799
_cell_length_b                    16.159485
_cell_length_c                    29.907152
_cell_angle_alpha                 90.493578
_cell_angle_beta                  89.656728
_cell_angle_gamma                 90.336789
_cell_volume                      7707.24698705

loop_
_atom_site_label
_atom_site_type_symbol
_atom_type_description
_atom_site_fract_x
_atom_site_fract_y
_atom_site_fract_z
_atom_type_partial_charge
C1    C     C_R   0.618921 0.998906 0.558959 0.889903
C2    C     C_R   0.381079 0.001094 0.441041 0.889902
C3    C     C_R   0.927221 0.861212 0.153379 0.164213
C4    C     C_R   0.072775 0.138781 0.846625 0.164215
C5    C     C_R   0.061808 0.868126 0.213018 -0.188118
C6    C     C_R   0.938200 0.131882 0.786977 -0.188111
C7    C     C_R   0.057873 0.805165 0.181043 0.167459
C8    C     C_R   0.942136 0.194843 0.818952 0.167458
C9    C     C_R   0.934066 0.128086 0.209965 -0.228592
C10   C     C_R   0.065929 0.871904 0.790029 -0.228593
C11   C     C_R   0.933581 0.192763 0.179984 -0.195783
C12   C     C_R   0.066412 0.807227 0.820010 -0.195787
C13   C     C_R   0.085314 0.933483 0.309364 -0.219845
C14   C     C_R   0.914692 0.066514 0.690633 -0.219848
C15   C     C_R   0.146941 0.932522 0.342069 0.167633
C16   C     C_R   0.853065 0.067474 0.657928 0.167631
C17   C     C_R   0.910674 0.073341 0.307540 -0.173689
C18   C     C_R   0.089317 0.926663 0.692455 -0.173691
C19   C     C_R   0.846838 0.072704 0.339375 -0.187643
C20   C     C_R   0.153152 0.927300 0.660619 -0.187647
C21   C     C_3   0.002047 0.003835 0.248095 0.006450
C22   C     C_3   0.997953 0.996165 0.751905 0.006458
C23   C     C_R   0.617717 0.000933 0.440652 0.891811
C24   C     C_R   0.382283 0.999067 0.559348 0.891810
C25   C     C_R   0.074591 0.002952 0.281769 0.063348
C26   C     C_R   0.925408 0.997050 0.718232 0.063340
C27   C     C_R   0.196811 0.003032 0.349142 0.026680
C28   C     C_R   0.803186 0.996970 0.650860 0.026681
C29   C     C_R   0.924319 0.004346 0.279148 0.061210
C30   C     C_R   0.075682 0.995652 0.720852 0.061207
C31   C     C_R   0.796303 0.002630 0.344267 0.096817
C32   C     C_R   0.203698 0.997368 0.655734 0.096819
C33   C     C_R   0.006556 0.079662 0.216563 -0.008329
C34   C     C_R   0.993443 0.920337 0.783437 -0.008336
C35   C     C_R   0.004590 0.210512 0.154836 0.042119
C36   C     C_R   0.995408 0.789488 0.845164 0.042122
C37   C     C_R   0.999037 0.929115 0.215734 0.037488
C38   C     C_R   0.000965 0.070886 0.784266 0.037492
C39   C     C_R   0.990891 0.802161 0.150939 0.022890
C40   C     C_R   0.009111 0.197840 0.849061 0.022895
C41   C     C_1   0.733465 0.002188 0.378364 -0.004706
C42   C     C_1   0.266536 0.997811 0.621636 -0.004706
C43   C     C_1   0.680782 0.001506 0.407010 -0.121079
C44   C     C_1   0.319218 0.998494 0.592989 -0.121079
C45   C     C_R   0.121249 0.075217 0.291911 -0.189086
C46   C     C_R   0.878739 0.924789 0.708095 -0.189089
C47   C     C_1   0.261396 0.002122 0.381841 0.041143
C48   C     C_1   0.738603 0.997879 0.618160 0.041144
C49   C     C_1   0.316049 0.001697 0.409011 -0.102128
C50   C     C_1   0.683949 0.998303 0.590989 -0.102127
C51   C     C_1   0.000481 0.274686 0.122559 0.037423
C52   C     C_1   0.999518 0.725314 0.877441 0.037422
C53   C     C_1   0.998922 0.327180 0.094685 -0.109524
C54   C     C_1   0.001077 0.672819 0.905315 -0.109523
C55   C     C_1   0.989135 0.740065 0.116854 0.042590
C56   C     C_1   0.010866 0.259936 0.883145 0.042591
C57   C     C_1   0.989755 0.687494 0.088503 -0.098586
C58   C     C_1   0.010246 0.312506 0.911496 -0.098587
C59   C     C_R   0.993313 0.623673 0.055834 0.889505
C60   C     C_R   0.006688 0.376327 0.944166 0.889502
C61   C     C_R   0.999175 0.388488 0.061154 0.888413
C62   C     C_R   0.000825 0.611512 0.938846 0.888414
C63   C     C_R   0.183059 0.074907 0.324488 0.167861
C64   C     C_R   0.816928 0.925099 0.675519 0.167857
C65   C     C_R   0.873055 0.933508 0.285195 -0.217620
C66   C     C_R   0.126957 0.066483 0.714811 -0.217624
C67   C     C_R   0.809055 0.932849 0.317069 0.188205
C68   C     C_R   0.190958 0.067142 0.682938 0.188204
C69   C     C_R   0.078873 0.096779 0.189180 0.129682
C70   C     C_R   0.921131 0.903228 0.810824 0.129681
C71   C     C_R   0.077475 0.163512 0.159127 0.260435
C72   C     C_R   0.922529 0.836496 0.840878 0.260436
C73   C     C_R   0.931597 0.923828 0.185417 -0.209602
C74   C     C_R   0.068398 0.076166 0.814587 -0.209613
H1    H     H_    0.883714 0.876897 0.266628 0.175704
H2    H     H_    0.116308 0.123090 0.733384 0.175709
H3    H     H_    0.881937 0.969147 0.186626 0.179760
H4    H     H_    0.118053 0.030842 0.813382 0.179766
H5    H     H_    0.116521 0.870141 0.233963 0.193294
H6    H     H_    0.883492 0.129873 0.766030 0.193290
H7    H     H_    0.875201 0.114653 0.226436 0.180112
H8    H     H_    0.124791 0.885329 0.773554 0.180118
H9    H     H_    0.045510 0.879465 0.305305 0.175910
H10   H     H_    0.954503 0.120528 0.694688 0.175915
H11   H     H_    0.950463 0.127676 0.305267 0.163086
H12   H     H_    0.049520 0.872333 0.694723 0.163089
H13   H     H_    0.876586 0.227968 0.175639 0.174587
H14   H     H_    0.123404 0.772015 0.824351 0.174587
H15   H     H_    0.837843 0.126473 0.360741 0.165501
H16   H     H_    0.162138 0.873537 0.639249 0.165501
H17   H     H_    0.109950 0.132822 0.274976 0.170804
H18   H     H_    0.890030 0.867185 0.725033 0.170811
O1    O     O_R   0.591150 0.068800 0.545430 -0.601950
O2    O     O_R   0.408850 0.931200 0.454570 -0.601950
O3    O     O_R   0.588750 0.931200 0.454570 -0.598440
O4    O     O_R   0.411250 0.068800 0.545430 -0.598440
O5    O     O_R   0.590220 0.070350 0.455860 -0.611783
O6    O     O_R   0.409780 0.929650 0.544140 -0.611783
O7    O     O_R   0.589680 0.929650 0.544140 -0.603977
O8    O     O_R   0.410320 0.070350 0.455860 -0.603977
O9    O     O_R   0.065580 0.596830 0.043410 -0.601375
O10   O     O_R   0.934420 0.403170 0.956590 -0.601375
O11   O     O_R   0.928990 0.412290 0.044840 -0.615953
O12   O     O_R   0.071010 0.587710 0.955160 -0.615953
O13   O     O_R   0.069930 0.417270 0.047240 -0.588780
O14   O     O_R   0.930070 0.582730 0.952760 -0.588782
O15   O     O_R   0.924640 0.591850 0.041010 -0.602800
O16   O     O_R   0.075360 0.408150 0.958990 -0.602801
Zn1   Zn    Zn3+2 0.500990 0.093570 0.500870 1.049963
Zn2   Zn    Zn3+2 0.499010 0.906430 0.499130 1.049964
Zn3   Zn    Zn3+2 0.094790 0.503330 0.001610 1.060401
Zn4   Zn    Zn3+2 0.905210 0.496670 0.998390 1.060400
I1    I     I_    0.252849 0.185549 0.335206 -0.263967
I2    I     I_    0.747123 0.814464 0.664809 -0.263968
I3    I     I_    0.191621 0.024254 0.189566 -0.213287
I4    I     I_    0.808389 0.975763 0.810443 -0.213282
I5    I     I_    0.735935 0.823430 0.323767 -0.272864
I6    I     I_    0.264097 0.176549 0.676251 -0.272865
Br1   Br    Br    0.174033 0.191045 0.122527 -0.379713
Br2   Br    Br    0.825978 0.808976 0.877486 -0.379715
I7    I     I_    0.823730 0.860277 0.109075 -0.244964
I8    I     I_    0.176254 0.139706 0.890935 -0.244966
I9    I     I_    0.157057 0.718055 0.178914 -0.242581
I10   I     I_    0.842963 0.281964 0.821074 -0.242590
I11   I     I_    0.160956 0.823060 0.379940 -0.275626
I12   I     I_    0.839064 0.176929 0.620049 -0.275634

loop_
_geom_bond_atom_site_label_1
_geom_bond_atom_site_label_2
_ccdc_geom_bond_type
C16   C28   A    
C66   C68   A    
O6    Zn2   S    
C5    C37   A    
C17   C29   A    
O15   Zn4   S    
O10   Zn4   S    
C14   H10   S    
C19   C31   A    
C1    O7    A    
C47   C49   T    
O14   Zn4   S    
C31   C67   A    
C18   H12   S    
C23   O3    A    
C17   H11   S    
C61   O11   A    
C24   O4    A    
C20   C32   A    
C57   C59   S    
C21   C33   S    
C58   C60   S    
C22   C38   S    
C23   C43   S    
C21   C37   S    
C69   C71   A    
C37   C73   A    
C68   I6    S    
C3    C73   A    
C15   C27   A    
C39   C55   S    
C4    C40   A    
C11   H13   S    
C40   C56   S    
C6    C38   A    
C18   C30   A    
C12   C36   A    
C61   O13   A    
C1    C50   S    
C34   C70   A    
C4    C74   A    
C36   C52   S    
C33   C69   A    
C32   C68   A    
C48   C50   T    
O13   Zn3   S    
C2    O8    A    
O8    Zn1   S    
C45   C63   A    
C9    C33   A    
C41   C43   T    
C13   C25   A    
C42   C44   T    
C60   O10   A    
C52   C54   T    
C62   O12   A    
C32   C42   S    
C22   C34   S    
C64   I2    S    
C12   H14   S    
C59   O9    A    
C2    O2    A    
C5    C7    A    
C8    I10   S    
C6    C8    A    
C54   C62   S    
C70   I4    S    
O7    Zn2   S    
C20   H16   S    
O2    Zn2   S    
C59   O15   A    
C46   C64   A    
O11   Zn4   S    
C51   C53   T    
C19   H15   S    
C2    C49   S    
O5    Zn1   S    
C6    H6    S    
C66   H2    S    
C72   Br2   S    
C4    I8    S    
C10   C34   A    
C14   C26   A    
C67   I5    S    
C30   C66   A    
C10   C12   A    
C29   C65   A    
C28   C64   A    
C23   O5    A    
C55   C57   T    
C35   C51   S    
C24   C44   S    
C14   C16   A    
C5    H5    S    
C53   C61   S    
C25   C45   A    
C38   C74   A    
C27   C47   S    
C21   C25   S    
C69   I3    S    
C7    C39   A    
C31   C41   S    
C7    I9    S    
O3    Zn2   S    
C60   O16   A    
O12   Zn3   S    
C10   H8    S    
C62   O14   A    
O9    Zn3   S    
O4    Zn1   S    
C13   H9    S    
C3    C39   A    
C65   C67   A    
O16   Zn3   S    
C71   Br1   S    
C13   C15   A    
C22   C30   S    
C21   C29   S    
C9    C11   A    
C11   C35   A    
C17   C19   A    
C28   C48   S    
C56   C58   T    
C18   C20   A    
C45   H17   S    
C16   I12   S    
C26   C46   A    
C35   C71   A    
C24   O6    A    
C63   I1    S    
C36   C72   A    
C46   H18   S    
C1    O1    A    
C22   C26   S    
O1    Zn1   S    
C73   H3    S    
C27   C63   A    
C70   C72   A    
C8    C40   A    
C15   I11   S    
C65   H1    S    
C3    I7    S    
C9    H7    S    
C74   H4    S    
