data_mof_unit_64436.cif
_audit_creation_date              2013-03-05T16:28:25-0500
_audit_creation_method            fapswitch 2.2
_symmetry_space_group_name_H-M    P1
_symmetry_Int_Tables_number       1
_space_group_crystal_system       triclinic
_cell_length_a                    18.270669
_cell_length_b                    18.275576
_cell_length_c                    21.413867
_cell_angle_alpha                 89.87293
_cell_angle_beta                  90.002742
_cell_angle_gamma                 90.002879
_cell_volume                      7150.22248408

loop_
_atom_site_label
_atom_site_type_symbol
_atom_site_description
_atom_site_fract_x
_atom_site_fract_y
_atom_site_fract_z
_atom_type_partial_charge
O1    O     O_R   0.439410 0.107330 0.500000 -0.621120
O2    O     O_R   0.439410 0.892670 0.500000 -0.621205
O3    O     O_R   0.939410 0.607330 0.000000 -0.620960
O4    O     O_R   0.939410 0.392670 0.000000 -0.621157
O5    O     O_R   0.560610 0.107310 0.500000 -0.587514
O6    O     O_R   0.560610 0.892690 0.500000 -0.587676
O7    O     O_R   0.060610 0.607310 0.000000 -0.587569
O8    O     O_R   0.060610 0.392690 0.000000 -0.587850
C1    C     C_R   0.500016 0.141251 0.500111 0.968060
C2    C     C_R   0.500013 0.858750 0.499887 0.968711
C3    C     C_R   0.000017 0.641250 0.000114 0.967894
C4    C     C_R   0.000013 0.358749 0.999882 0.969026
O9    O     O_R   0.439410 0.000000 0.593020 -0.594558
O10   O     O_R   0.439410 0.000000 0.406980 -0.594554
O11   O     O_R   0.939410 0.500000 0.093020 -0.594599
O12   O     O_R   0.939410 0.500000 0.906980 -0.594577
O13   O     O_R   0.560610 1.000000 0.593010 -0.582052
O14   O     O_R   0.560610 0.000000 0.406990 -0.581997
O15   O     O_R   0.060610 0.500000 0.093010 -0.582108
O16   O     O_R   0.060610 0.500000 0.906990 -0.582012
C5    C     C_R   0.499951 0.000902 0.621664 0.997744
C6    C     C_R   0.499946 0.999137 0.378335 0.997647
C7    C     C_R   0.999953 0.500951 0.121663 0.997853
C8    C     C_R   0.999947 0.499117 0.878336 0.997678
Zn1   Zn    Zn3+2 0.419080 0.000000 0.500000 1.132000
Zn2   Zn    Zn3+2 0.919080 0.500000 0.000000 1.131993
Zn3   Zn    Zn3+2 0.580940 0.000000 0.500000 1.130554
Zn4   Zn    Zn3+2 0.080940 0.500000 0.000000 1.130518
C9    C     C_3   0.539708 0.056493 0.730748 0.278505
C10   C     C_3   0.539326 0.943287 0.269269 0.278599
C11   C     C_3   0.527778 0.061230 0.269624 0.271764
C12   C     C_3   0.527377 0.938627 0.730365 0.271863
C13   C     C_3   0.040176 0.556208 0.230766 0.278345
C14   C     C_3   0.039512 0.443397 0.769262 0.278562
C15   C     C_3   0.027576 0.561302 0.769631 0.271802
C16   C     C_3   0.026862 0.438449 0.230347 0.272035
C17   C     C_3   0.568568 0.993569 0.771552 0.047174
C18   C     C_3   0.568606 0.006005 0.228456 0.047213
C19   C     C_3   0.068507 0.493027 0.271552 0.047106
C20   C     C_3   0.068584 0.506219 0.728455 0.047202
C21   C     C_3   0.499247 0.000441 0.811528 -0.147919
C22   C     C_3   0.499244 0.999572 0.188471 -0.147920
C23   C     C_3   0.999243 0.500456 0.311527 -0.147916
C24   C     C_3   0.999242 0.499566 0.688471 -0.147923
C25   C     C_3   0.470864 0.065057 0.771755 -0.269137
C26   C     C_3   0.470428 0.935157 0.228254 -0.269135
C27   C     C_3   0.458457 0.056529 0.228647 -0.266471
C28   C     C_3   0.458083 0.943766 0.771333 -0.266459
C29   C     C_3   0.971405 0.565326 0.271769 -0.269072
C30   C     C_3   0.970640 0.435049 0.728248 -0.269159
C31   C     C_3   0.958267 0.556381 0.728655 -0.266447
C32   C     C_3   0.957607 0.444146 0.271313 -0.266510
C33   C     C_3   0.431954 0.008176 0.730432 0.266373
C34   C     C_3   0.431895 0.992304 0.269558 0.266379
C35   C     C_3   0.932023 0.508788 0.230426 0.266379
C36   C     C_3   0.931920 0.492062 0.769560 0.266375
C37   C     C_3   0.499883 0.001392 0.688814 -0.317817
C38   C     C_3   0.499866 0.998660 0.311185 -0.317824
C39   C     C_3   0.999896 0.501457 0.188813 -0.317806
C40   C     C_3   0.999870 0.498634 0.811186 -0.317812
H1    H     H_    0.447205 0.116959 0.789499 0.206981
H2    H     H_    0.446429 0.883406 0.210512 0.206973
H3    H     H_    0.425166 0.103009 0.211020 0.209655
H4    H     H_    0.424483 0.897500 0.788946 0.209624
H5    H     H_    0.948175 0.617417 0.289521 0.207047
H6    H     H_    0.946810 0.383222 0.710504 0.206970
H7    H     H_    0.924823 0.602753 0.711035 0.209650
H8    H     H_    0.923622 0.398156 0.288912 0.209515
C41   C     C_1   0.500039 0.217750 0.500173 -0.083082
C42   C     C_1   0.500030 0.782250 0.499825 -0.082664
C43   C     C_1   0.000039 0.717750 0.000175 -0.083136
C44   C     C_1   0.000030 0.282250 0.999822 -0.082493
C45   C     C_1   0.500046 0.282544 0.500170 -0.125449
C46   C     C_1   0.500039 0.717456 0.499830 -0.125243
C47   C     C_1   0.000045 0.782544 0.000170 -0.125448
C48   C     C_1   0.000038 0.217456 0.999829 -0.125213
O17   O     O_R   0.607280 0.939410 0.000000 -0.609787
O18   O     O_R   0.607280 0.060590 0.000000 -0.609709
O19   O     O_R   0.107280 0.439410 0.500000 -0.609869
O20   O     O_R   0.107280 0.560590 0.500000 -0.609656
C49   C     C_R   0.641214 0.000002 0.999999 0.913535
C50   C     C_R   0.141213 0.500001 0.499999 0.913570
O21   O     O_R   0.499930 0.939410 0.906960 -0.614068
O22   O     O_R   0.499930 0.060590 0.093040 -0.614160
O23   O     O_R   0.499930 0.939410 0.093040 -0.615899
O24   O     O_R   0.499930 0.060590 0.906960 -0.616010
O25   O     O_R   0.999930 0.439410 0.406960 -0.614011
O26   O     O_R   0.999930 0.560590 0.593040 -0.614121
O27   O     O_R   0.999930 0.439410 0.593040 -0.615946
O28   O     O_R   0.999930 0.560590 0.406960 -0.616093
C51   C     C_R   0.499256 0.000097 0.878413 0.943418
C52   C     C_R   0.499257 0.999904 0.121586 0.943401
C53   C     C_R   0.999252 0.500099 0.378413 0.943438
C54   C     C_R   0.999255 0.499903 0.621586 0.943411
Zn5   Zn    Zn3+2 0.499940 0.919080 0.000000 1.045372
Zn6   Zn    Zn3+2 0.499940 0.080920 0.000000 1.045168
Zn7   Zn    Zn3+2 0.999940 0.419080 0.500000 1.045286
Zn8   Zn    Zn3+2 0.999940 0.580920 0.500000 1.045200
O29   O     O_R   0.392580 0.939390 0.000000 -0.614843
O30   O     O_R   0.392580 0.060610 0.000000 -0.614891
O31   O     O_R   0.892580 0.439390 0.500000 -0.614861
O32   O     O_R   0.892580 0.560610 0.500000 -0.614849
C55   C     C_R   0.358673 0.999998 0.000001 0.920057
C56   C     C_R   0.858673 0.499998 0.500001 0.920060
O33   O     O_R   0.607360 0.500000 0.552500 -0.603097
O34   O     O_R   0.607360 0.500000 0.447500 -0.603064
O35   O     O_R   0.107360 0.000000 0.052500 -0.603122
O36   O     O_R   0.107360 0.000000 0.947500 -0.603073
C57   C     C_R   0.640940 0.499999 0.500001 0.915246
C58   C     C_R   0.140940 0.999999 0.000001 0.915225
O37   O     O_R   0.500010 0.392660 0.552500 -0.605031
O38   O     O_R   0.500010 0.607340 0.447500 -0.604914
O39   O     O_R   0.500010 0.392660 0.447500 -0.602473
O40   O     O_R   0.500010 0.607340 0.552500 -0.602338
O41   O     O_R   0.000010 0.892660 0.052500 -0.605186
O42   O     O_R   0.000010 0.107340 0.947500 -0.605064
O43   O     O_R   0.000010 0.892660 0.947500 -0.602329
O44   O     O_R   0.000010 0.107340 0.052500 -0.602154
C59   C     C_R   0.500031 0.359058 0.500059 0.908169
C60   C     C_R   0.500029 0.640942 0.499941 0.908188
C61   C     C_R   0.000031 0.859058 0.000059 0.908201
C62   C     C_R   0.000029 0.140942 0.999941 0.908149
Zn9   Zn    Zn3+2 0.500000 0.500000 0.570120 1.067835
Zn10  Zn    Zn3+2 0.500000 0.500000 0.429880 1.067879
Zn11  Zn    Zn3+2 0.000000 0.000000 0.070120 1.067840
Zn12  Zn    Zn3+2 1.000000 0.000000 0.929880 1.067840
O45   O     O_R   0.392660 0.500000 0.552510 -0.613100
O46   O     O_R   0.392660 0.500000 0.447490 -0.613081
O47   O     O_R   0.892660 0.000000 0.052510 -0.613080
O48   O     O_R   0.892660 0.000000 0.947490 -0.613098
C63   C     C_R   0.359057 0.500001 0.499999 0.908991
C64   C     C_R   0.859057 0.000001 0.999999 0.909015
C65   C     C_1   0.717723 0.000004 0.999997 -0.162331
C66   C     C_1   0.217723 0.500004 0.499997 -0.162319
C67   C     C_1   0.282530 0.500003 0.499997 -0.147422
C68   C     C_1   0.782530 0.000003 0.999997 -0.147422
C69   C     C_1   0.282200 0.999996 0.000003 -0.140089
C70   C     C_1   0.782200 0.499996 0.500003 -0.140071
C71   C     C_1   0.717419 0.499997 0.500003 -0.132008
C72   C     C_1   0.217419 0.999997 0.000003 -0.132042
C73   C     C_3   0.646229 0.985228 0.796210 -0.732957
H9    H     H_    0.685005 0.981671 0.756456 0.260435
H10   H     H_    0.660497 0.033131 0.825550 0.244818
H11   H     H_    0.650284 0.934739 0.824884 0.250357
C74   C     C_3   0.646322 0.013824 0.203804 -0.733051
H12   H     H_    0.685117 0.017152 0.243562 0.260471
H13   H     H_    0.660271 0.965810 0.174489 0.245004
H14   H     H_    0.650711 0.064267 0.175107 0.250169
C75   C     C_3   0.146096 0.484019 0.296210 -0.732802
H15   H     H_    0.149729 0.433475 0.324854 0.250571
H16   H     H_    0.184845 0.480171 0.256457 0.260391
H17   H     H_    0.160762 0.531777 0.325580 0.244610
C76   C     C_3   0.146274 0.514302 0.703804 -0.733008
H18   H     H_    0.185060 0.517745 0.743561 0.260451
H19   H     H_    0.160382 0.466344 0.674477 0.244904
H20   H     H_    0.150498 0.564768 0.675118 0.250264
N1    N     N_R   0.583963 0.118588 0.710529 0.232197
O49   O     O_R   0.615412 0.159856 0.752004 -0.342852
O50   O     O_R   0.588619 0.135955 0.651763 -0.378226
N2    N     N_R   0.583173 0.880921 0.289521 0.232176
O51   O     O_R   0.614294 0.839383 0.248069 -0.342586
O52   O     O_R   0.587832 0.863650 0.348308 -0.378685
N3    N     N_R   0.559041 0.130416 0.290466 0.230921
O53   O     O_R   0.580206 0.178510 0.249437 -0.342731
O54   O     O_R   0.563676 0.145718 0.349588 -0.392523
N4    N     N_R   0.558189 0.869251 0.709504 0.230924
O55   O     O_R   0.578977 0.820975 0.750519 -0.342535
O56   O     O_R   0.562847 0.854001 0.650375 -0.392946
N5    N     N_R   0.084942 0.617954 0.210584 0.232248
O57   O     O_R   0.116802 0.658872 0.252085 -0.343013
O58   O     O_R   0.089587 0.635450 0.151845 -0.377691
N6    N     N_R   0.083561 0.381167 0.789499 0.232179
O59   O     O_R   0.114846 0.339765 0.748036 -0.342760
O60   O     O_R   0.088217 0.363847 0.848275 -0.378558
N7    N     N_R   0.058615 0.630584 0.790483 0.230931
O61   O     O_R   0.079593 0.678771 0.749463 -0.342599
O62   O     O_R   0.063261 0.645861 0.849609 -0.392644
N8    N     N_R   0.057106 0.368835 0.209461 0.230907
O63   O     O_R   0.077418 0.320332 0.250455 -0.342484
O64   O     O_R   0.061790 0.353646 0.150321 -0.393446
N9    N     N_R   0.357282 0.017247 0.707888 0.246551
O65   O     O_R   0.308040 0.967827 0.719952 -0.343915
O66   O     O_R   0.338896 0.076323 0.677776 -0.339331
N10   N     N_R   0.357158 0.983740 0.292083 0.246514
O67   O     O_R   0.308270 0.033510 0.280031 -0.344116
O68   O     O_R   0.338342 0.924763 0.322143 -0.339066
N11   N     N_R   0.857440 0.518507 0.207866 0.246594
O69   O     O_R   0.807753 0.469542 0.219957 -0.343792
O70   O     O_R   0.839599 0.577700 0.177681 -0.339609
N12   N     N_R   0.857216 0.483242 0.792093 0.246535
O71   O     O_R   0.808152 0.532840 0.780038 -0.343972
O72   O     O_R   0.838613 0.424213 0.822176 -0.339243

loop_
_geom_bond_atom_site_label_1
_geom_bond_atom_site_label_2
_geom_bond_distance
_ccdc_geom_bond_type
O29   C55   1.269156 A    
N1    O49   1.300254 A    
O41   C61   1.281101 A    
C12   N4    1.458293 S    
N5    O58   1.299911 A    
N5    O57   1.300274 A    
O25   C53   1.265315 A    
O15   C7    1.266917 A    
N3    O53   1.300222 A    
C14   C40   1.534183 S    
C44   C48   1.184147 T    
C16   C39   1.534680 S    
C13   N5    1.458383 S    
C74   H12   1.109560 S    
C7    C39   1.437983 S    
N7    O62   1.299902 A    
N9    O65   1.300318 A    
N6    O59   1.300250 A    
C10   N2    1.458360 S    
O33   Zn9   1.997514 S    
C13   C19   1.536092 S    
O42   C62   1.281099 A    
C26   H2    1.110237 S    
C45   C59   1.398342 S    
C11   C38   1.534680 S    
N3    O54   1.299903 A    
C1    C41   1.398074 S    
O38   Zn10  1.998477 S    
C63   C67   1.398203 S    
O24   C51   1.264534 A    
C55   C69   1.397206 S    
C27   H3    1.110226 S    
N10   O68   1.300454 A    
C3    C43   1.398076 S    
C23   C32   1.543739 S    
C28   H4    1.110221 S    
Zn12  O48   1.997118 S    
C13   C29   1.542162 S    
C24   C54   1.432264 S    
C10   C38   1.534178 S    
N10   O67   1.300305 A    
C10   C18   1.536017 S    
O37   C59   1.281101 A    
C31   C36   1.541476 S    
C22   C26   1.544119 S    
C25   H1    1.110233 S    
O27   C54   1.264546 A    
O3    Zn2   1.996359 S    
O43   C61   1.280925 A    
O33   C57   1.280743 A    
O27   Zn7   2.027501 S    
C13   C39   1.534201 S    
O5    Zn3   1.996036 S    
O16   C8    1.266966 A    
O18   Zn6   1.996076 S    
C42   C46   1.184147 T    
C65   C68   1.184058 T    
C41   C45   1.184148 T    
C11   C27   1.543269 S    
O44   Zn11  1.996833 S    
C35   N11   1.456510 S    
C76   H19   1.109727 S    
O43   Zn12  1.996835 S    
C22   C52   1.432257 S    
C16   C32   1.543359 S    
C32   C35   1.541477 S    
C8    C40   1.437986 S    
Zn10  O46   1.997118 S    
O47   C64   1.281131 A    
O11   C7    1.264950 A    
C4    C44   1.398076 S    
C25   C33   1.540444 S    
O12   C8    1.264894 A    
O39   C59   1.280923 A    
N4    O56   1.299900 A    
C12   C28   1.543307 S    
O9    Zn1   2.026237 S    
C12   C37   1.534680 S    
C47   C61   1.398342 S    
C74   H13   1.109719 S    
O23   C52   1.264556 A    
N6    O60   1.299920 A    
O7    C3    1.269039 A    
C11   N3    1.458300 S    
N9    O66   1.300468 A    
O12   Zn2   2.026274 S    
C28   C33   1.541475 S    
C69   C72   1.183605 T    
O26   C54   1.265261 A    
C14   C30   1.542237 S    
O37   Zn9   1.998478 S    
O13   Zn3   2.026059 S    
N8    O63   1.300253 A    
O1    C1    1.269015 A    
O35   Zn11  1.997514 S    
O20   C50   1.269074 A    
C75   H17   1.109734 S    
O38   C60   1.281101 A    
C33   C37   1.533165 S    
C23   C29   1.544202 S    
O11   Zn2   2.026237 S    
C19   C23   1.534053 S    
O16   Zn4   2.026026 S    
Zn8   O32   1.996330 S    
O17   Zn5   1.996039 S    
O30   C55   1.269151 A    
C30   C36   1.540439 S    
O7    Zn4   1.996036 S    
C36   C40   1.533171 S    
C9    C25   1.542214 S    
C15   C40   1.534679 S    
C73   H10   1.109727 S    
N2    O52   1.299918 A    
C50   C66   1.397885 S    
O48   C64   1.281135 A    
N12   O71   1.300328 A    
O5    C1    1.269041 A    
C33   N9    1.456515 S    
Zn9   O45   1.997083 S    
O6    Zn3   1.996001 S    
O17   C49   1.269067 A    
O8    C4    1.269039 A    
O21   Zn5   2.025883 S    
C26   C34   1.540435 S    
C16   N8    1.458286 S    
N8    O64   1.299894 A    
C36   N12   1.456521 S    
C31   H7    1.110220 S    
C12   C17   1.535007 S    
O24   Zn6   2.027504 S    
C76   H20   1.109680 S    
O32   C56   1.269151 A    
O15   Zn4   2.026059 S    
C30   H6    1.110232 S    
C6    C38   1.437986 S    
C29   H5    1.110230 S    
C27   C34   1.541478 S    
O40   Zn9   1.996833 S    
C2    C42   1.398076 S    
C24   C31   1.543747 S    
C21   C51   1.432271 S    
C9    C37   1.534188 S    
O31   C56   1.269156 A    
C15   C31   1.543294 S    
N4    O55   1.300238 A    
O8    Zn4   1.996001 S    
O35   C58   1.280743 A    
C34   N10   1.456518 S    
C20   C76   1.521514 S    
C73   H11   1.109681 S    
O4    C4    1.269017 A    
O34   Zn10  1.997479 S    
O2    C2    1.269018 A    
O46   C63   1.281135 A    
O22   Zn6   2.025881 S    
C74   H14   1.109677 S    
C14   N6    1.458366 S    
C35   C39   1.533129 S    
O28   C53   1.264509 A    
C34   C38   1.533187 S    
C24   C30   1.544142 S    
O40   C60   1.280923 A    
C64   C68   1.398205 S    
N12   O72   1.300461 A    
O20   Zn8   1.996076 S    
O14   C6    1.266983 A    
C18   C74   1.521502 S    
O19   Zn7   1.996039 S    
C16   C19   1.534980 S    
C9    N1    1.458370 S    
O14   Zn3   2.026026 S    
C32   H8    1.110214 S    
O6    C2    1.269037 A    
O19   C50   1.269066 A    
O4    Zn2   1.996397 S    
O1    Zn1   1.996359 S    
C49   C65   1.397885 S    
C66   C67   1.184060 T    
O21   C51   1.265276 A    
C5    C37   1.437983 S    
C19   C75   1.521527 S    
O41   Zn11  1.998478 S    
C11   C18   1.535027 S    
C10   C26   1.542253 S    
C57   C71   1.397322 S    
C48   C62   1.398341 S    
N2    O51   1.300237 A    
O10   C6    1.264876 A    
C75   H16   1.109566 S    
C15   C20   1.535017 S    
C15   N7    1.458299 S    
N11   O69   1.300334 A    
N7    O61   1.300237 A    
C29   C35   1.540454 S    
C75   H15   1.109686 S    
O9    C5    1.264905 A    
C43   C47   1.184147 T    
O23   Zn5   2.027501 S    
O18   C49   1.269072 A    
O39   Zn10  1.996835 S    
O44   C62   1.280926 A    
Zn6   O30   1.996330 S    
C58   C72   1.397322 S    
O26   Zn8   2.025881 S    
C23   C53   1.432288 S    
C21   C28   1.543740 S    
O36   C58   1.280741 A    
O2    Zn1   1.996397 S    
Zn5   O29   1.996367 S    
C22   C27   1.543741 S    
O10   Zn1   2.026274 S    
C17   C21   1.534050 S    
O45   C63   1.281131 A    
N11   O70   1.300481 A    
O3    C3    1.269016 A    
C70   C71   1.183605 T    
C46   C60   1.398341 S    
C18   C22   1.534048 S    
Zn11  O47   1.997083 S    
C20   C24   1.534053 S    
C17   C73   1.521514 S    
N1    O50   1.299916 A    
C9    C17   1.536054 S    
C21   C25   1.544156 S    
C14   C20   1.536033 S    
O42   Zn12  1.998476 S    
O22   C52   1.265245 A    
O36   Zn12  1.997478 S    
C76   H18   1.109564 S    
C73   H9    1.109562 S    
C56   C70   1.397206 S    
O28   Zn8   2.027504 S    
Zn7   O31   1.996367 S    
O25   Zn7   2.025883 S    
O34   C57   1.280739 A    
O13   C5    1.266958 A    
