data_mof_unit_58083.cif
_audit_creation_date              2012-12-11T16:37:16-0500
_audit_creation_method            fapswitch 2.2
_symmetry_space_group_name_H-M    P1
_symmetry_Int_Tables_number       1
_space_group_crystal_system       triclinic
_cell_length_a                    19.573227
_cell_length_b                    6.94977
_cell_length_c                    17.663413
_cell_angle_alpha                 89.943451
_cell_angle_beta                  109.084162
_cell_angle_gamma                 90.04135
_cell_volume                      2270.68619736

loop_
_atom_site_label
_atom_site_type_symbol
_atom_type_description
_atom_site_fract_x
_atom_site_fract_y
_atom_site_fract_z
_atom_type_partial_charge
O1    O     O_R   0.561710 0.369960 0.440200 -0.541179
O2    O     O_R   0.061710 0.630040 0.940200 -0.538462
O3    O     O_R   0.412630 0.033330 0.406330 -0.542430
O4    O     O_R   0.912630 0.966670 0.906330 -0.541817
O5    O     O_R   0.438290 0.869790 0.559800 -0.540737
O6    O     O_R   0.938290 0.130210 0.059800 -0.540127
C1    C     C_R   0.384717 0.203250 0.383459 0.684698
C2    C     C_R   0.884825 0.796862 0.883246 0.686081
O7    O     O_R   0.559570 0.039810 0.430640 -0.538791
O8    O     O_R   0.059570 0.960190 0.930640 -0.543725
O9    O     O_R   0.586280 0.876320 0.584290 -0.530945
O10   O     O_R   0.086280 0.123680 0.084290 -0.539329
C3    C     C_R   0.579728 0.208459 0.413834 0.707963
C4    C     C_R   0.080094 0.791896 0.914156 0.697613
O11   O     O_R   0.413720 0.363440 0.415710 -0.539009
O12   O     O_R   0.913720 0.636560 0.915710 -0.538451
O13   O     O_3   0.508590 0.205630 0.550380 -0.368922
O14   O     O_3   0.008590 0.794370 0.050380 -0.367826
V1    V     V_3+5 0.498410 0.928130 0.490650 1.400135
V2    V     V_3+5 0.998410 0.071870 0.990650 1.391558
O15   O     O_R   0.587370 0.546990 0.593670 -0.542330
O16   O     O_R   0.087370 0.453010 0.093670 -0.537148
C5    C     C_R   0.614825 0.716881 0.617370 0.702129
C6    C     C_R   0.115633 0.283238 0.116258 0.705237
O17   O     O_R   0.440430 0.540520 0.569360 -0.543075
O18   O     O_R   0.940430 0.459480 0.069360 -0.543087
C7    C     C_R   0.419401 0.708858 0.584917 0.685831
C8    C     C_R   0.919237 0.290946 0.084764 0.686770
V3    V     V_3+5 0.501590 0.428960 0.509350 1.397713
V4    V     V_3+5 0.001590 0.571040 0.009350 1.404346
O19   O     O_3   0.491410 0.701330 0.449620 -0.374247
O20   O     O_3   0.991410 0.298670 0.949620 -0.372117
C9    C     C_R   0.315620 0.901303 0.716670 -0.142686
C10   C     C_R   0.811675 0.096271 0.212559 -0.142436
H1    H     H_    0.309705 0.038133 0.743102 0.102607
H2    H     H_    0.803862 0.958324 0.237063 0.102106
C11   C     C_R   0.360975 0.892209 0.669860 -0.166515
C12   C     C_R   0.857791 0.105686 0.166580 -0.165090
H3    H     H_    0.387903 0.022352 0.661011 0.122477
H4    H     H_    0.883371 0.974612 0.156371 0.122894
C13   C     C_R   0.371834 0.717498 0.635504 -0.052694
C14   C     C_R   0.871041 0.281797 0.134714 -0.053786
C15   C     C_R   0.336561 0.551526 0.649803 -0.161773
C16   C     C_R   0.837262 0.448653 0.150575 -0.162074
H5    H     H_    0.343545 0.414494 0.624118 0.119052
H6    H     H_    0.845969 0.586757 0.126768 0.118439
C17   C     C_R   0.290384 0.561090 0.695894 -0.142503
C18   C     C_R   0.790474 0.438911 0.195945 -0.142670
H7    H     H_    0.262489 0.431711 0.703553 0.097338
H8    H     H_    0.763934 0.569339 0.204985 0.097190
C19   C     C_R   0.278788 0.736585 0.729496 0.101747
C20   C     C_R   0.776632 0.262256 0.227196 0.101133
C21   C     C_R   0.219271 0.600280 0.825378 -0.153147
C22   C     C_R   0.719486 0.396832 0.325258 -0.151727
H9    H     H_    0.251451 0.470802 0.832175 0.112370
H10   H     H_    0.753425 0.523378 0.333544 0.113390
C23   C     C_R   0.170988 0.616591 0.868544 -0.160888
C24   C     C_R   0.671583 0.381347 0.368906 -0.169044
H11   H     H_    0.167793 0.498257 0.907168 0.134464
H12   H     H_    0.670243 0.497479 0.409250 0.129147
C25   C     C_R   0.128917 0.783579 0.864074 -0.071677
C26   C     C_R   0.627538 0.217569 0.362717 -0.065393
C27   C     C_R   0.136374 0.936925 0.813165 0.078722
C28   C     C_R   0.631733 0.067907 0.308841 0.080076
C29   C     C_R   0.184814 0.916038 0.769736 -0.162867
C30   C     C_R   0.680155 0.087404 0.265255 -0.162811
H13   H     H_    0.188528 0.029708 0.729263 0.100839
H14   H     H_    0.682012 0.976039 0.223117 0.100488
C31   C     C_R   0.227113 0.750403 0.775715 0.065502
C32   C     C_R   0.724878 0.249252 0.273365 0.065661
C33   C     C_R   0.803718 0.621139 0.762473 0.091719
C34   C     C_R   0.271617 0.384757 0.308185 0.094060
C35   C     C_R   0.817609 0.782232 0.813202 -0.100633
C36   C     C_R   0.314586 0.218668 0.317494 -0.099635
C37   C     C_R   0.764541 0.926938 0.795598 -0.180677
C38   C     C_R   0.289605 0.072050 0.260551 -0.191835
H15   H     H_    0.772255 0.052594 0.833418 0.125454
H16   H     H_    0.322274 0.945575 0.263515 0.143340
C39   C     C_R   0.698511 0.903877 0.732614 -0.146833
C40   C     C_R   0.224875 0.094087 0.195853 -0.163598
H17   H     H_    0.657770 0.014737 0.722978 0.120066
H18   H     H_    0.208623 0.983077 0.151081 0.144907
C41   C     C_R   0.683621 0.735816 0.685021 -0.113499
C42   C     C_R   0.183464 0.263580 0.185254 -0.108871
C43   C     C_R   0.738928 0.599847 0.699195 0.071991
C44   C     C_R   0.208594 0.408239 0.242328 0.059923
C45   C     C_3   0.735860 0.389428 0.712999 -0.231052
C46   C     C_3   0.227744 0.610129 0.229106 -0.224038
C47   C     C_3   0.805831 0.412216 0.782914 -0.431068
C48   C     C_3   0.294165 0.587935 0.302960 -0.427128
H19   H     H_    0.688503 0.346493 0.730661 0.122814
H20   H     H_    0.187650 0.716132 0.235743 0.132713
H21   H     H_    0.853187 0.337471 0.775373 0.177303
H22   H     H_    0.346667 0.598454 0.291684 0.173034
H23   H     H_    0.798710 0.388132 0.842129 0.163002
H24   H     H_    0.291267 0.674826 0.354644 0.164247
C49   C     C_1   0.744198 0.278622 0.645615 0.355236
N1    N     N_1   0.750629 0.191359 0.592584 -0.374148
C50   C     C_1   0.246091 0.629865 0.154665 0.322267
N2    N     N_1   0.260319 0.644845 0.096274 -0.384148
C51   C     C_3   0.093825 0.123678 0.800637 -0.358395
C52   C     C_3   0.014999 0.093894 0.747892 -0.285376
C53   C     C_3   0.976473 0.286567 0.724535 -0.753595
H25   H     H_    0.977316 0.367857 0.778951 0.230616
H26   H     H_    0.003264 0.374068 0.689666 0.225155
H27   H     H_    0.919575 0.261294 0.686600 0.224592
H28   H     H_    0.013324 0.016338 0.692273 0.193335
H29   H     H_    0.985638 0.006043 0.779846 0.192569
H30   H     H_    0.097728 0.192730 0.858364 0.192281
H31   H     H_    0.118391 0.230908 0.770395 0.165733
C54   C     C_3   0.585517 0.887128 0.293719 -0.357829
C55   C     C_3   0.506215 0.931118 0.246262 -0.292625
C56   C     C_3   0.461464 0.746798 0.227827 -0.743186
H32   H     H_    0.481418 0.649871 0.189674 0.226743
H33   H     H_    0.464831 0.670774 0.284231 0.229231
H34   H     H_    0.404112 0.782709 0.195260 0.224154
H35   H     H_    0.482479 0.029705 0.280319 0.186355
H36   H     H_    0.502946 0.002659 0.188850 0.193626
H37   H     H_    0.605463 0.781755 0.258395 0.164674
H38   H     H_    0.590990 0.810986 0.350545 0.194846

loop_
_geom_bond_atom_site_label_1
_geom_bond_atom_site_label_2
_ccdc_geom_bond_type
C24   C26   A    
C30   H14   S    
C27   C29   A    
C51   C52   S    
O11   V3    S    
C45   H19   S    
O13   V3    S    
C21   H9    S    
C54   C55   S    
O4    C2    A    
V1    O19   S    
C49   N1    T    
C17   H7    S    
O9    V1    S    
C37   C39   A    
C36   C38   A    
C12   H4    S    
C42   C44   A    
C12   C14   A    
O3    C1    A    
C22   C24   A    
C55   H35   S    
C44   C46   S    
C23   H11   S    
C24   H12   S    
C54   H37   S    
C8    C14   S    
C23   C25   A    
C25   C27   A    
O7    C3    A    
C26   C28   A    
O13   V1    S    
O5    C7    A    
O7    V1    S    
O6    C8    A    
C3    C26   S    
C46   H20   S    
O8    V2    S    
C29   H13   S    
C33   C47   S    
O3    V1    S    
O14   V4    S    
C10   H2    S    
C40   C42   A    
C56   H34   S    
C18   H8    S    
C21   C31   A    
C2    O12   A    
C33   C43   A    
C11   C13   A    
C13   C15   A    
C14   C16   A    
C55   C56   S    
C16   H6    S    
C48   H22   S    
C1    C36   S    
C43   C45   S    
O17   V3    S    
C22   H10   S    
C34   C36   A    
O8    C4    A    
C39   H17   S    
C21   C23   A    
C28   C54   S    
C17   C19   A    
C1    O11   A    
C51   H31   S    
C4    C25   S    
O15   V3    S    
C9    C11   A    
C9    C19   A    
C54   H38   S    
C28   C30   A    
C47   H23   S    
C55   H36   S    
C34   C48   S    
C7    C13   S    
C50   N2    T    
C22   C32   A    
O10   V2    S    
O1    V3    S    
C52   H28   S    
C53   H26   S    
C52   H29   S    
C15   H5    S    
C5    C41   S    
C40   H18   S    
C41   C43   A    
C46   C48   S    
O18   V4    S    
O15   C5    A    
O16   C6    A    
O1    C3    A    
C35   C37   A    
O12   V4    S    
C33   C35   A    
C56   H32   S    
V2    O20   S    
O16   V4    S    
C10   C12   A    
O18   C8    A    
C38   C40   A    
C38   H16   S    
C34   C44   A    
C48   H24   S    
O5    V1    S    
O4    V2    S    
O17   C7    A    
O6    V2    S    
O10   C6    A    
C10   C20   A    
O2    V4    S    
C45   C47   S    
C6    C42   S    
C27   C51   S    
V3    O19   S    
V4    O20   S    
C30   C32   A    
C15   C17   A    
C29   C31   A    
O9    C5    A    
C2    C35   S    
C9    H1    S    
C53   H27   S    
O14   V2    S    
C47   H21   S    
C52   C53   S    
O2    C4    A    
C46   C50   S    
C20   C32   S    
C39   C41   A    
C18   C20   A    
C11   H3    S    
C37   H15   S    
C53   H25   S    
C19   C31   S    
C45   C49   S    
C51   H30   S    
C16   C18   A    
C56   H33   S    
