data_mof_unit_26284.cif
_audit_creation_date              2012-12-11T14:55:59-0500
_audit_creation_method            fapswitch 2.2
_symmetry_space_group_name_H-M    P1
_symmetry_Int_Tables_number       1
_space_group_crystal_system       triclinic
_cell_length_a                    27.918157
_cell_length_b                    17.255319
_cell_length_c                    17.975786
_cell_angle_alpha                 90.144901
_cell_angle_beta                  137.652267
_cell_angle_gamma                 89.916505
_cell_volume                      5833.33056039

loop_
_atom_site_label
_atom_site_type_symbol
_atom_type_description
_atom_site_fract_x
_atom_site_fract_y
_atom_site_fract_z
_atom_type_partial_charge
C1    C     C_R   0.668297 0.922591 0.817196 -0.113931
C2    C     C_3   0.264604 0.708674 0.013729 0.265219
C3    C     C_3   0.664710 0.742763 0.944238 -0.212826
C4    C     C_3   0.204865 0.809652 0.907104 -0.229391
C5    C     C_3   0.833692 0.239052 0.059045 -0.260595
C6    C     C_3   0.796856 0.805309 0.089910 -0.293265
C7    C     C_3   0.164692 0.242801 0.944272 -0.212834
C8    C     C_3   0.245270 0.787102 0.025083 -0.187872
C9    C     C_3   0.792933 0.261089 0.939910 -0.230106
C10   C     C_3   0.752477 0.779772 0.970868 -0.241219
C11   C     C_3   0.209919 0.267594 0.065173 -0.229644
C12   C     C_3   0.745214 0.287163 0.024974 -0.187887
C13   C     C_3   0.230572 0.342989 0.048026 0.258309
C14   C     C_3   0.292877 0.761158 0.939828 -0.230072
C15   C     C_3   0.252434 0.279696 0.970780 -0.241128
C16   C     C_3   0.709875 0.767533 0.065114 -0.229811
C17   C     C_3   0.314352 0.819008 0.069663 0.062679
C18   C     C_3   0.724277 0.229554 0.896831 0.067694
C19   C     C_3   0.686769 0.818581 0.930648 0.117348
C20   C     C_3   0.275226 0.229206 0.103687 0.081642
C21   C     C_3   0.814348 0.318994 0.069663 0.062712
C22   C     C_3   0.224274 0.729545 0.896859 0.067671
C23   C     C_3   0.186771 0.318576 0.930639 0.117228
C24   C     C_3   0.730901 0.705328 0.985603 0.265943
C25   C     C_3   0.775225 0.729215 0.103703 0.081678
C26   C     C_3   0.448342 0.694009 0.611617 -0.988247
C27   C     C_3   0.610696 0.302098 0.495708 -0.914383
C28   C     C_3   0.551480 0.693542 0.387994 -0.993399
C29   C     C_3   0.390868 0.302239 0.508755 -0.919505
C30   C     C_3   0.948345 0.194017 0.611628 -0.988229
C31   C     C_3   0.110695 0.802101 0.495689 -0.914381
C32   C     C_3   0.051481 0.193544 0.387996 -0.993393
C33   C     C_3   0.890859 0.802235 0.508733 -0.919483
C34   C     C_3   0.738048 0.425097 0.810122 -0.945449
C35   C     C_3   0.274399 0.840664 0.953349 0.261460
C36   C     C_3   0.296884 0.633468 0.160223 -0.936689
C37   C     C_3   0.162567 0.445941 0.030346 -0.920377
C38   C     C_3   0.675963 0.577738 0.899825 -0.955200
C39   C     C_3   0.237812 0.925181 0.810000 -0.945516
C40   C     C_3   0.796632 0.133535 0.160038 -0.936656
C41   C     C_3   0.662392 0.945876 0.030128 -0.920859
C42   C     C_3   0.175810 0.077726 0.899803 -0.955254
C43   C     C_3   0.764529 0.208700 0.013663 0.265234
C44   C     C_3   0.730510 0.842973 0.048013 0.258372
C45   C     C_3   0.230842 0.205295 0.985564 0.265910
C46   C     C_R   0.724553 0.758484 0.642942 0.131511
C47   C     C_R   0.384745 0.153313 0.639536 0.129254
C48   C     C_R   0.275400 0.758388 0.356530 0.128715
C49   C     C_R   0.312876 0.101824 0.198606 -0.143709
C50   C     C_R   0.616271 0.153978 0.362301 0.129685
C51   C     C_R   0.224554 0.258484 0.642944 0.131509
C52   C     C_R   0.884743 0.653314 0.639532 0.129241
C53   C     C_R   0.775400 0.258384 0.356526 0.128718
C54   C     C_R   0.116268 0.653978 0.362296 0.129684
C55   C     C_R   0.397963 0.254601 0.746968 -0.239818
C56   C     C_R   0.749831 0.627451 0.632107 -0.251617
C57   C     C_R   0.602681 0.254866 0.254564 -0.238579
C58   C     C_R   0.250484 0.627592 0.368140 -0.242485
C59   C     C_R   0.897961 0.754599 0.746967 -0.239805
C60   C     C_R   0.333383 0.923715 0.183256 -0.138697
C61   C     C_R   0.249833 0.127452 0.632109 -0.251575
C62   C     C_R   0.102683 0.754872 0.254572 -0.238590
C63   C     C_R   0.750490 0.127589 0.368152 -0.242497
C64   C     C_R   0.425239 0.213118 0.718569 -0.160866
C65   C     C_R   0.710980 0.678293 0.631943 -0.172878
C66   C     C_R   0.575730 0.213698 0.283508 -0.165156
C67   C     C_R   0.289014 0.678212 0.367574 -0.184074
C68   C     C_R   0.925237 0.713117 0.718567 -0.160868
C69   C     C_R   0.210981 0.178294 0.631944 -0.172931
C70   C     C_R   0.075728 0.713701 0.283509 -0.165169
C71   C     C_R   0.686785 0.101516 0.802813 -0.152222
C72   C     C_R   0.789018 0.178207 0.367581 -0.184078
C73   C     C_R   0.331561 0.118178 0.621520 -0.275346
C74   C     C_R   0.792300 0.782127 0.697562 -0.285784
C75   C     C_R   0.669351 0.118790 0.379970 -0.278043
C76   C     C_R   0.207778 0.782035 0.302436 -0.283202
C77   C     C_R   0.831558 0.618178 0.621514 -0.275344
C78   C     C_R   0.292301 0.282128 0.697563 -0.285786
C79   C     C_R   0.169346 0.618789 0.379961 -0.278045
C80   C     C_R   0.707776 0.282029 0.302424 -0.283214
C81   C     C_R   0.307028 0.156310 0.656935 0.196081
C82   C     C_R   0.168297 0.422590 0.817196 -0.113834
C83   C     C_R   0.834281 0.730411 0.705669 0.194238
C84   C     C_R   0.693540 0.156606 0.343990 0.195278
C85   C     C_R   0.166131 0.730541 0.295160 0.195617
C86   C     C_R   0.807026 0.656309 0.656933 0.196086
C87   C     C_R   0.334282 0.230412 0.705671 0.194242
C88   C     C_R   0.193535 0.656608 0.343984 0.195272
C89   C     C_R   0.666131 0.230536 0.295156 0.195615
C90   C     C_R   0.360360 0.072354 0.493035 -0.165202
C91   C     C_R   0.675869 0.896230 0.599952 -0.204047
C92   C     C_R   0.640061 0.072581 0.507635 -0.166159
C93   C     C_R   0.812876 0.601826 0.198609 -0.143622
C94   C     C_R   0.324086 0.896155 0.399723 -0.204447
C95   C     C_R   0.860359 0.572353 0.493034 -0.165196
C96   C     C_R   0.175870 0.396229 0.599954 -0.204056
C97   C     C_R   0.140061 0.572582 0.507635 -0.166165
C98   C     C_R   0.824086 0.396153 0.399721 -0.204451
C99   C     C_R   0.405674 0.803476 0.491950 0.187788
C100  C     C_R   0.562573 0.171945 0.430517 0.172529
C101  C     C_R   0.594272 0.803460 0.507718 0.189158
C102  C     C_R   0.437929 0.171591 0.570528 0.177666
C103  C     C_R   0.905674 0.303476 0.491948 0.187786
C104  C     C_R   0.833376 0.423705 0.183254 -0.138661
C105  C     C_R   0.062573 0.671946 0.430518 0.172526
C106  C     C_R   0.094273 0.303460 0.507721 0.189162
C107  C     C_R   0.937927 0.671592 0.570525 0.177667
C108  C     C_R   0.603669 0.193248 0.714160 -0.143679
C109  C     C_R   0.414877 0.829666 0.271969 -0.149120
C110  C     C_R   0.396056 0.193313 0.286376 -0.153606
C111  C     C_R   0.586148 0.829330 0.728586 -0.166359
C112  C     C_R   0.103665 0.693242 0.714177 -0.143697
C113  C     C_R   0.914872 0.329657 0.271971 -0.149154
C114  C     C_R   0.896055 0.693316 0.286384 -0.153649
C115  C     C_R   0.186783 0.601510 0.802825 -0.152170
C116  C     C_R   0.086147 0.329331 0.728586 -0.166407
C117  C     C_R   0.643257 0.861821 0.830027 0.057498
C118  C     C_R   0.326084 0.176715 0.193753 0.051981
C119  C     C_R   0.358591 0.862751 0.170502 0.059053
C120  C     C_R   0.673279 0.176389 0.807702 0.063751
C121  C     C_R   0.143254 0.361824 0.830026 0.057495
C122  C     C_R   0.826083 0.676720 0.193764 0.051961
C123  C     C_R   0.858580 0.362734 0.170503 0.059077
C124  C     C_R   0.173273 0.676377 0.807731 0.063757
C125  C     C_R   0.393584 0.133425 0.570125 0.006120
C126  C     C_3   0.774475 0.340633 0.953386 0.261463
C127  C     C_R   0.666704 0.816634 0.582353 0.030047
C128  C     C_R   0.607198 0.133905 0.431272 0.005792
C129  C     C_R   0.333232 0.816586 0.417122 0.030422
C130  C     C_R   0.893583 0.633425 0.570123 0.006112
C131  C     C_R   0.166705 0.316634 0.582356 0.030048
C132  C     C_R   0.107198 0.633906 0.431272 0.005796
C133  C     C_R   0.833231 0.316584 0.417118 0.030440
C134  C     C_3   0.704890 0.309696 0.907033 -0.229408
C135  C     C_3   0.333718 0.739103 0.059004 -0.260545
C136  C     C_3   0.296875 0.305256 0.089846 -0.293268
H1    H     H_    0.716378 0.955385 0.881722 0.099853
H2    H     H_    0.231813 0.068221 0.604422 0.138144
H3    H     H_    0.252433 0.883142 0.782424 0.251629
H4    H     H_    0.769156 0.088439 0.025533 0.166659
H5    H     H_    0.787857 0.076663 0.177099 0.254452
H6    H     H_    0.776999 0.179478 0.175662 0.258773
H7    H     H_    0.854599 0.141328 0.217120 0.242379
H8    H     H_    0.770974 0.927032 0.165406 0.161494
H9    H     H_    0.667480 0.006138 0.057087 0.260684
H10   H     H_    0.643945 0.908156 0.055092 0.245550
H11   H     H_    0.622350 0.945673 0.938813 0.261616
H12   H     H_    0.283440 0.105731 0.007103 0.173219
H13   H     H_    0.076933 0.808012 0.207674 0.129000
H14   H     H_    0.185324 0.022144 0.881204 0.270732
H15   H     H_    0.125096 0.102499 0.820822 0.256184
H16   H     H_    0.171274 0.066045 0.955053 0.240047
H17   H     H_    0.808419 0.842239 0.719195 0.118509
H18   H     H_    0.304177 0.066771 0.570750 0.121998
H19   H     H_    0.191614 0.842097 0.280772 0.117969
H20   H     H_    0.696799 0.067495 0.430654 0.122006
H21   H     H_    0.308420 0.342240 0.719196 0.118509
H22   H     H_    0.804172 0.566773 0.570741 0.121999
H23   H     H_    0.691608 0.342089 0.280750 0.117970
H24   H     H_    0.768613 0.068457 0.395938 0.135722
H25   H     H_    0.196791 0.567493 0.430640 0.122006
H26   H     H_    0.666076 0.655366 0.610383 0.162627
H27   H     H_    0.475004 0.231809 0.752743 0.118539
H28   H     H_    0.333813 0.655239 0.388789 0.164534
H29   H     H_    0.526067 0.232454 0.249695 0.116106
H30   H     H_    0.166077 0.155366 0.610384 0.162622
H31   H     H_    0.975003 0.731807 0.752744 0.118526
H32   H     H_    0.833819 0.155235 0.388799 0.164548
H33   H     H_    0.026069 0.732460 0.249701 0.116118
H34   H     H_    0.423616 0.307875 0.793888 0.129701
H35   H     H_    0.731811 0.568220 0.604419 0.138148
H36   H     H_    0.576927 0.308003 0.207656 0.128996
H37   H     H_    0.268602 0.568459 0.395915 0.135726
H38   H     H_    0.323013 0.031152 0.472696 0.118111
H39   H     H_    0.726311 0.925339 0.664894 0.109019
H40   H     H_    0.677478 0.031430 0.527969 0.117998
H41   H     H_    0.261520 0.074915 0.147031 0.100164
H42   H     H_    0.273651 0.925169 0.334768 0.108938
H43   H     H_    0.823013 0.531151 0.472695 0.118109
H44   H     H_    0.226311 0.425339 0.664895 0.109021
H45   H     H_    0.177477 0.531431 0.527968 0.118000
H46   H     H_    0.773650 0.425168 0.334767 0.108937
H47   H     H_    0.580905 0.250481 0.684779 0.108312
H48   H     H_    0.437700 0.774659 0.286210 0.128552
H49   H     H_    0.419447 0.250340 0.315158 0.110301
H50   H     H_    0.562489 0.774965 0.714244 0.131515
H51   H     H_    0.080905 0.750477 0.684804 0.108320
H52   H     H_    0.285725 0.956936 0.118514 0.111010
H53   H     H_    0.937700 0.274653 0.286220 0.128529
H54   H     H_    0.919448 0.750341 0.315171 0.110308
H55   H     H_    0.062493 0.274962 0.714248 0.131547
H56   H     H_    0.652274 0.338687 0.844244 0.121428
H57   H     H_    0.386263 0.709960 0.121436 0.132493
H58   H     H_    0.350785 0.331414 0.149864 0.127050
H59   H     H_    0.610155 0.718373 0.884083 0.130369
H60   H     H_    0.152227 0.838601 0.844365 0.121408
H61   H     H_    0.886213 0.209863 0.121517 0.132496
H62   H     H_    0.850749 0.831504 0.149965 0.127076
H63   H     H_    0.738402 0.074736 0.855686 0.086089
H64   H     H_    0.110120 0.218452 0.884144 0.130380
H65   H     H_    0.483445 0.727162 0.545784 0.150930
H66   H     H_    0.479574 0.639753 0.641539 0.251437
H67   H     H_    0.396602 0.679469 0.577885 0.273720
H68   H     H_    0.475811 0.733501 0.682582 0.248643
H69   H     H_    0.509699 0.273989 0.338046 0.142230
H70   H     H_    0.593566 0.362883 0.485524 0.245241
H71   H     H_    0.643412 0.299756 0.481879 0.255583
H72   H     H_    0.643286 0.283562 0.581499 0.257505
H73   H     H_    0.516649 0.727141 0.454284 0.149750
H74   H     H_    0.216381 0.455380 0.881723 0.099850
H75   H     H_    0.520106 0.639377 0.357968 0.251424
H76   H     H_    0.603163 0.678767 0.421619 0.273920
H77   H     H_    0.524068 0.732848 0.317099 0.249490
H78   H     H_    0.491926 0.272817 0.665176 0.144131
H79   H     H_    0.408465 0.362965 0.520229 0.243640
H80   H     H_    0.358529 0.299653 0.523256 0.256426
H81   H     H_    0.357738 0.284483 0.422375 0.256080
H82   H     H_    0.983446 0.227161 0.545789 0.150927
H83   H     H_    0.979580 0.139761 0.641559 0.251431
H84   H     H_    0.896604 0.179475 0.577894 0.273718
H85   H     H_    0.761518 0.574918 0.147033 0.100114
H86   H     H_    0.975811 0.233515 0.682587 0.248636
H87   H     H_    0.009691 0.773985 0.338048 0.142239
H88   H     H_    0.093565 0.862889 0.485498 0.245242
H89   H     H_    0.143402 0.799751 0.481841 0.255582
H90   H     H_    0.143294 0.783572 0.581487 0.257502
H91   H     H_    0.016652 0.227140 0.454290 0.149743
H92   H     H_    0.020107 0.139378 0.357970 0.251427
H93   H     H_    0.103163 0.178769 0.421619 0.273920
H94   H     H_    0.024068 0.232850 0.317101 0.249498
H95   H     H_    0.991913 0.772824 0.665165 0.144120
H96   H     H_    0.785718 0.456928 0.118512 0.110977
H97   H     H_    0.908453 0.862967 0.520224 0.243630
H98   H     H_    0.858504 0.799632 0.523205 0.256426
H99   H     H_    0.857746 0.784487 0.422356 0.256074
H100  H     H_    0.226513 0.797571 0.061309 0.128239
H101  H     H_    0.810204 0.250340 0.901578 0.132318
H102  H     H_    0.768878 0.784122 0.930471 0.136405
H103  H     H_    0.194662 0.262475 0.107090 0.130010
H104  H     H_    0.726412 0.297684 0.061123 0.128223
H105  H     H_    0.310101 0.750462 0.901418 0.132327
H106  H     H_    0.268796 0.283994 0.930320 0.136404
H107  H     H_    0.238401 0.574734 0.855694 0.086057
H108  H     H_    0.694579 0.762360 0.106970 0.130027
H109  H     H_    0.835226 0.428687 0.976743 0.168197
H110  H     H_    0.745163 0.484775 0.796510 0.260227
H111  H     H_    0.681200 0.417398 0.759921 0.255699
H112  H     H_    0.752663 0.382971 0.782608 0.251624
H113  H     H_    0.269294 0.588410 0.025608 0.166633
H114  H     H_    0.288120 0.576598 0.177318 0.254391
H115  H     H_    0.277318 0.679428 0.175949 0.258751
H116  H     H_    0.354846 0.641232 0.217210 0.242381
H117  H     H_    0.271193 0.427138 0.165411 0.161424
H118  H     H_    0.923616 0.807873 0.793889 0.129700
H119  H     H_    0.167690 0.506266 0.057192 0.260678
H120  H     H_    0.144258 0.408317 0.055628 0.245430
H121  H     H_    0.122389 0.445592 0.938979 0.261496
H122  H     H_    0.783580 0.605833 0.007205 0.173232
H123  H     H_    0.685501 0.522208 0.881170 0.270740
H124  H     H_    0.625243 0.602522 0.820872 0.256174
H125  H     H_    0.671431 0.565953 0.955064 0.240021
H126  H     H_    0.335049 0.928797 0.976582 0.168185
H127  H     H_    0.244831 0.984893 0.796354 0.260266
H128  H     H_    0.180987 0.917379 0.759870 0.255699
N1    N     N_R   0.625380 0.928280 0.709340 -0.039348
N2    N     N_R   0.613900 0.929750 0.547530 -0.045907
N3    N     N_R   0.613900 0.070250 0.547530 -0.047589
N4    N     N_R   0.386100 0.929750 0.452470 -0.045673
N5    N     N_R   0.886100 0.570250 0.452470 -0.047350
N6    N     N_R   0.113900 0.429750 0.547530 -0.045908
N7    N     N_R   0.113900 0.570250 0.547530 -0.047591
N8    N     N_R   0.886100 0.429750 0.452470 -0.045675
N9    N     N_R   0.437800 0.869550 0.507970 -0.072613
N10   N     N_R   0.562200 0.130450 0.492030 -0.057271
N11   N     N_R   0.562200 0.869550 0.492030 -0.073334
N12   N     N_R   0.374620 0.071720 0.290660 -0.037431
N13   N     N_R   0.437800 0.130450 0.507970 -0.057265
N14   N     N_R   0.937800 0.369550 0.507970 -0.072610
N15   N     N_R   0.062200 0.630450 0.492030 -0.057272
N16   N     N_R   0.062200 0.369550 0.492030 -0.073333
N17   N     N_R   0.937800 0.630450 0.507970 -0.057261
N18   N     N_R   0.573690 0.128980 0.653840 -0.043714
N19   N     N_R   0.426310 0.871020 0.346160 -0.051144
N20   N     N_R   0.426310 0.128980 0.346160 -0.043505
N21   N     N_R   0.573690 0.871020 0.653840 -0.050092
N22   N     N_R   0.073690 0.628980 0.653840 -0.043713
N23   N     N_R   0.374620 0.928280 0.290660 -0.037459
N24   N     N_R   0.926310 0.371020 0.346160 -0.051136
N25   N     N_R   0.926310 0.628980 0.346160 -0.043506
N26   N     N_R   0.073690 0.371020 0.653840 -0.050092
N27   N     N_2   0.439207 0.729876 0.528624 -0.125629
N28   N     N_2   0.548779 0.252939 0.417235 -0.117753
N29   N     N_2   0.560770 0.729808 0.471144 -0.125131
N30   N     N_2   0.452408 0.252468 0.585515 -0.117540
N31   N     N_2   0.939209 0.229876 0.528630 -0.125633
N32   N     N_2   0.048779 0.752939 0.417237 -0.117751
N33   N     N_2   0.060772 0.229808 0.471148 -0.125132
N34   N     N_R   0.625380 0.071720 0.709340 -0.034422
N35   N     N_2   0.952401 0.752470 0.585505 -0.117538
N36   N     N_2   0.782770 0.414440 0.926006 -0.117943
N37   N     N_2   0.258790 0.635883 0.046626 -0.104535
N38   N     N_2   0.230633 0.419606 0.080941 -0.119368
N39   N     N_2   0.733805 0.630754 0.951598 -0.108178
N40   N     N_2   0.282611 0.914504 0.925914 -0.117947
N41   N     N_2   0.758630 0.135933 0.046492 -0.104526
N42   N     N_2   0.730508 0.919558 0.080921 -0.119355
N43   N     N_2   0.233678 0.130689 0.951530 -0.108172
N44   N     N_R   0.125380 0.428280 0.709340 -0.039362
N45   N     N_R   0.874620 0.571720 0.290660 -0.037438
N46   N     N_R   0.874620 0.428280 0.290660 -0.037461
N47   N     N_R   0.125380 0.571720 0.709340 -0.034426
N48   N     N_R   0.386100 0.070250 0.452470 -0.047349
Ni1   Ni    Ni4+2 0.616560 1.000000 0.627280 0.204086
Ni2   Ni    Ni4+2 0.383440 1.000000 0.372720 0.202448
Ni3   Ni    Ni4+2 0.116560 0.500000 0.627280 0.204085
Ni4   Ni    Ni4+2 0.883440 0.500000 0.372720 0.202446
Ni5   Ni    Ni4+2 0.497990 0.870580 0.500000 0.190077
Ni6   Ni    Ni4+2 0.502010 0.129420 0.500000 0.228083
Ni7   Ni    Ni4+2 0.997990 0.370580 0.500000 0.190076
Ni8   Ni    Ni4+2 0.002010 0.629420 0.500000 0.228083

loop_
_geom_bond_atom_site_label_1
_geom_bond_atom_site_label_2
_ccdc_geom_bond_type
C110  H49   S    
C114  H54   S    
C108  C120  A    
C74   C83   A    
C102  C125  A    
C110  C118  A    
C20   C118  S    
C30   H86   S    
C104  C123  A    
N46   Ni4   S    
C31   N32   S    
H126  N40   S    
C63   H24   S    
N23   Ni2   S    
C37   H121  S    
C112  C124  A    
C6    C25   S    
C62   C70   A    
C94   H42   S    
C69   H30   S    
C67   H28   S    
H113  N37   S    
C34   H110  S    
C36   H114  S    
C3    C19   S    
C27   N28   S    
C16   C44   S    
C20   C45   S    
N4    Ni2   S    
N7    N15   A    
C5    C43   S    
C15   H106  S    
H65   N27   S    
C6    C44   S    
N5    N17   A    
C79   H25   S    
N34   Ni1   S    
C73   C81   A    
C90   N48   A    
C30   N31   S    
C49   H41   S    
C32   H94   S    
C11   C20   S    
C116  C121  A    
C99   C129  A    
C53   C133  S    
C46   C65   A    
C102  N30   S    
C47   C64   A    
C59   C68   A    
C51   C131  S    
C80   H23   S    
C3    H59   S    
C58   C88   A    
C21   C123  S    
C115  N47   A    
C56   C86   A    
C54   C70   A    
N2    N11   A    
C53   C80   A    
C96   H44   S    
C91   C127  A    
C109  H48   S    
C56   H35   S    
C48   C129  S    
C45   N43   S    
C52   C77   A    
C113  H53   S    
C19   C44   S    
C30   H84   S    
C54   C79   A    
C16   C25   S    
C4    H60   S    
N8    N14   A    
N24   Ni7   S    
C38   H124  S    
C54   C132  S    
C90   H38   S    
C76   H19   S    
N26   N44   A    
C8    C17   S    
C63   C84   A    
C26   H67   S    
C51   C78   A    
C100  N28   S    
C2    C22   S    
C101  N29   S    
C11   C13   S    
C116  N26   A    
C36   H116  S    
C48   C67   A    
C33   N35   S    
C58   C67   A    
C12   H104  S    
C83   C86   A    
C5    C21   S    
C126  C134  S    
C43   N41   S    
C51   C69   A    
C21   C126  S    
N3    Ni1   S    
C76   C85   A    
C78   C87   A    
N47   Ni3   S    
C48   C76   A    
C105  N32   S    
C57   C66   A    
C36   N37   S    
N5    Ni4   S    
C28   H75   S    
C136  H58   S    
N6    Ni3   S    
C70   H33   S    
C109  N19   A    
C61   H2    S    
C29   H79   S    
C110  N20   A    
C14   C135  S    
C44   N42   S    
C41   N42   S    
C80   C89   A    
C13   C23   S    
C60   C119  A    
N19   Ni5   S    
C24   N39   S    
C41   H10   S    
C17   C135  S    
C95   C130  A    
C104  N46   A    
C55   H34   S    
N1    N21   A    
C12   C134  S    
C40   H5    S    
C72   H32   S    
C3    C24   S    
H12   N43   S    
N25   N45   A    
C46   C127  S    
N2    Ni1   S    
C5    H61   S    
C15   C136  S    
N12   N20   A    
C10   C24   S    
C37   N38   S    
C100  N10   A    
C39   N40   S    
C5    C9    S    
N44   Ni3   S    
C4    C22   S    
C37   H120  S    
C34   N36   S    
C1    C117  A    
C20   C136  S    
C42   H15   S    
N13   Ni6   S    
C96   C131  A    
C16   H108  S    
N15   Ni8   S    
C9    H101  S    
C13   N38   S    
C102  N13   A    
C1    H1    S    
C85   C88   A    
C82   N44   A    
C28   H77   S    
C111  H50   S    
C66   H29   S    
C100  C128  A    
C103  N31   S    
C2    C135  S    
C111  C117  A    
C14   C22   S    
N18   Ni6   S    
C107  N35   S    
H109  N36   S    
N25   Ni8   S    
C7    C23   S    
N26   Ni7   S    
C101  C127  A    
C18   C134  S    
N1    Ni1   S    
C55   C87   A    
C4    C35   S    
C31   H88   S    
C9    C18   S    
C60   H52   S    
C31   H90   S    
C34   H111  S    
C103  N14   A    
C3    C16   S    
C82   H74   S    
C112  H51   S    
C33   H97   S    
C23   C121  S    
C92   H40   S    
C98   C133  A    
C38   N39   S    
C57   C89   A    
C59   C83   A    
C40   H6    S    
C39   H128  S    
C64   H27   S    
C27   H72   S    
N6    N16   A    
C7    H64   S    
N9    Ni5   S    
N14   Ni7   S    
C32   H92   S    
C73   H18   S    
C33   H99   S    
C77   H22   S    
C57   H36   S    
C42   N43   S    
C107  C130  A    
H117  N38   S    
C79   C88   A    
H8    N42   S    
C47   C125  S    
C105  C132  A    
C39   H3    S    
C106  C131  A    
N21   Ni5   S    
N19   N23   A    
C26   N27   S    
C93   C122  A    
C47   C73   A    
C38   H125  S    
C97   N7    A    
C98   N8    A    
C93   N45   A    
C98   H46   S    
C26   H68   S    
C113  C123  A    
C10   C19   S    
H87   N32   S    
C22   C124  S    
C81   C87   A    
C8    H100  S    
C116  H55   S    
N16   Ni7   S    
C58   H37   S    
C50   C128  S    
N12   Ni2   S    
C109  C119  A    
C32   H93   S    
C115  C124  A    
C108  H47   S    
C2    C8    S    
C97   C132  A    
C6    C10   S    
C71   H63   S    
H122  N39   S    
C28   H76   S    
C94   N4    A    
C60   N23   A    
C27   H70   S    
C50   C75   A    
N11   Ni5   S    
C90   C125  A    
N48   Ni2   S    
C2    N37   S    
C75   C84   A    
C106  N33   S    
C17   C119  S    
C41   H9    S    
C63   C72   A    
C19   C117  S    
C61   C81   A    
C17   C35   S    
C53   C72   A    
C11   H103  S    
C30   H83   S    
N3    N10   A    
C62   H13   S    
N22   Ni8   S    
C4    C8    S    
C38   H123  S    
C99   N9    A    
C7    C11   S    
C71   C120  A    
C7    C45   S    
C26   H66   S    
C12   C43   S    
C113  N24   A    
C104  H96   S    
C126  N36   S    
C96   N6    A    
C56   C65   A    
C36   H115  S    
N8    Ni4   S    
C134  H56   S    
C92   N3    A    
C75   H20   S    
C49   N12   A    
C37   H119  S    
H78   N30   S    
C65   H26   S    
H91   N33   S    
C91   N2    A    
C42   H16   S    
C25   C122  S    
C82   C121  A    
C52   C68   A    
C29   H81   S    
H4    N41   S    
C59   H118  S    
C107  N17   A    
C112  N22   A    
C28   N29   S    
C99   N27   S    
C92   C128  A    
N24   N46   A    
N45   Ni4   S    
C95   N5    A    
C62   C85   A    
C94   C129  A    
C24   C25   S    
C14   C35   S    
C6    H62   S    
N10   Ni6   S    
C29   H80   S    
C12   C21   S    
C74   H17   S    
N17   Ni8   S    
N4    N9    A    
H82   N31   S    
C135  H57   S    
C14   H105  S    
C78   H21   S    
C49   C118  A    
C41   H11   S    
C55   C64   A    
C111  N21   A    
C91   H39   S    
C50   C66   A    
C115  H107  S    
C95   H43   S    
C77   C86   A    
C10   H102  S    
C31   H89   S    
C34   H112  S    
C105  N15   A    
C13   C136  S    
C40   H7    S    
C106  N16   A    
C84   C89   A    
C15   C45   S    
C40   N41   S    
C18   C120  S    
C46   C74   A    
C108  N18   A    
N18   N34   A    
C61   C69   A    
C114  N25   A    
N7    Ni3   S    
C29   N30   S    
N13   N48   A    
C32   N33   S    
C97   H45   S    
N22   N47   A    
C9    C126  S    
C52   C130  S    
H69   N28   S    
C103  C133  A    
C71   N34   A    
C39   H127  S    
H95   N35   S    
C35   N40   S    
C15   C23   S    
C27   H71   S    
C42   H14   S    
C114  C122  A    
C68   H31   S    
C1    N1    A    
C18   C43   S    
H73   N29   S    
C101  N11   A    
C93   H85   S    
C33   H98   S    
N20   Ni6   S    
