data_mof_unit_19101.cif
_audit_creation_date              2012-12-11T16:05:02-0500
_audit_creation_method            fapswitch 2.2
_symmetry_space_group_name_H-M    P1
_symmetry_Int_Tables_number       1
_space_group_crystal_system       triclinic
_cell_length_a                    10.600623
_cell_length_b                    10.667258
_cell_length_c                    16.884342
_cell_angle_alpha                 98.712342
_cell_angle_beta                  98.941038
_cell_angle_gamma                 61.16722
_cell_volume                      1645.78711082

loop_
_atom_site_label
_atom_site_type_symbol
_atom_type_description
_atom_site_fract_x
_atom_site_fract_y
_atom_site_fract_z
_atom_type_partial_charge
C1    C     C_R   0.352294 0.779589 0.400161 0.553793
C2    C     C_3   0.734165 0.297870 0.250050 -0.118358
C3    C     C_3   0.812759 0.350584 0.320373 0.058719
C4    C     C_3   0.959123 0.251444 0.289594 -0.151695
C5    C     C_3   0.938211 0.373779 0.242052 -0.113644
C6    C     C_3   0.790620 0.473739 0.273839 -0.106934
C7    C     C_3   0.713386 0.420284 0.202407 -0.147218
C8    C     C_3   0.859539 0.321551 0.171626 0.062212
C9    C     C_3   0.470844 0.776783 0.222312 -0.134479
C10   C     C_3   0.405392 0.695292 0.255488 -0.112565
C11   C     C_3   0.341909 0.820210 0.320760 0.053952
C12   C     C_R   0.396089 0.366053 0.354773 0.541200
C13   C     C_3   0.408570 0.900298 0.289450 -0.124079
C14   C     C_3   0.266560 0.974505 0.234851 -0.111714
C15   C     C_3   0.200940 0.893160 0.267500 -0.122627
C16   C     C_3   0.263560 0.769125 0.201534 -0.112138
C17   C     C_3   0.329035 0.849542 0.169484 0.056996
C18   C     C_3   0.421523 0.280673 0.777767 -0.107242
C19   C     C_3   0.323656 0.415889 0.733063 -0.152501
C20   C     C_3   0.323584 0.318938 0.655770 0.062677
C21   C     C_3   0.418130 0.185275 0.701140 0.292675
C22   C     C_3   0.282255 0.183353 0.720231 -0.137525
C23   C     C_R   0.775793 0.377250 0.401556 0.550377
C24   C     C_3   0.185814 0.320178 0.674625 -0.159260
C25   C     C_3   0.186154 0.416514 0.753491 -0.116754
C26   C     C_3   0.284563 0.280483 0.797175 0.006292
C27   C     C_1   0.767716 0.368423 0.715481 -0.042917
C28   C     C_1   0.812427 0.330676 0.782273 -0.044657
C29   C     C_1   0.358412 0.764850 0.714554 -0.075587
C30   C     C_1   0.326897 0.811246 0.782151 -0.066049
C31   C     C_R   0.895381 0.309222 0.091649 0.543902
C32   C     C_R   0.296445 0.267858 0.124545 0.553063
C33   C     C_R   0.297473 0.887135 0.087511 0.540343
C34   C     C_R   0.380084 0.715535 0.631803 0.539173
C35   C     C_R   0.878461 0.302588 0.862260 0.538754
C36   C     C_R   0.276346 0.252321 0.877283 0.567547
C37   C     C_R   0.282704 0.880026 0.859758 0.543728
C38   C     C_R   0.365606 0.344181 0.584152 0.553801
C39   C     C_R   0.718083 0.410764 0.635443 0.534108
C40   C     C_1   0.351551 0.339391 0.274220 -0.063624
C41   C     C_1   0.322265 0.309704 0.205678 -0.064071
C42   C     C_3   0.882075 0.197795 0.217554 -0.115904
Cr1   Cr    Cr6+3 0.608340 0.611040 0.520430 1.002720
Cr2   Cr    Cr6+3 0.287650 0.601120 0.489350 1.018214
Cr3   Cr    Cr6+3 0.604040 0.287870 0.490280 1.036949
Cr4   Cr    Cr6+3 0.054020 0.052700 0.970850 1.013950
Cr5   Cr    Cr6+3 0.059230 0.375120 0.993390 1.016155
Cr6   Cr    Cr6+3 0.374950 0.061200 0.992340 1.008465
H1    H     H_    0.650875 0.265875 0.255523 0.130194
H2    H     H_    0.213219 0.088877 0.222227 0.106136
H3    H     H_    0.092636 0.938237 0.289258 0.119802
H4    H     H_    0.206460 0.713474 0.164060 0.132530
H5    H     H_    0.340140 0.511818 0.737131 0.112379
H6    H     H_    0.517944 0.265461 0.820278 0.125773
H7    H     H_    0.265123 0.087887 0.716897 0.115203
H8    H     H_    0.090391 0.337307 0.630897 0.146636
H9    H     H_    0.090132 0.511661 0.777125 0.142077
H10   H     H_    0.916940 0.085938 0.190508 0.132836
H11   H     H_    0.021803 0.405543 0.236735 0.126906
H12   H     H_    0.755728 0.586415 0.299415 0.135333
H13   H     H_    0.617035 0.483232 0.161575 0.112696
H14   H     H_    0.458513 0.580887 0.268068 0.108079
O1    O     O_R   0.751220 0.499230 0.435170 -0.518851
O2    O     O_R   0.297880 0.469080 0.560050 -0.524458
O3    O     O_R   0.489720 0.254590 0.564810 -0.462492
O4    O     O_R   0.725220 0.304230 0.585080 -0.478497
O5    O     O_3   0.500010 0.500010 0.500020 -0.302041
O6    O     O_R   0.171830 0.913880 0.057510 -0.517900
O7    O     O_R   0.940690 0.186050 0.054730 -0.505063
O8    O     O_R   0.920470 0.405720 0.075010 -0.526415
O9    O     O_R   0.196690 0.370460 0.084120 -0.491851
O10   O     O_R   0.412990 0.180750 0.091610 -0.498504
O11   O     O_R   0.366620 0.943130 0.065760 -0.512513
O12   O     O_R   0.477220 0.727600 0.436870 -0.494819
O13   O     O_R   0.160510 0.906330 0.879210 -0.500178
O14   O     O_R   0.930190 0.179050 0.889450 -0.492397
O15   O     O_R   0.909140 0.398170 0.896710 -0.520241
O16   O     O_R   0.186190 0.363460 0.918830 -0.487785
O17   O     O_R   0.401670 0.173200 0.913310 -0.522032
O18   O     O_R   0.356120 0.936130 0.900470 -0.519979
O19   O     O_3   0.162740 0.163010 0.985530 -0.288440
O20   O     O_R   0.258650 0.745120 0.411470 -0.515597
O21   O     O_R   0.297070 0.467240 0.395960 -0.491488
O22   O     O_R   0.488830 0.252610 0.387790 -0.515991
O23   O     O_R   0.724400 0.302390 0.420980 -0.510062
O24   O     O_R   0.752100 0.501210 0.612190 -0.529472
O25   O     O_R   0.478040 0.729440 0.600970 -0.501793
O26   O     O_R   0.259530 0.747110 0.588490 -0.492912
O27   O     O_3   0.539754 0.065448 0.669722 -0.530435
C43   C     C_3   0.605951 0.960269 0.725389 -0.000193
H15   H     H_    0.531304 0.919472 0.735096 0.145030
H16   H     H_    0.640089 0.003653 0.784104 0.132652
C44   C     C_3   0.740275 0.834678 0.692345 -0.335237
H17   H     H_    0.819940 0.870873 0.685532 0.157102
H18   H     H_    0.790520 0.748731 0.734262 0.102839
H19   H     H_    0.711004 0.790414 0.632736 0.191506
H20   H     H_    0.055711 0.188026 0.330163 0.111564
H21   H     H_    0.578556 0.732368 0.199944 0.114821
H22   H     H_    0.465589 0.955376 0.327586 0.137316

loop_
_geom_bond_atom_site_label_1
_geom_bond_atom_site_label_2
_ccdc_geom_bond_type
C13   H22   S    
C9    H21   S    
C18   C21   S    
C3    C23   S    
C2    C7    S    
C1    C11   S    
C3    C6    S    
C42   H10   S    
Cr4   O14   S    
Cr1   O1    S    
C7    C8    S    
C32   O10   A    
C21   O27   S    
Cr2   O2    S    
C44   H17   S    
C25   H9    S    
C1    O12   A    
Cr6   O17   S    
C8    C42   S    
Cr2   O20   S    
C5    C6    S    
C15   C16   S    
C26   C36   S    
Cr6   O19   S    
C12   O22   A    
C18   C19   S    
C9    C13   S    
C7    H13   S    
Cr4   O7    S    
C11   C15   S    
C31   O8    A    
C19   C20   S    
C28   C35   S    
C27   C39   S    
C16   C17   S    
C18   C26   S    
Cr3   O5    S    
C32   C41   S    
C15   H3    S    
C9    C10   S    
Cr2   O21   S    
Cr1   O12   S    
C23   O1    A    
C37   O13   A    
C44   H18   S    
C13   C14   S    
C8    C31   S    
C14   C17   S    
C10   H14   S    
C17   C33   S    
Cr6   O10   S    
Cr4   O13   S    
C32   O9    A    
C38   O2    A    
C37   O18   A    
C35   O14   A    
C5    H11   S    
C6    H12   S    
C24   C25   S    
C1    O20   A    
C29   C34   S    
C35   O15   A    
C12   O21   A    
C12   C40   S    
Cr3   O23   S    
Cr5   O8    S    
Cr4   O6    S    
C29   C30   T    
C2    H1    S    
C4    H20   S    
Cr4   O19   S    
C20   C38   S    
C43   H16   S    
C38   O3    A    
C34   O26   A    
Cr5   O9    S    
C6    C7    S    
C33   O11   A    
C40   C41   T    
C44   H19   S    
Cr3   O3    S    
C39   O4    A    
C22   C24   S    
Cr3   O22   S    
Cr5   O15   S    
C3    C4    S    
Cr3   O4    S    
C43   C44   S    
C9    C17   S    
Cr1   O24   S    
Cr6   O11   S    
C16   H4    S    
C4    C5    S    
C36   O17   A    
C5    C8    S    
C22   H7    S    
C24   H8    S    
C39   O24   A    
Cr1   O25   S    
Cr6   O18   S    
C2    C3    S    
C25   C26   S    
C23   O23   A    
C36   O16   A    
C11   C13   S    
C19   H5    S    
C43   H15   S    
C14   H2    S    
C4    C42   S    
C2    C42   S    
Cr2   O26   S    
C34   O25   A    
Cr5   O19   S    
C19   C25   S    
C10   C11   S    
C18   H6    S    
C31   O7    A    
C20   C21   S    
C30   C37   S    
Cr1   O5    S    
C22   C26   S    
C27   C28   T    
C14   C15   S    
Cr2   O5    S    
C10   C16   S    
Cr5   O16   S    
O27   C43   S    
C21   C22   S    
C20   C24   S    
C33   O6    A    
