data_mof_unit_31529.cif
_audit_creation_date              2012-12-11T14:03:25-0500
_audit_creation_method            fapswitch 2.2
_symmetry_space_group_name_H-M    P1
_symmetry_Int_Tables_number       1
_space_group_crystal_system       monoclinic
_cell_length_a                    6.991879
_cell_length_b                    11.385075
_cell_length_c                    18.963573
_cell_angle_alpha                 90.0
_cell_angle_beta                  92.917649
_cell_angle_gamma                 90.0
_cell_volume                      1507.60176612

loop_
_atom_site_label
_atom_site_type_symbol
_atom_type_description
_atom_site_fract_x
_atom_site_fract_y
_atom_site_fract_z
_atom_type_partial_charge
O1    O     O_R   0.330540 0.606360 0.598870 -0.543537
O2    O     O_R   0.669460 0.106360 0.401130 -0.543537
O3    O     O_R   0.026770 0.620470 0.750430 -0.538428
O4    O     O_R   0.973230 0.120470 0.249570 -0.538428
O5    O     O_R   0.856460 0.393640 0.750930 -0.551428
O6    O     O_R   0.143540 0.893640 0.249070 -0.551428
C1    C     C_R   0.199125 0.640901 0.777148 0.668910
C2    C     C_R   0.800875 0.140901 0.222852 0.668911
O7    O     O_R   0.000920 0.620350 0.599420 -0.523573
O8    O     O_R   0.999080 0.120350 0.400580 -0.523573
O9    O     O_R   0.830430 0.393520 0.598850 -0.520109
O10   O     O_R   0.169570 0.893520 0.401150 -0.520109
C3    C     C_R   0.167050 0.650139 0.576124 0.771945
C4    C     C_R   0.832950 0.150140 0.423876 0.771944
O11   O     O_R   0.356570 0.606480 0.750960 -0.539053
O12   O     O_R   0.643430 0.106480 0.249040 -0.539054
O13   O     O_3   0.176990 0.425580 0.674890 -0.372066
O14   O     O_3   0.823010 0.925580 0.325110 -0.372066
V1    V     V_3+5 0.902170 0.513810 0.674910 1.498379
V2    V     V_3+5 0.097830 0.013810 0.325090 1.498379
O15   O     O_R   0.500800 0.379530 0.599380 -0.535574
O16   O     O_R   0.499200 0.879530 0.400620 -0.535574
C5    C     C_R   0.667387 0.353592 0.573900 0.800920
C6    C     C_R   0.332613 0.853592 0.426100 0.800921
O17   O     O_R   0.526650 0.379650 0.750390 -0.554049
O18   O     O_R   0.473350 0.879650 0.249610 -0.554049
C7    C     C_R   0.698385 0.354980 0.775092 0.729899
C8    C     C_R   0.301615 0.854980 0.224908 0.729899
V3    V     V_3+5 0.402160 0.486190 0.674900 1.466028
V4    V     V_3+5 0.597840 0.986190 0.325100 1.466028
O19   O     O_3   0.677210 0.574420 0.674910 -0.366438
O20   O     O_3   0.322790 0.074420 0.325090 -0.366438
C9    C     C_R   0.763033 0.077595 0.874642 -0.168119
C10   C     C_R   0.236966 0.577595 0.125358 -0.168120
H1    H     H_    0.738741 0.126047 0.766215 0.124998
H2    H     H_    0.261258 0.626047 0.233785 0.124999
H3    H     H_    0.806782 0.940926 0.979140 0.129375
H4    H     H_    0.193218 0.440926 0.020860 0.129375
H5    H     H_    0.785895 0.986124 0.861469 0.139135
H6    H     H_    0.214105 0.486124 0.138531 0.139136
C11   C     C_R   0.715082 0.275426 0.834932 -0.053303
C12   C     C_R   0.284918 0.775426 0.165068 -0.053304
C13   C     C_R   0.735056 0.333877 0.177972 -0.155276
C14   C     C_R   0.264944 0.833877 0.822028 -0.155276
C15   C     C_R   0.659054 0.408261 0.126667 -0.138186
C16   C     C_R   0.340946 0.908261 0.873333 -0.138186
C17   C     C_R   0.639705 0.370784 0.057330 -0.120912
C18   C     C_R   0.360295 0.870784 0.942670 -0.120911
C19   C     C_R   0.712737 0.262199 0.035633 0.063191
C20   C     C_R   0.287263 0.762200 0.964367 0.063191
C21   C     C_R   0.759116 0.176448 0.089562 0.052099
C22   C     C_R   0.240884 0.676448 0.910438 0.052099
C23   C     C_R   0.724343 0.233620 0.962373 0.023078
C24   C     C_R   0.275657 0.733620 0.037626 0.023078
C25   C     C_R   0.757745 0.114433 0.944909 0.097588
C26   C     C_R   0.242255 0.614433 0.055091 0.097588
C27   C     C_R   0.783896 0.029655 0.996848 -0.155637
C28   C     C_R   0.216104 0.529655 0.003151 -0.155637
C29   C     C_R   0.778644 0.055513 0.068848 0.079415
C30   C     C_R   0.221356 0.555513 0.931152 0.079415
C31   C     C_R   0.713624 0.317257 0.905158 0.037603
C32   C     C_R   0.286376 0.817257 0.094842 0.037603
C33   C     C_R   0.736544 0.156837 0.820261 -0.243448
C34   C     C_R   0.263456 0.656837 0.179738 -0.243447
C35   C     C_R   0.775831 0.217239 0.161541 -0.050344
C36   C     C_R   0.224169 0.717239 0.838459 -0.050344
H7    H     H_    0.744372 0.364237 0.232263 0.111457
H8    H     H_    0.255628 0.864236 0.767737 0.111457
H9    H     H_    0.554646 0.424953 0.022291 0.155781
H10   H     H_    0.445354 0.924953 0.977709 0.155781
H11   H     H_    0.607448 0.493823 0.141276 0.138877
H12   H     H_    0.392551 0.993823 0.858724 0.138877
C37   C     C_2   0.831774 0.244444 0.477880 -0.024326
C38   C     C_2   0.168226 0.744444 0.522119 -0.024327
C39   C     C_2   0.674800 0.265482 0.516106 -0.354287
C40   C     C_2   0.325200 0.765482 0.483894 -0.354287
H13   H     H_    0.546698 0.212927 0.505886 0.151831
H14   H     H_    0.453302 0.712927 0.494114 0.151831
I1    I     I_    0.734427 0.507176 0.914995 -0.526961
I2    I     I_    0.265573 0.007176 0.085005 -0.526960
C41   C     C_3   0.783357 0.952672 0.121223 -0.336319
C42   C     C_3   0.787516 0.827227 0.090298 -0.321004
C43   C     C_3   0.792105 0.732887 0.147475 -0.699840
H15   H     H_    0.898250 0.753851 0.190796 0.241361
H16   H     H_    0.651135 0.724036 0.170373 0.227930
H17   H     H_    0.830398 0.647423 0.123950 0.227140
H18   H     H_    0.660551 0.811780 0.054255 0.206673
H19   H     H_    0.916321 0.815842 0.059623 0.222950
H20   H     H_    0.911132 0.961527 0.157042 0.208196
H21   H     H_    0.654342 0.958325 0.152007 0.209828
C44   C     C_3   0.216643 0.452672 0.878777 -0.336319
C45   C     C_3   0.212484 0.327227 0.909702 -0.321003
C46   C     C_3   0.207895 0.232887 0.852525 -0.699842
H22   H     H_    0.101751 0.253850 0.809204 0.241361
H23   H     H_    0.348865 0.224036 0.829627 0.227930
H24   H     H_    0.169602 0.147423 0.876050 0.227140
H25   H     H_    0.339449 0.311780 0.945745 0.206673
H26   H     H_    0.083679 0.315842 0.940377 0.222950
H27   H     H_    0.088868 0.461527 0.842958 0.208196
H28   H     H_    0.345659 0.458325 0.847993 0.209828
I3    I     I_    0.087322 0.349261 0.483365 -0.392369
I4    I     I_    0.912678 0.849261 0.516635 -0.392368

loop_
_geom_bond_atom_site_label_1
_geom_bond_atom_site_label_2
_ccdc_geom_bond_type
C9    C25   A    
C10   C26   A    
C46   H22   S    
C15   H11   S    
O13   V3    S    
C14   C36   A    
C11   C31   A    
O4    C2    A    
V1    O19   S    
C41   C42   S    
C45   H26   S    
C17   C19   A    
O9    V1    S    
C20   C24   A    
C38   C40   D    
C10   H6    S    
C32   I2    S    
C40   H14   S    
O3    C1    A    
C19   C23   A    
C27   C29   A    
O12   V4    S    
C42   H18   S    
C21   C35   A    
C15   C17   A    
C8    C12   S    
O7    C3    A    
C17   H9    S    
C22   C30   A    
O5    C7    A    
C23   C31   A    
O7    V1    S    
O6    C8    A    
O8    V2    S    
C19   C21   A    
C20   C22   A    
O3    V1    S    
O14   V4    S    
C44   H28   S    
C12   C32   A    
C16   H12   S    
C9    C33   A    
C38   I4    S    
C41   H20   S    
C37   I3    S    
C2    C35   S    
C2    O12   A    
H4    C28   S    
C37   C39   D    
C10   C34   A    
C14   C16   A    
C45   H25   S    
O11   V3    S    
C16   C18   A    
C23   C25   A    
O17   V3    S    
C24   C26   A    
C4    C37   S    
O8    C4    A    
C5    C39   S    
C44   C45   S    
C6    C40   S    
C1    O11   A    
C24   C32   A    
O15   V3    S    
C39   H13   S    
C7    C11   S    
C43   H15   S    
C13   C35   A    
O10   V2    S    
O1    V3    S    
C9    H5    S    
C18   C20   A    
C13   C15   A    
C41   H21   S    
C13   H7    S    
C43   H16   S    
O18   V4    S    
C46   H24   S    
C25   C27   A    
O16   C6    A    
C14   H8    S    
O1    C3    A    
C11   C33   A    
C12   C34   A    
C22   C36   A    
V2    O20   S    
C30   C44   S    
O16   V4    S    
C29   C41   S    
C18   H10   S    
O5    V1    S    
O17   C7    A    
O6    V2    S    
O10   C6    A    
O18   C8    A    
O2    V4    S    
O15   C5    A    
V3    O19   S    
C1    C36   S    
V4    O20   S    
C31   I1    S    
C42   H19   S    
O9    C5    A    
C45   C46   S    
O13   V1    S    
C26   C28   A    
O14   V2    S    
O2    C4    A    
O4    V2    S    
C43   H17   S    
C21   C29   A    
C3    C38   S    
C46   H23   S    
C42   C43   S    
H1    C33   S    
C44   H27   S    
H2    C34   S    
C28   C30   A    
H3    C27   S    
