data_mof_unit_58847.cif
_audit_creation_date              2013-03-05T15:51:40-0500
_audit_creation_method            fapswitch 2.2
_symmetry_space_group_name_H-M    P1
_symmetry_Int_Tables_number       1
_space_group_crystal_system       triclinic
_cell_length_a                    10.641534
_cell_length_b                    10.859339
_cell_length_c                    9.598791
_cell_angle_alpha                 90.802802
_cell_angle_beta                  89.340747
_cell_angle_gamma                 93.23829
_cell_volume                      1107.29285313

loop_
_atom_site_label
_atom_site_type_symbol
_atom_site_description
_atom_site_fract_x
_atom_site_fract_y
_atom_site_fract_z
_atom_type_partial_charge
O1    O     O_R   0.499990 0.319640 0.618810 -0.555234
O2    O     O_R   0.500000 0.319660 0.381240 -0.594101
C1    C     C_R   0.510446 0.263545 0.499259 0.806298
O3    O     O_R   0.316850 0.499960 0.618770 -0.514595
O4    O     O_R   0.316860 0.499980 0.381190 -0.562219
C2    C     C_R   0.259761 0.502558 0.500850 0.881527
Cu1   Cu    Cu3+1 0.499990 0.499990 0.640660 1.009446
Cu2   Cu    Cu3+1 0.500010 0.500010 0.359340 0.980870
O5    O     O_R   0.500000 0.680340 0.618760 -0.623218
O6    O     O_R   0.500010 0.680360 0.381190 -0.589184
O7    O     O_R   0.683140 0.500020 0.618810 -0.613876
O8    O     O_R   0.683150 0.500040 0.381230 -0.599097
C3    C     C_R   0.495661 0.737921 0.502249 0.806852
C4    C     C_R   0.740283 0.500601 0.499265 0.808623
C5    C     C_3   0.038177 0.542605 0.623292 0.356143
C6    C     C_3   0.951336 0.426523 0.599313 -0.152290
H1    H     H_    0.910022 0.364475 0.680837 0.178027
C7    C     C_3   0.876650 0.502315 0.497939 -0.118832
C8    C     C_3   0.961513 0.619592 0.525568 -0.278281
C9    C     C_3   0.045653 0.578593 0.404111 0.346405
C10   C     C_3   0.958714 0.463902 0.373073 -0.157542
C11   C     C_3   0.036310 0.388767 0.474727 -0.248387
C12   C     C_3   0.123128 0.504829 0.502567 -0.188751
H2    H     H_    0.929356 0.713687 0.546225 0.191648
H3    H     H_    0.923587 0.432973 0.269144 0.193373
H4    H     H_    0.068995 0.294838 0.454371 0.194912
H5    H     H_    0.471104 0.106957 0.282475 0.175254
C13   C     C_R   0.616102 0.130605 0.735808 -0.101462
H6    H     H_    0.662928 0.221058 0.725166 0.140173
C14   C     C_R   0.618180 0.075713 0.865868 -0.083257
H7    H     H_    0.661871 0.124853 0.953193 0.147926
C15   C     C_R   0.557851 0.960410 0.884740 -0.115029
H8    H     H_    0.551233 0.921055 0.987781 0.143275
C16   C     C_R   0.508277 0.894243 0.770436 -0.125460
H9    H     H_    0.457307 0.808456 0.793780 0.200631
C17   C     C_R   0.518627 0.942896 0.633957 0.081967
C18   C     C_R   0.554424 0.069254 0.622375 0.117140
C19   C     C_R   0.524496 0.130475 0.498980 -0.111249
C20   C     C_R   0.491172 0.062083 0.379196 -0.181785
H10   H     H_    0.461284 0.884544 0.286503 0.183455
C21   C     C_R   0.481811 0.934734 0.382686 -0.123891
C22   C     C_R   0.494102 0.873095 0.508715 -0.087580
H11   H     H_    0.357177 0.360196 0.130523 0.167271
C23   C     C_R   0.671209 0.661954 0.144119 -0.227333
H12   H     H_    0.675631 0.668868 0.253929 0.228047
C24   C     C_R   0.757764 0.740348 0.072693 0.330325
C25   C     C_R   0.757382 0.738240 0.928110 -0.223405
H13   H     H_    0.822108 0.798746 0.869481 0.205319
C26   C     C_R   0.671323 0.661240 0.856345 -0.202907
H14   H     H_    0.675776 0.671784 0.746631 0.214729
C27   C     C_R   0.584049 0.579607 0.925366 0.136644
C28   C     C_R   0.584092 0.579659 0.074710 0.147722
N1    N     N_R   0.501210 0.501210 0.147910 -0.214659
C29   C     C_R   0.421334 0.423146 0.074524 -0.068020
C30   C     C_R   0.421088 0.422381 0.926735 0.429523
N2    N     N_R   0.501250 0.501290 0.852040 -0.257104
N3    N     N_R   0.844659 0.823188 0.147243 0.156695
O9    O     O_R   0.842074 0.829443 0.282773 -0.376939
O10   O     O_R   0.926812 0.893908 0.080114 -0.285274
N4    N     N_R   0.336945 0.335815 0.856875 0.138555
O11   O     O_R   0.221146 0.363686 0.839106 -0.302951
O12   O     O_R   0.362331 0.220105 0.854417 -0.360446
N5    N     N_R   0.080858 0.588257 0.759038 0.166818
O13   O     O_R   0.031213 0.541054 0.872069 -0.284476
O14   O     O_R   0.157615 0.685522 0.767527 -0.319441
N6    N     N_R   0.100103 0.661948 0.299301 0.166735
O15   O     O_R   0.078352 0.640908 0.167865 -0.256603
O16   O     O_R   0.171824 0.757260 0.336945 -0.327452

loop_
_geom_bond_atom_site_label_1
_geom_bond_atom_site_label_2
_geom_bond_distance
_ccdc_geom_bond_type
Cu2   N1    2.029585 S    
O4    Cu2   1.957831 S    
N6    O16   1.300378 A    
C30   N2    1.377167 A    
N5    O14   1.300424 A    
H10   C21   1.083622 S    
C18   C19   1.414565 A    
C14   C15   1.387676 A    
C7    C10   1.541510 S    
C21   C22   1.401715 A    
C4    C7    1.450134 S    
H11   C29   1.082351 S    
C17   C22   1.430810 A    
C25   H13   1.083118 S    
C9    C12   1.525866 S    
Cu2   O8    1.962568 S    
C30   N4    1.426946 S    
C15   H8    1.082911 S    
C23   C28   1.416295 A    
C5    C12   1.527361 S    
O2    C1    1.302648 A    
Cu1   Cu2   2.700332 S    
C25   C26   1.387173 A    
C6    C7    1.539504 S    
C24   C25   1.387743 A    
N1    C29   1.361241 A    
C28   N1    1.383822 A    
C5    C8    1.536577 S    
C17   C18   1.408740 A    
C15   C16   1.395279 A    
N3    O9    1.301799 A    
O4    C2    1.293914 A    
H5    C20   1.083509 S    
Cu1   N2    2.029038 S    
N4    O11   1.299094 A    
O3    Cu1   1.962569 S    
C2    C12   1.455484 S    
C13   C18   1.416649 A    
C13   C14   1.391884 A    
C13   H6    1.081629 S    
O8    C4    1.291739 A    
C8    H2    1.110298 S    
C16   C17   1.420196 A    
C11   C12   1.542119 S    
C24   N3    1.442079 S    
C14   H7    1.082557 S    
C16   H9    1.076210 S    
O7    C4    1.292388 A    
N3    O10   1.301672 A    
O3    C2    1.292171 A    
C5    C6    1.536606 S    
N5    O13   1.300302 A    
O5    C3    1.291474 A    
C27   C28   1.433520 A    
C19   C20   1.398232 A    
C9    C10   1.536768 S    
C20   C21   1.381736 A    
N4    O12   1.299911 A    
C26   H14   1.061154 S    
C11   H4    1.110182 S    
C9    N6    1.456046 S    
N6    O15   1.300050 A    
Cu1   O5    1.972650 S    
C7    C8    1.540751 S    
C5    N5    1.456000 S    
C29   C30   1.418536 A    
C3    C22   1.469367 S    
Cu1   O7    1.957830 S    
C10   H3    1.110288 S    
C23   C24   1.398715 A    
C26   C27   1.413004 A    
C10   C11   1.554551 S    
O1    Cu1   1.966756 S    
Cu2   O6    1.966756 S    
O2    Cu2   1.972653 S    
C23   H12   1.057065 S    
C8    C9    1.538053 S    
C1    C19   1.461106 S    
C6    C11   1.555366 S    
C6    H1    1.110425 S    
O1    C1    1.298247 A    
O6    C3    1.313328 A    
C27   N2    1.381265 A    
