data_mof_unit_12614.cif
_audit_creation_date              2012-12-10T17:34:55-0500
_audit_creation_method            fapswitch 2.2
_symmetry_space_group_name_H-M    P1
_symmetry_Int_Tables_number       1
_space_group_crystal_system       triclinic
_cell_length_a                    12.044618
_cell_length_b                    12.920276
_cell_length_c                    15.704456
_cell_angle_alpha                 90.76915
_cell_angle_beta                  86.865432
_cell_angle_gamma                 93.092039
_cell_volume                      2436.58061203

loop_
_atom_site_label
_atom_site_type_symbol
_atom_type_description
_atom_site_fract_x
_atom_site_fract_y
_atom_site_fract_z
_atom_type_partial_charge
C1    C     C_R   0.521794 0.699892 0.500028 0.863234
C2    C     C_3   0.402178 0.554276 0.054095 -0.573566
C3    C     C_3   0.494635 0.485882 0.083197 -0.008069
C4    C     C_3   0.466716 0.372262 0.051674 0.306303
C5    C     C_3   0.472811 0.366644 0.951196 0.799163
C6    C     C_1   0.495380 0.490197 0.174630 0.051641
C7    C     C_1   0.497231 0.487389 0.825522 -0.013741
C8    C     C_1   0.499841 0.493264 0.750265 -0.190700
C9    C     C_R   0.469987 0.187361 0.517342 -0.361590
C10   C     C_R   0.535735 0.810302 0.504015 -0.064346
C11   C     C_R   0.646420 0.966368 0.475355 -0.150728
C12   C     C_R   0.500381 0.499302 0.661577 0.898737
C13   C     C_R   0.635264 0.859853 0.473282 -0.238536
C14   C     C_R   0.447240 0.866366 0.536991 -0.170554
C15   C     C_R   0.455850 0.973423 0.536326 -0.074503
C16   C     C_R   0.557472 0.023846 0.507499 -0.005419
C17   C     C_R   0.568235 0.131201 0.509136 0.364101
C18   C     C_R   0.366188 0.136044 0.540399 0.321206
C19   C     C_R   0.363240 0.030480 0.560165 0.382354
C20   C     C_R   0.955234 0.428452 0.401342 0.484605
C21   C     C_R   0.837874 0.429497 0.416328 -0.240066
C22   C     C_R   0.857236 0.527122 0.544151 0.628944
C23   C     C_R   0.478957 0.299204 0.504528 0.948949
C24   C     C_R   0.974480 0.521050 0.536427 -0.214157
C25   C     C_R   0.024167 0.477814 0.462050 -0.182929
C26   C     C_R   0.142290 0.488830 0.449291 0.510428
C27   C     C_R   0.159605 0.556173 0.590034 0.603415
C28   C     C_R   0.042817 0.560177 0.599990 -0.365257
C29   C     C_R   0.499268 0.499208 0.338479 0.880441
C30   C     C_3   0.409396 0.561877 0.955460 0.294480
C31   C     C_3   0.612801 0.522373 0.945248 -0.469904
C32   C     C_3   0.608001 0.534724 0.043361 0.328556
C33   C     C_1   0.497070 0.494620 0.249816 -0.189017
C34   C     C_3   0.495054 0.482998 0.917036 0.001337
H1    H     H_    0.411496 0.632899 0.083637 0.190365
H2    H     H_    0.326026 0.542927 0.931830 0.053674
H3    H     H_    0.318125 0.522632 0.076611 0.208932
H4    H     H_    0.531311 0.323516 0.075799 0.079199
H5    H     H_    0.723616 0.003239 0.449485 0.162957
H6    H     H_    0.703323 0.816589 0.446021 0.150904
H7    H     H_    0.370336 0.826353 0.560308 0.213272
H8    H     H_    0.005969 0.593299 0.657681 0.198594
H9    H     H_    0.781520 0.390802 0.373611 0.188228
H10   H     H_    0.678747 0.470562 0.922143 0.212485
H11   H     H_    0.638243 0.598614 0.915813 0.213452
H12   H     H_    0.603116 0.619813 0.054451 0.163446
N1    N     N_R   0.207800 0.519340 0.515510 -0.194400
N2    N     N_R   0.792190 0.480660 0.484490 -0.173722
O1    O     O_R   0.421690 0.658830 0.504140 -0.616099
O2    O     O_R   0.609320 0.646410 0.494190 -0.618965
O3    O     O_R   0.406150 0.506210 0.627840 -0.563821
O4    O     O_R   0.593770 0.493790 0.617880 -0.583257
O5    O     O_R   0.390680 0.353590 0.505810 -0.584069
O6    O     O_R   0.578310 0.341170 0.495860 -0.584135
O7    O     O_R   0.406230 0.506210 0.382120 -0.605129
O8    O     O_R   0.593850 0.493790 0.372160 -0.618909
Zn1   Zn    Zn3+2 0.374720 0.508290 0.506640 1.005475
Zn2   Zn    Zn3+2 0.625280 0.491710 0.493360 0.968920
O9    O     O_3   0.672323 0.180607 0.490990 -0.614719
C35   C     C_3   0.744030 0.168878 0.558800 0.068297
H13   H     H_    0.830325 0.167571 0.530034 0.157363
H14   H     H_    0.728260 0.094986 0.594301 0.122028
C36   C     C_3   0.737977 0.259999 0.621837 -0.302652
H15   H     H_    0.748261 0.333502 0.586721 0.268275
H16   H     H_    0.655182 0.257318 0.656747 0.196815
C37   C     C_3   0.829723 0.258806 0.685068 -1.000496
H17   H     H_    0.821113 0.186812 0.723224 0.262694
H18   H     H_    0.823968 0.326704 0.728875 0.274177
H19   H     H_    0.912938 0.263747 0.650705 0.271412
O10   O     O_3   0.270277 0.190981 0.550286 -0.603765
C38   C     C_3   0.193585 0.158641 0.488440 0.119591
H20   H     H_    0.111464 0.188272 0.509381 0.150925
H21   H     H_    0.180396 0.072998 0.483740 0.173975
C39   C     C_3   0.227677 0.203133 0.400123 -0.354374
H22   H     H_    0.229154 0.288844 0.403712 0.290094
H23   H     H_    0.312317 0.179800 0.378960 0.195926
C40   C     C_3   0.146457 0.164608 0.333989 -0.894932
H24   H     H_    0.152088 0.079820 0.323472 0.238409
H25   H     H_    0.167412 0.204663 0.272651 0.281755
H26   H     H_    0.059708 0.180658 0.355608 0.289293
O11   O     O_3   0.266146 0.981623 0.594241 -0.616812
C41   C     C_3   0.267733 0.988010 0.683788 -0.296080
H27   H     H_    0.270540 0.070038 0.706603 0.186371
H28   H     H_    0.338847 0.947079 0.707400 0.170361
H29   H     H_    0.189912 0.949263 0.711562 0.191934
O12   O     O_3   0.190304 0.476950 0.367967 -0.587680
C42   C     C_3   0.206019 0.575643 0.328651 0.164623
H30   H     H_    0.275661 0.570928 0.279701 0.172760
H31   H     H_    0.231240 0.638810 0.374045 0.114545
C43   C     C_3   0.103782 0.604661 0.281959 -0.374531
H32   H     H_    0.080510 0.541392 0.236783 0.259950
H33   H     H_    0.032695 0.616331 0.328438 0.210311
C44   C     C_3   0.127780 0.704432 0.231711 -0.993667
H34   H     H_    0.150992 0.769555 0.275273 0.267434
H35   H     H_    0.052218 0.723848 0.199079 0.277366
H36   H     H_    0.196628 0.694579 0.182705 0.258265
O13   O     O_3   0.444962 0.664559 0.930517 -0.626410
C45   C     C_3   0.353734 0.729239 0.930033 0.093524
H37   H     H_    0.311414 0.734022 0.994667 0.134629
H38   H     H_    0.292490 0.699406 0.883890 0.128691
C46   C     C_3   0.395469 0.837958 0.902419 -0.309380
H39   H     H_    0.459209 0.868924 0.946038 0.222438
H40   H     H_    0.434578 0.833954 0.836770 0.221482
C47   C     C_3   0.299987 0.911112 0.903538 -1.009389
H41   H     H_    0.233906 0.880194 0.862021 0.264196
H42   H     H_    0.331181 0.988161 0.879462 0.271291
H43   H     H_    0.263816 0.920710 0.969583 0.269291
O14   O     O_3   0.227238 0.601220 0.650371 -0.566992
C48   C     C_3   0.196599 0.562728 0.732625 -0.328955
H44   H     H_    0.269734 0.573094 0.772273 0.188064
H45   H     H_    0.171934 0.478296 0.732089 0.154263
H46   H     H_    0.129392 0.607926 0.763557 0.150994
O15   O     O_3   0.006240 0.374223 0.333707 -0.562672
C49   C     C_3   0.939384 0.358619 0.263147 -0.376467
H47   H     H_    0.899339 0.430630 0.246049 0.168424
H48   H     H_    0.876656 0.293510 0.275172 0.172070
H49   H     H_    0.993548 0.336254 0.207256 0.200034
O16   O     O_3   0.806569 0.578047 0.612489 -0.592468
C50   C     C_3   0.814477 0.685909 0.597438 -0.260149
H50   H     H_    0.743374 0.721554 0.632384 0.191007
H51   H     H_    0.811272 0.706094 0.528876 0.144881
H52   H     H_    0.892006 0.721692 0.622543 0.147010
O17   O     O_3   0.708539 0.513890 0.082354 -0.596023
C51   C     C_3   0.730254 0.408190 0.087028 -0.319547
H53   H     H_    0.714709 0.364422 0.027584 0.195719
H54   H     H_    0.684252 0.372362 0.143239 0.161330
H55   H     H_    0.820046 0.402718 0.097404 0.178122
O18   O     O_3   0.379028 0.305279 0.921238 -0.613301
C52   C     C_3   0.279240 0.354465 0.912197 -0.355343
H56   H     H_    0.250068 0.394276 0.971448 0.198350
H57   H     H_    0.213658 0.293518 0.899524 0.199394
H58   H     H_    0.285647 0.404541 0.855254 0.145385
O19   O     O_3   0.570023 0.310612 0.929534 -0.735775
C53   C     C_3   0.571417 0.259566 0.848884 0.132007
H59   H     H_    0.655482 0.274317 0.817817 0.152469
H60   H     H_    0.511304 0.287988 0.804554 0.164522
C54   C     C_3   0.550782 0.142683 0.861161 -0.305012
H61   H     H_    0.616614 0.113263 0.899926 0.211662
H62   H     H_    0.469229 0.127068 0.896219 0.246724
C55   C     C_3   0.550740 0.084650 0.775822 -1.015219
H63   H     H_    0.487636 0.114662 0.734847 0.262248
H64   H     H_    0.530601 0.000955 0.786822 0.267724
H65   H     H_    0.634102 0.093164 0.742336 0.269250
O20   O     O_3   0.359703 0.337669 0.086533 -0.601981
C56   C     C_3   0.357557 0.232268 0.109549 -0.259406
H66   H     H_    0.406023 0.222858 0.166951 0.147186
H67   H     H_    0.389706 0.182709 0.056206 0.180529
H68   H     H_    0.270063 0.205316 0.125657 0.182131

loop_
_geom_bond_atom_site_label_1
_geom_bond_atom_site_label_2
_ccdc_geom_bond_type
C2    H1    S    
C18   O10   S    
C22   N2    A    
C42   H30   S    
C36   H16   S    
C44   H34   S    
C29   C33   S    
C37   H18   S    
C55   H65   S    
C3    C6    S    
O18   C52   S    
C56   H68   S    
C53   C54   S    
C47   H42   S    
O11   C41   S    
O17   C51   S    
C40   H24   S    
C5    O19   S    
C54   H62   S    
C30   O13   S    
C46   H39   S    
C39   H23   S    
C43   C44   S    
C35   C36   S    
C55   H64   S    
C52   H56   S    
C48   H45   S    
C56   H66   S    
C20   O15   S    
C50   H52   S    
C37   H19   S    
C20   C25   A    
C15   C16   A    
O13   C45   S    
O1    Zn1   S    
O14   C48   S    
C35   H14   S    
C18   C19   A    
O16   C50   S    
C13   H6    S    
C56   H67   S    
C21   H9    S    
C16   C17   A    
C39   C40   S    
O10   C38   S    
O3    Zn1   S    
C1    O2    A    
C26   O12   S    
C21   N2    A    
C40   H25   S    
C37   H17   S    
C36   C37   S    
O9    C35   S    
C46   H40   S    
C32   O17   S    
C47   H41   S    
C12   O4    A    
C23   O5    A    
C50   H51   S    
C54   C55   S    
C31   H10   S    
C30   C34   S    
O2    Zn2   S    
C7    C8    T    
C55   H63   S    
C10   C14   A    
C48   H46   S    
C38   H21   S    
O5    Zn1   S    
O12   C42   S    
C9    C23   S    
C53   H60   S    
C29   O7    A    
C25   C26   A    
C35   H13   S    
N2    Zn2   S    
C15   C19   A    
N1    Zn1   S    
C11   C16   A    
C43   H33   S    
C31   C32   S    
C8    C12   S    
C5    C34   S    
C20   C21   A    
C31   C34   S    
C24   C25   A    
C11   H5    S    
O4    Zn2   S    
C26   N1    A    
C17   O9    S    
C51   H55   S    
C9    C17   A    
C4    H4    S    
C45   H37   S    
C44   H36   S    
C41   H28   S    
O7    Zn1   S    
O19   C53   S    
C7    C34   S    
C22   C24   A    
C3    C4    S    
C45   C46   S    
C12   O3    A    
C23   O6    A    
C51   H54   S    
O15   C49   S    
O6    Zn2   S    
C40   H26   S    
C27   N1    A    
C22   O16   S    
C32   H12   S    
C1    C10   S    
C24   C28   A    
O20   C56   S    
C10   C13   A    
C4    O20   S    
C38   C39   S    
C49   H48   S    
C50   H50   S    
C49   H47   S    
C53   H59   S    
C29   O8    A    
C46   C47   S    
C41   H29   S    
C54   H61   S    
C45   H38   S    
C6    C33   T    
C30   H2    S    
C2    C30   S    
C52   H58   S    
C42   H31   S    
C2    C3    S    
C38   H20   S    
C48   H44   S    
C11   C13   A    
C2    H3    S    
C43   H32   S    
C14   H7    S    
C27   O14   S    
C5    O18   S    
C28   H8    S    
O8    Zn2   S    
C3    C32   S    
C49   H49   S    
C36   H15   S    
C9    C18   A    
C4    C5    S    
C39   H22   S    
C44   H35   S    
C41   H27   S    
C31   H11   S    
C42   C43   S    
C27   C28   A    
C14   C15   A    
C19   O11   S    
C1    O1    A    
C47   H43   S    
C51   H53   S    
C52   H57   S    
