data_mof_unit_41379.cif
_audit_creation_date              2013-03-05T15:41:55-0500
_audit_creation_method            fapswitch 2.2
_symmetry_space_group_name_H-M    P1
_symmetry_Int_Tables_number       1
_space_group_crystal_system       triclinic
_cell_length_a                    24.904851
_cell_length_b                    16.732166
_cell_length_c                    15.583051
_cell_angle_alpha                 90.001814
_cell_angle_beta                  49.869464
_cell_angle_gamma                 90.001308
_cell_volume                      4964.89883832

loop_
_atom_site_label
_atom_site_type_symbol
_atom_site_description
_atom_site_fract_x
_atom_site_fract_y
_atom_site_fract_z
_atom_type_partial_charge
C1    C     C_R   0.334172 0.113060 0.802120 -0.128817
C2    C     C_R   0.647549 0.852665 0.243092 -0.115660
C3    C     C_R   0.665829 0.113056 0.197879 -0.128873
C4    C     C_R   0.352448 0.852667 0.756902 -0.115502
C5    C     C_R   0.834170 0.613054 0.802122 -0.129151
C6    C     C_R   0.147523 0.352638 0.243173 -0.115245
C7    C     C_R   0.165829 0.613055 0.197879 -0.129164
C8    C     C_R   0.852470 0.352646 0.756858 -0.115549
H1    H     H_    0.281477 0.112052 0.830731 0.098724
H2    H     H_    0.694529 0.836622 0.229425 0.102494
H3    H     H_    0.718522 0.112049 0.169275 0.098887
H4    H     H_    0.305476 0.836621 0.770542 0.102505
H5    H     H_    0.781478 0.612051 0.830720 0.098969
H6    H     H_    0.194475 0.336584 0.229589 0.102568
H7    H     H_    0.218523 0.612050 0.169274 0.098869
H8    H     H_    0.805500 0.336597 0.770497 0.102545
N1    N     N_R   0.389620 0.081040 0.705440 -0.040980
N2    N     N_R   0.610380 0.918960 0.294560 -0.044671
N3    N     N_R   0.610380 0.081040 0.294560 -0.040918
N4    N     N_R   0.389620 0.918960 0.705440 -0.044723
N5    N     N_R   0.889620 0.581040 0.705440 -0.040936
N6    N     N_R   0.110380 0.418960 0.294560 -0.044758
N7    N     N_R   0.110380 0.581040 0.294560 -0.040984
N8    N     N_R   0.889620 0.418960 0.705440 -0.044689
C9    C     C_R   0.585841 0.150162 0.592566 -0.125085
C10   C     C_R   0.386122 0.888996 0.407651 -0.088129
C11   C     C_R   0.414071 0.150126 0.407464 -0.125910
C12   C     C_R   0.613789 0.888796 0.592386 -0.088037
C13   C     C_R   0.085841 0.650161 0.592566 -0.125315
C14   C     C_R   0.886119 0.389005 0.407652 -0.088015
C15   C     C_R   0.914202 0.650171 0.407415 -0.124717
C16   C     C_R   0.114013 0.389315 0.592294 -0.088126
H9    H     H_    0.558788 0.165822 0.679013 0.128175
H10   H     H_    0.406340 0.889976 0.321965 0.111584
H11   H     H_    0.441145 0.165825 0.321021 0.127427
H12   H     H_    0.593585 0.889809 0.678062 0.112211
H13   H     H_    0.058788 0.665820 0.679014 0.128245
H14   H     H_    0.906337 0.389986 0.321966 0.111443
H15   H     H_    0.941239 0.665798 0.320965 0.128734
H16   H     H_    0.093766 0.390245 0.677998 0.110499
N9    N     N_R   0.582320 0.079840 0.556630 -0.055383
N10   N     N_R   0.417680 0.920160 0.443370 -0.049074
N11   N     N_R   0.417680 0.079840 0.443370 -0.055222
N12   N     N_R   0.582320 0.920160 0.556630 -0.049202
N13   N     N_R   0.082320 0.579840 0.556630 -0.055421
N14   N     N_R   0.917680 0.420160 0.443370 -0.049000
N15   N     N_R   0.917680 0.579840 0.443370 -0.055503
N16   N     N_R   0.082320 0.420160 0.556630 -0.048787
C17   C     C_R   0.661937 0.148296 0.405807 -0.108822
C18   C     C_R   0.311621 0.888718 0.594465 -0.128250
C19   C     C_R   0.337935 0.148202 0.594257 -0.107509
C20   C     C_R   0.688312 0.888512 0.405563 -0.129631
C21   C     C_R   0.161937 0.648296 0.405807 -0.108780
C22   C     C_R   0.811618 0.388725 0.594465 -0.128526
C23   C     C_R   0.838134 0.648349 0.594155 -0.109657
C24   C     C_R   0.188490 0.389060 0.405496 -0.126514
H17   H     H_    0.705315 0.162372 0.319167 0.114364
H18   H     H_    0.263399 0.889464 0.680806 0.113217
H19   H     H_    0.294569 0.162232 0.680917 0.113572
H20   H     H_    0.736558 0.889224 0.319243 0.113775
H21   H     H_    0.205316 0.662371 0.319168 0.114372
H22   H     H_    0.763396 0.389472 0.680806 0.113130
H23   H     H_    0.794749 0.662455 0.680783 0.114868
H24   H     H_    0.236676 0.389858 0.319125 0.112272
N17   N     N_R   0.627920 0.078930 0.443400 -0.048845
N18   N     N_R   0.372080 0.921070 0.556600 -0.044222
N19   N     N_R   0.372080 0.078930 0.556600 -0.048901
N20   N     N_R   0.627920 0.921070 0.443400 -0.044133
N21   N     N_R   0.127920 0.578930 0.443400 -0.048942
N22   N     N_R   0.872080 0.421070 0.556600 -0.044112
N23   N     N_R   0.872080 0.578930 0.556600 -0.048863
N24   N     N_R   0.127920 0.421070 0.443400 -0.044212
C25   C     C_R   0.576980 0.109549 0.197499 -0.103351
C26   C     C_R   0.441509 0.856652 0.758513 -0.096699
C27   C     C_R   0.423018 0.109547 0.802505 -0.102861
C28   C     C_R   0.558473 0.856642 0.241515 -0.096348
C29   C     C_R   0.076984 0.609539 0.197492 -0.102714
C30   C     C_R   0.941553 0.356621 0.758422 -0.096125
C31   C     C_R   0.923015 0.609541 0.802510 -0.103057
C32   C     C_R   0.058461 0.356620 0.241559 -0.096643
H25   H     H_    0.548483 0.105203 0.166987 0.098954
H26   H     H_    0.477660 0.842088 0.772324 0.133353
H27   H     H_    0.451511 0.105195 0.833024 0.099130
H28   H     H_    0.522301 0.842070 0.227749 0.133048
H29   H     H_    0.048493 0.605183 0.166970 0.099306
H30   H     H_    0.977752 0.342039 0.772132 0.132468
H31   H     H_    0.951507 0.605188 0.833029 0.099182
H32   H     H_    0.022289 0.342041 0.227795 0.132949
N25   N     N_R   0.555090 0.077730 0.294590 -0.044023
N26   N     N_R   0.444910 0.922270 0.705410 -0.052043
N27   N     N_R   0.444910 0.077730 0.705410 -0.044140
N28   N     N_R   0.555090 0.922270 0.294590 -0.052034
N29   N     N_R   0.055090 0.577730 0.294590 -0.044227
N30   N     N_R   0.944910 0.422270 0.705410 -0.052019
N31   N     N_R   0.944910 0.577730 0.705410 -0.044157
N32   N     N_R   0.055090 0.422270 0.294590 -0.052023
C33   C     C_R   0.353416 0.131363 0.865516 0.092572
C34   C     C_R   0.615086 0.810790 0.210647 0.072596
C35   C     C_R   0.646585 0.131359 0.134483 0.092395
C36   C     C_R   0.384898 0.810800 0.789371 0.072607
C37   C     C_R   0.853411 0.631352 0.865523 0.092687
C38   C     C_R   0.115060 0.310755 0.210734 0.072643
C39   C     C_R   0.146586 0.631354 0.134482 0.092795
C40   C     C_R   0.884944 0.310763 0.789277 0.072659
C41   C     C_R   0.635846 0.194454 0.498447 0.138308
C42   C     C_R   0.320066 0.867735 0.501604 0.119700
C43   C     C_R   0.363950 0.194314 0.501639 0.138548
C44   C     C_R   0.679781 0.867332 0.498456 0.119634
C45   C     C_R   0.135848 0.694452 0.498448 0.138192
C46   C     C_R   0.820061 0.367749 0.501605 0.119447
C47   C     C_R   0.864261 0.694524 0.501500 0.137994
C48   C     C_R   0.180172 0.368385 0.498308 0.119359
Ni1   Ni    Ni4+2 0.382970 0.000000 0.629840 0.232192
Ni2   Ni    Ni4+2 0.617030 0.000000 0.370160 0.232182
Ni3   Ni    Ni4+2 0.882970 0.500000 0.629840 0.232087
Ni4   Ni    Ni4+2 0.117030 0.500000 0.370160 0.232062
Ni5   Ni    Ni4+2 0.514540 0.000000 0.629840 0.219324
Ni6   Ni    Ni4+2 0.485460 0.000000 0.370160 0.219321
Ni7   Ni    Ni4+2 0.014540 0.500000 0.629840 0.219222
Ni8   Ni    Ni4+2 0.985460 0.500000 0.370160 0.219244
C49   C     C_3   0.339794 0.322603 0.426487 0.443371
C50   C     C_3   0.713570 0.761680 0.576140 0.434703
C51   C     C_3   0.660078 0.321293 0.575461 0.442603
C52   C     C_3   0.286254 0.761250 0.425077 0.435089
C53   C     C_3   0.839971 0.820417 0.423334 0.442079
C54   C     C_3   0.214022 0.260613 0.572982 0.435929
C55   C     C_3   0.160084 0.821286 0.575460 0.442583
C56   C     C_3   0.786251 0.261262 0.425074 0.435265
C57   C     C_3   0.777352 0.869306 0.522710 -0.261080
C58   C     C_3   0.277071 0.215339 0.472913 -0.280704
C59   C     C_3   0.223290 0.869262 0.475575 -0.261208
C60   C     C_3   0.724073 0.214558 0.524421 -0.279726
C61   C     C_3   0.275689 0.369152 0.527115 -0.262569
C62   C     C_3   0.775183 0.714065 0.477284 -0.278914
C63   C     C_3   0.723282 0.369272 0.475577 -0.261913
C64   C     C_3   0.224074 0.714549 0.524425 -0.279426
H33   H     H_    0.778014 0.933795 0.538727 0.171504
H34   H     H_    0.276824 0.151638 0.453008 0.166306
H35   H     H_    0.223180 0.933564 0.458166 0.171623
H36   H     H_    0.725171 0.150523 0.542138 0.166460
H37   H     H_    0.274937 0.433134 0.546702 0.170822
H38   H     H_    0.773545 0.649833 0.460965 0.166643
H39   H     H_    0.723170 0.433574 0.458168 0.170998
H40   H     H_    0.225169 0.650512 0.542142 0.166594
C65   C     C_3   0.732311 0.830943 0.497868 -0.035828
C66   C     C_3   0.320636 0.251537 0.502184 -0.027020
C67   C     C_3   0.267536 0.831317 0.502224 -0.035922
C68   C     C_3   0.679262 0.251468 0.497958 -0.027216
C69   C     C_3   0.232693 0.331915 0.497648 -0.035651
C70   C     C_3   0.820780 0.751399 0.501954 -0.027472
C71   C     C_3   0.767532 0.331329 0.502223 -0.035663
C72   C     C_3   0.179266 0.751461 0.497959 -0.027427
C73   C     C_3   0.297276 0.287600 0.395414 -0.265945
C74   C     C_3   0.757691 0.798090 0.603151 -0.264180
C75   C     C_3   0.703832 0.285546 0.603765 -0.265984
C76   C     C_3   0.242933 0.797224 0.396298 -0.264700
C77   C     C_3   0.795436 0.784223 0.396800 -0.265960
C78   C     C_3   0.256083 0.295855 0.604518 -0.265017
C79   C     C_3   0.203835 0.785537 0.603766 -0.266014
C80   C     C_3   0.742928 0.297234 0.396298 -0.264402
H41   H     H_    0.314057 0.285071 0.309956 0.170553
H42   H     H_    0.742800 0.802322 0.687218 0.170646
H43   H     H_    0.687918 0.281615 0.688570 0.170242
H44   H     H_    0.258390 0.800601 0.311783 0.170494
H45   H     H_    0.810783 0.779406 0.312449 0.170146
H46   H     H_    0.239744 0.297887 0.689697 0.170119
H47   H     H_    0.187927 0.781605 0.688566 0.170349
H48   H     H_    0.758389 0.300610 0.311777 0.170389
H49   H     H_    0.304635 0.703085 0.797094 0.139321
H50   H     H_    0.782662 0.101722 0.982408 0.147985
H51   H     H_    0.695367 0.703092 0.202898 0.139071
H52   H     H_    0.217344 0.101710 0.017605 0.147986
H53   H     H_    0.804617 0.203084 0.797098 0.139323
H54   H     H_    0.282656 0.601702 0.982399 0.147962
H55   H     H_    0.195402 0.203092 0.202898 0.139676
H56   H     H_    0.717337 0.601711 0.017587 0.147969
C81   C     C_2   0.694102 0.156148 0.016354 -0.008281
C82   C     C_2   0.360162 0.735233 0.851986 0.006639
C83   C     C_2   0.305904 0.156157 0.983643 -0.008686
C84   C     C_2   0.639814 0.735215 0.148046 0.006562
C85   C     C_2   0.194098 0.656147 0.016358 -0.009265
C86   C     C_2   0.860216 0.235186 0.851877 0.007119
C87   C     C_2   0.805895 0.656140 0.983651 -0.009001
C88   C     C_2   0.139783 0.235170 0.148148 0.007212
C89   C     C_2   0.763244 0.140132 0.951550 -0.179140
C90   C     C_2   0.314804 0.689920 0.853707 -0.127116
C91   C     C_2   0.236763 0.140130 0.048457 -0.179189
C92   C     C_2   0.685187 0.689915 0.146301 -0.127132
C93   C     C_2   0.263238 0.640124 0.951550 -0.179090
C94   C     C_2   0.814813 0.189905 0.853673 -0.127060
C95   C     C_2   0.736754 0.640125 0.048448 -0.179108
C96   C     C_2   0.185195 0.189900 0.146339 -0.127005
N33   N     N_R   0.410411 0.355304 0.347382 0.236643
O1    O     O_R   0.441862 0.382105 0.383225 -0.358385
O2    O     O_R   0.442577 0.357103 0.240669 -0.377807
N34   N     N_R   0.643367 0.728439 0.659155 0.228107
O3    O     O_R   0.611249 0.696140 0.627256 -0.380890
O4    O     O_R   0.613131 0.729448 0.765121 -0.396393
N35   N     N_R   0.589227 0.352955 0.656762 0.236203
O5    O     O_R   0.556696 0.380608 0.623186 -0.358540
O6    O     O_R   0.557927 0.352947 0.763171 -0.379516
N36   N     N_R   0.356324 0.727326 0.343438 0.228384
O7    O     O_R   0.387753 0.695547 0.376833 -0.380237
O8    O     O_R   0.387136 0.727246 0.237227 -0.395526
N37   N     N_R   0.910954 0.851392 0.340669 0.236021
O9    O     O_R   0.944176 0.879544 0.372788 -0.358988
O10   O     O_R   0.941688 0.850249 0.234499 -0.379673
N38   N     N_R   0.144184 0.225661 0.652419 0.228660
O11   O     O_R   0.113834 0.194734 0.616700 -0.380389
O12   O     O_R   0.112487 0.223868 0.758956 -0.394917
N39   N     N_R   0.089235 0.852952 0.656756 0.236376
O13   O     O_R   0.056708 0.880609 0.623178 -0.358652
O14   O     O_R   0.057932 0.852943 0.763164 -0.378517
N40   N     N_R   0.856323 0.227341 0.343430 0.228279
O15   O     O_R   0.887755 0.195563 0.376822 -0.380943
O16   O     O_R   0.887132 0.227261 0.237217 -0.396223
C97   C     C_1   0.376455 0.718243 0.924283 0.133665
N41   N     N_1   0.389436 0.704741 0.982004 -0.025422
C98   C     C_1   0.666119 0.205653 0.976881 0.099904
N42   N     N_1   0.643811 0.245178 0.945347 -0.061812
C99   C     C_1   0.623495 0.718201 0.075787 0.133936
N43   N     N_1   0.610492 0.704679 0.018098 -0.024507
C100  C     C_1   0.333889 0.205680 0.023099 0.100905
N44   N     N_1   0.356200 0.245220 0.054619 -0.061897
C101  C     C_1   0.876552 0.218168 0.924112 0.132958
N45   N     N_1   0.889567 0.204644 0.981784 -0.025906
C102  C     C_1   0.166115 0.705672 0.976902 0.101440
N46   N     N_1   0.143805 0.745213 0.945383 -0.060436
C103  C     C_1   0.123423 0.218124 0.075950 0.132789
N47   N     N_1   0.110388 0.204576 0.018308 -0.027191
C104  C     C_1   0.833876 0.705649 0.023127 0.100817
N48   N     N_1   0.856184 0.745178 0.054662 -0.060326

loop_
_geom_bond_atom_site_label_1
_geom_bond_atom_site_label_2
_geom_bond_distance
_ccdc_geom_bond_type
C40   C86   1.468197 S    
N21   Ni4   1.875952 S    
N18   Ni1   1.875954 S    
C87   C104  1.450099 S    
C58   C66   1.545948 S    
C50   C74   1.533591 S    
N17   Ni2   1.875952 S    
C82   C97   1.450529 S    
C100  N44   1.157362 T    
N1    N27   1.377800 A    
C3    H3    1.080317 S    
N5    Ni3   1.872262 S    
C36   C82   1.468156 S    
N2    Ni2   1.872262 S    
C31   H31   1.081683 S    
N36   O8    1.300390 A    
N1    Ni1   1.872262 S    
C89   C94   1.464328 S    
C52   N36   1.457437 S    
C51   C75   1.536000 S    
N37   O9    1.300291 A    
C85   C102  1.450102 S    
C2    C34   1.388169 A    
C29   C39   1.381328 A    
C22   C46   1.367137 A    
C99   N43   1.157353 T    
C49   C73   1.536117 S    
H51   C92   1.085791 S    
C14   C46   1.368089 A    
C92   C95   1.464293 S    
C77   H45   1.110291 S    
N14   Ni8   1.858271 S    
C51   N35   1.455193 S    
C59   C76   1.561793 S    
C26   H26   1.079864 S    
H49   C90   1.085791 S    
C35   C81   1.467303 S    
C48   C69   1.437413 S    
N4    Ni1   1.872321 S    
C54   C69   1.521205 S    
N40   O16   1.300416 A    
C33   C83   1.467277 S    
C7    C39   1.381939 A    
C83   C91   1.347285 D    
C54   C58   1.521431 S    
H52   C91   1.085350 S    
C28   C34   1.390568 A    
C6    N6    1.331726 A    
C38   C88   1.468201 S    
H53   C94   1.085783 S    
C27   C33   1.381346 A    
C60   C75   1.546007 S    
C81   C89   1.347295 D    
C14   H14   1.081668 S    
C61   C78   1.561494 S    
C68   C80   1.540197 S    
C50   C65   1.521476 S    
C49   N33   1.455109 S    
C102  N46   1.157362 T    
N28   Ni6   1.858245 S    
C50   C62   1.521600 S    
C69   C73   1.540038 S    
C84   C92   1.346324 D    
N7    Ni4   1.872321 S    
C64   C79   1.545998 S    
C85   C93   1.347273 D    
C10   H10   1.081671 S    
C72   C76   1.540186 S    
C54   N38   1.457431 S    
N38   O11   1.300466 A    
C24   N24   1.327678 A    
C23   H23   1.079471 S    
C88   C96   1.346325 D    
C3    N3    1.334874 A    
C2    N2    1.331752 A    
N29   Ni8   1.858242 S    
C71   C75   1.539973 S    
C32   N32   1.344281 A    
C20   H20   1.081580 S    
C5    H5    1.080324 S    
C20   N20   1.327950 A    
C27   N27   1.344069 A    
C30   H30   1.079922 S    
N37   O10   1.300399 A    
C21   N21   1.329750 A    
N35   O5    1.300272 A    
C8    H8    1.079444 S    
C15   N15   1.329983 A    
C32   H32   1.079886 S    
C6    C38   1.388192 A    
C16   N16   1.328050 A    
C10   C42   1.368090 A    
H54   C93   1.085352 S    
C21   H21   1.079446 S    
N16   N24   1.349161 A    
C61   C69   1.542560 S    
C56   C60   1.521524 S    
C75   H43   1.110258 S    
C25   H25   1.081682 S    
C64   C72   1.546029 S    
C57   H33   1.110035 S    
C14   N14   1.327905 A    
N16   Ni7   1.858275 S    
C54   C78   1.533008 S    
C19   H19   1.079404 S    
C52   C67   1.521361 S    
C5    C37   1.381935 A    
C28   H28   1.079884 S    
N20   Ni2   1.876011 S    
C18   C42   1.367140 A    
N36   O7    1.300521 A    
C52   C64   1.521525 S    
N13   N21   1.349161 A    
C60   C68   1.546048 S    
N26   Ni5   1.858242 S    
C45   C72   1.438238 S    
C1    H1    1.080313 S    
N34   O4    1.300440 A    
C46   C71   1.437581 S    
C9    C41   1.377241 A    
C1    C33   1.381940 A    
C98   N42   1.157364 T    
C43   C66   1.438294 S    
N40   O15   1.300549 A    
N10   Ni6   1.858271 S    
H56   C95   1.085347 S    
C17   C41   1.376035 A    
C7    H7    1.080321 S    
C22   H22   1.081569 S    
N3    Ni2   1.872321 S    
C11   H11   1.080437 S    
C97   N41   1.157347 T    
C41   C68   1.438246 S    
N4    N26   1.377798 A    
C12   N12   1.327796 A    
C42   C67   1.437573 S    
N7    N29   1.377801 A    
C13   N13   1.330030 A    
C18   H18   1.081569 S    
N9    Ni5   1.858271 S    
C25   N25   1.344068 A    
C31   N31   1.344073 A    
C103  N47   1.157352 T    
N3    N25   1.377801 A    
C82   C90   1.346317 D    
N8    N30   1.377798 A    
C55   C72   1.519198 S    
C62   H38   1.111191 S    
C65   C77   1.539922 S    
N30   Ni7   1.858242 S    
C56   C71   1.521376 S    
N39   O13   1.300247 A    
C22   N22   1.327838 A    
C11   C43   1.377337 A    
C9    H9    1.080422 S    
N33   O2    1.300279 A    
C101  N45   1.157350 T    
C67   C79   1.539961 S    
N23   Ni3   1.876013 S    
C84   C99   1.450528 S    
C19   N19   1.329549 A    
N25   Ni6   1.858242 S    
C59   C67   1.542645 S    
C8    C40   1.388208 A    
N15   N23   1.349160 A    
C91   C96   1.464322 S    
C17   N17   1.329759 A    
C28   N28   1.344269 A    
C66   C78   1.540354 S    
N11   N19   1.349160 A    
N15   Ni8   1.858275 S    
N39   O14   1.300348 A    
C27   H27   1.081682 S    
N27   Ni5   1.858245 S    
C4    C36   1.388162 A    
C13   H13   1.080422 S    
N12   N20   1.349161 A    
C4    H4    1.079447 S    
C81   C98   1.450096 S    
C9    N9    1.330037 A    
C58   H34   1.111183 S    
C47   C70   1.438220 S    
C55   C79   1.535979 S    
H55   C96   1.085782 S    
C16   H16   1.081695 S    
C83   C100  1.450097 S    
C56   C80   1.533385 S    
N10   N18   1.349159 A    
C44   C65   1.437677 S    
C13   C45   1.377240 A    
C25   C35   1.381371 A    
C11   N11   1.330077 A    
C3    C35   1.381950 A    
C63   C80   1.561806 S    
C16   C48   1.368134 A    
C62   C70   1.546071 S    
C23   C47   1.376227 A    
C39   C85   1.467263 S    
N6    Ni4   1.872262 S    
N6    N32   1.377804 A    
N32   Ni8   1.858245 S    
C50   N34   1.457451 S    
N34   O3    1.300565 A    
C37   C87   1.467273 S    
C74   H42   1.110161 S    
C88   C103  1.450526 S    
C17   H17   1.079446 S    
C26   C36   1.390562 A    
C18   N18   1.327828 A    
C86   C101  1.450523 S    
C32   C38   1.390618 A    
C87   C95   1.347280 D    
N22   Ni3   1.875954 S    
C60   H36   1.111191 S    
N5    N31   1.377800 A    
N24   Ni4   1.876011 S    
C1    N1    1.334879 A    
N31   Ni7   1.858245 S    
C26   N26   1.344282 A    
C90   C93   1.464284 S    
C52   C76   1.533365 S    
N19   Ni1   1.876013 S    
N2    N28   1.377804 A    
C6    H6    1.079468 S    
C64   H40   1.111193 S    
N38   O12   1.300333 A    
C55   N39   1.455179 S    
C76   H44   1.110128 S    
C29   N29   1.344067 A    
N13   Ni7   1.858271 S    
C24   H24   1.081551 S    
C57   C74   1.561990 S    
C7    N7    1.334875 A    
N12   Ni5   1.858275 S    
C30   N30   1.344258 A    
C15   H15   1.080415 S    
C63   C71   1.542661 S    
H50   C89   1.085348 S    
C53   N37   1.455227 S    
C63   H39   1.110038 S    
C8    N8    1.331751 A    
C79   H47   1.110233 S    
C30   C40   1.390608 A    
C58   C73   1.546054 S    
C53   C77   1.535908 S    
C57   C65   1.542701 S    
C80   H48   1.110151 S    
C10   N10   1.327897 A    
N9    N17   1.349161 A    
C12   C44   1.368054 A    
C55   C59   1.544870 S    
N14   N22   1.349159 A    
C59   H35   1.110041 S    
C53   C70   1.519294 S    
N11   Ni6   1.858275 S    
C29   H29   1.081684 S    
C4    N4    1.331744 A    
C78   H46   1.110090 S    
C53   C57   1.544738 S    
C62   C77   1.545968 S    
C5    N5    1.334865 A    
C51   C68   1.519215 S    
C12   H12   1.081653 S    
N8    Ni3   1.872321 S    
C19   C43   1.375766 A    
N33   O1    1.300202 A    
C70   C74   1.540084 S    
C51   C63   1.544876 S    
C104  N48   1.157367 T    
N35   O6    1.300372 A    
C15   C47   1.377167 A    
C49   C66   1.519076 S    
C31   C37   1.381351 A    
C20   C44   1.367373 A    
C21   C45   1.376038 A    
C61   H37   1.110042 S    
C86   C94   1.346332 D    
C49   C61   1.545072 S    
C34   C84   1.468163 S    
C24   C48   1.366796 A    
C73   H41   1.110157 S    
C23   N23   1.329892 A    
C56   N40   1.457452 S    
C2    H2    1.079428 S    
