data_mof_unit_10690.cif
_audit_creation_date              2012-12-11T17:17:00-0500
_audit_creation_method            fapswitch 2.2
_symmetry_space_group_name_H-M    P1
_symmetry_Int_Tables_number       1
_space_group_crystal_system       triclinic
_cell_length_a                    6.979131
_cell_length_b                    13.364537
_cell_length_c                    14.7024
_cell_angle_alpha                 99.030209
_cell_angle_beta                  91.050776
_cell_angle_gamma                 89.313715
_cell_volume                      1354.05286727

loop_
_atom_site_label
_atom_site_type_symbol
_atom_type_description
_atom_site_fract_x
_atom_site_fract_y
_atom_site_fract_z
_atom_type_partial_charge
O1    O     O_R   0.354890 0.151580 0.148210 -0.532008
O2    O     O_R   0.645110 0.848420 0.851790 -0.532008
O3    O     O_R   0.682370 0.152980 0.336770 -0.549984
O4    O     O_R   0.317630 0.847020 0.663230 -0.549984
O5    O     O_R   0.854980 0.348430 0.351800 -0.539948
O6    O     O_R   0.145020 0.651570 0.648200 -0.539949
C1    C     C_R   0.515273 0.131186 0.366383 0.653682
C2    C     C_R   0.484727 0.868814 0.633617 0.653684
O7    O     O_R   0.684450 0.139580 0.148000 -0.534035
O8    O     O_R   0.315550 0.860420 0.852000 -0.534035
O9    O     O_R   0.857080 0.334940 0.161680 -0.515949
O10   O     O_R   0.142920 0.665060 0.838320 -0.515951
C3    C     C_R   0.515242 0.112788 0.114098 0.781447
C4    C     C_R   0.484758 0.887212 0.885902 0.781448
O11   O     O_R   0.352790 0.165070 0.338330 -0.543492
O12   O     O_R   0.647210 0.834930 0.661670 -0.543491
O13   O     O_3   0.522170 0.314120 0.254710 -0.356387
O14   O     O_3   0.477830 0.685880 0.745290 -0.356389
V1    V     V_3+5 0.796120 0.238110 0.249130 1.476869
V2    V     V_3+5 0.203880 0.761890 0.750870 1.476866
O15   O     O_R   0.186930 0.347040 0.163240 -0.522416
O16   O     O_R   0.813070 0.652960 0.836760 -0.522416
C5    C     C_R   0.016184 0.365908 0.131638 0.797983
C6    C     C_R   0.983816 0.634092 0.868362 0.797982
O17   O     O_R   0.184850 0.360440 0.352010 -0.544328
O18   O     O_R   0.815150 0.639560 0.647990 -0.544328
C7    C     C_R   0.016211 0.387269 0.385847 0.707879
C8    C     C_R   0.983789 0.612731 0.614153 0.707879
V3    V     V_3+5 0.296410 0.261900 0.250880 1.476186
V4    V     V_3+5 0.703590 0.738100 0.749120 1.476183
O19   O     O_3   0.020490 0.185890 0.245290 -0.380923
O20   O     O_3   0.979510 0.814110 0.754710 -0.380922
C9    C     C_1   0.005606 0.466912 0.466309 -0.193149
C10   C     C_1   0.994394 0.533088 0.533691 -0.193150
C11   C     C_3   0.107391 0.579048 0.033135 0.511573
C12   C     C_3   0.892609 0.420952 0.966865 0.511569
C13   C     C_3   0.929769 0.546194 0.081273 -0.368162
C14   C     C_3   0.070231 0.453806 0.918727 -0.368161
H1    H     H_    0.869971 0.582515 0.147979 0.156823
H2    H     H_    0.130032 0.417485 0.852022 0.156820
C15   C     C_3   0.002142 0.434866 0.059854 -0.224667
C16   C     C_3   0.997858 0.565134 0.940146 -0.224671
C17   C     C_3   0.180433 0.468110 0.012245 0.255304
C18   C     C_3   0.819567 0.531891 0.987755 0.255294
C19   C     C_3   0.403449 0.959000 0.423653 -0.143449
C20   C     C_3   0.596551 0.041000 0.576347 -0.143448
C21   C     C_3   0.578490 0.909906 0.466562 -0.142424
C22   C     C_3   0.421510 0.090094 0.533438 -0.142423
H3    H     H_    0.643209 0.835178 0.439283 0.098328
H4    H     H_    0.356791 0.164822 0.560717 0.098329
H5    H     H_    0.324025 0.925390 0.360292 0.100657
H6    H     H_    0.675975 0.074610 0.639708 0.100659
C23   C     C_3   0.491230 0.938992 0.562708 0.002061
C24   C     C_3   0.508770 0.061008 0.437291 0.002061
C25   C     C_3   0.316057 0.987307 0.520565 -0.115215
C26   C     C_3   0.683943 0.012693 0.479435 -0.115216
H7    H     H_    0.164201 0.976718 0.537820 0.105379
H8    H     H_    0.835799 0.023282 0.462180 0.105378
C27   C     C_1   0.504580 0.033151 0.033684 -0.164814
C28   C     C_1   0.495420 0.966849 0.966316 -0.164814
O21   O     O_3   0.212786 0.667203 0.065648 -0.521213
C29   C     C_3   0.273139 0.665704 0.157484 -0.155802
H9    H     H_    0.349441 0.593934 0.165573 0.159510
H10   H     H_    0.150027 0.678603 0.204875 0.096650
H11   H     H_    0.375143 0.728584 0.177945 0.159459
O22   O     O_3   0.787221 0.332796 0.934351 -0.521215
C30   C     C_3   0.726829 0.334308 0.842520 -0.155783
H12   H     H_    0.849938 0.321478 0.795121 0.096622
H13   H     H_    0.650419 0.406058 0.834463 0.159573
H14   H     H_    0.624908 0.271393 0.822039 0.159424
Br1   Br    Br    0.419141 0.395344 0.022680 -0.491420
Br2   Br    Br    0.580860 0.604657 0.977322 -0.491419

loop_
_geom_bond_atom_site_label_1
_geom_bond_atom_site_label_2
_ccdc_geom_bond_type
C22   C25   S    
V4    O20   S    
O13   V3    S    
O4    C2    A    
V1    O19   S    
C21   H3    S    
C7    C9    S    
C22   C24   S    
O9    V1    S    
C11   C13   S    
C14   C16   S    
O3    C1    A    
C12   O22   S    
C19   H5    S    
O12   V4    S    
C20   H6    S    
C6    C16   S    
C19   C21   S    
O9    C5    A    
C11   C16   S    
O7    C3    A    
C29   H10   S    
O5    C7    A    
O7    V1    S    
O6    C8    A    
O8    V2    S    
O3    V1    S    
O14   V4    S    
C11   C17   S    
C21   C23   S    
C22   H4    S    
O22   C30   S    
C8    C10   S    
C27   C28   T    
C2    O12   A    
C15   C17   S    
C12   C15   S    
C16   C18   S    
O11   V3    S    
C20   C22   S    
C23   C25   S    
O15   C5    A    
O17   V3    S    
C24   C26   S    
C30   H12   S    
O8    C4    A    
O15   V3    S    
C30   H13   S    
C29   H9    S    
O10   V2    S    
O1    V3    S    
C9    C10   T    
C11   O21   S    
O5    V1    S    
C19   C24   S    
O18   V4    S    
C25   H7    S    
O16   C6    A    
C12   C18   S    
O1    C3    A    
C4    C28   S    
V2    O20   S    
C17   Br1   S    
O16   V4    S    
C29   H11   S    
C2    C23   S    
C3    C27   S    
O17   C7    A    
O6    V2    S    
O10   C6    A    
O18   C8    A    
C5    C15   S    
O2    V4    S    
C30   H14   S    
C13   C18   S    
C12   C14   S    
C14   C17   S    
V3    O19   S    
C14   H2    S    
C20   C23   S    
C1    O11   A    
O13   V1    S    
C26   H8    S    
C18   Br2   S    
O14   V2    S    
C13   C15   S    
O21   C29   S    
O2    C4    A    
O4    V2    S    
C19   C25   S    
C13   H1    S    
C20   C26   S    
C1    C24   S    
C21   C26   S    
