data_mof_unit_38146.cif
_audit_creation_date              2012-12-11T16:22:03-0500
_audit_creation_method            fapswitch 2.2
_symmetry_space_group_name_H-M    P1
_symmetry_Int_Tables_number       1
_space_group_crystal_system       triclinic
_cell_length_a                    13.498427
_cell_length_b                    14.013007
_cell_length_c                    30.066313
_cell_angle_alpha                 97.705723
_cell_angle_beta                  90.792846
_cell_angle_gamma                 118.823961
_cell_volume                      4917.33248993

loop_
_atom_site_label
_atom_site_type_symbol
_atom_type_description
_atom_site_fract_x
_atom_site_fract_y
_atom_site_fract_z
_atom_type_partial_charge
C1    C     C_R   0.720720 0.098972 0.569467 0.549454
C2    C     C_R   0.353745 0.678471 0.677614 0.034283
C3    C     C_R   0.254688 0.648076 0.650691 -0.103548
C4    C     C_R   0.260941 0.675117 0.607391 0.234042
C5    C     C_R   0.268087 0.683465 0.836192 0.025123
C6    C     C_R   0.251837 0.659088 0.880600 0.237368
C7    C     C_R   0.374461 0.576192 0.871393 -0.157913
C8    C     C_R   0.390066 0.599665 0.827968 -0.119777
C9    C     C_R   0.334253 0.648900 0.809779 0.016568
C10   C     C_1   0.341557 0.657808 0.763019 0.019337
C11   C     C_1   0.346537 0.665292 0.723853 0.065944
C12   C     C_R   0.383892 0.788087 0.550866 0.574056
C13   C     C_R   0.301395 0.600364 0.897466 0.030814
C14   C     C_3   0.231618 0.113836 0.724856 0.016045
C15   C     C_3   0.250113 0.044143 0.756446 -0.062881
C16   C     C_1   0.299052 0.192384 0.877725 0.019426
C17   C     C_1   0.372333 0.129906 0.615611 0.001904
C18   C     C_3   0.301184 0.219735 0.759558 -0.085459
C19   C     C_3   0.321304 0.150310 0.790517 0.013034
C20   C     C_3   0.410925 0.239521 0.737435 -0.169710
C21   C     C_3   0.340292 0.134432 0.702839 0.061561
C22   C     C_3   0.430999 0.170216 0.768943 -0.105637
C23   C     C_R   0.398894 0.117805 0.570137 0.542395
C24   C     C_3   0.359732 0.065272 0.733895 0.251828
C25   C     C_1   0.309861 0.168314 0.838814 -0.023238
C26   C     C_1   0.355835 0.132986 0.654815 -0.021877
C27   C     C_3   0.893174 0.276827 0.736300 -0.071781
C28   C     C_3   0.798076 0.257202 0.767929 -0.018726
C29   C     C_1   0.887633 0.203196 0.879822 0.030805
C30   C     C_1   0.766699 0.131590 0.615534 0.002829
C31   C     C_3   0.925600 0.206259 0.761932 0.250134
C32   C     C_3   0.831216 0.187307 0.793160 0.042251
C33   C     C_3   0.843386 0.100138 0.729753 -0.073648
C34   C     C_R   0.718895 0.095083 0.442446 0.538460
C35   C     C_3   0.809285 0.170208 0.704710 0.003524
C36   C     C_3   0.747781 0.081591 0.761215 -0.100050
C37   C     C_3   0.713102 0.151639 0.735536 -0.090655
C38   C     C_1   0.854585 0.194385 0.841407 -0.000370
C39   C     C_1   0.791562 0.152865 0.655578 -0.033954
C40   C     C_3   0.239453 0.625267 0.257729 0.260972
C41   C     C_3   0.291141 0.718321 0.229089 0.301789
C42   C     C_1   0.311494 0.607621 0.111385 0.029784
C43   C     C_1   0.363771 0.734269 0.378708 0.022174
C44   C     C_3   0.290924 0.562875 0.229354 -0.027564
C45   C     C_R   0.381400 0.783670 0.424663 0.544029
C46   C     C_3   0.343024 0.656585 0.200730 -0.011846
C47   C     C_3   0.400811 0.621914 0.262030 -0.179871
C48   C     C_3   0.348496 0.684635 0.289881 -0.005424
C49   C     C_3   0.452058 0.716269 0.233251 -0.020946
C50   C     C_3   0.400124 0.778527 0.261582 0.247489
C51   C     C_1   0.331344 0.635558 0.151499 -0.000138
C52   C     C_1   0.354420 0.705872 0.338783 0.018253
C53   C     C_R   0.355702 0.126949 0.399036 0.012220
C54   C     C_R   0.393206 0.230607 0.384494 0.002603
C55   C     C_R   0.381348 0.232262 0.338078 -0.065540
C56   C     C_R   0.394985 0.114485 0.442968 0.521828
C57   C     C_R   0.326100 0.133907 0.307475 0.044615
C58   C     C_R   0.277719 0.032769 0.322504 -0.074611
C59   C     C_R   0.292588 0.029160 0.367826 -0.121194
C60   C     C_R   0.247833 0.073110 0.141524 -0.003195
C61   C     C_R   0.246180 0.096361 0.097467 0.188139
C62   C     C_R   0.420048 0.272852 0.118576 0.192764
C63   C     C_R   0.427108 0.246331 0.161670 -0.004020
C64   C     C_R   0.335786 0.151434 0.173956 -0.022325
C65   C     C_1   0.329027 0.140392 0.220757 -0.003543
C66   C     C_1   0.325805 0.136409 0.260267 0.020560
C67   C     C_R   0.368306 0.734180 0.591057 -0.005502
C68   C     C_R   0.323362 0.202027 0.087621 0.018919
C69   C     C_R   0.762061 0.127068 0.399010 -0.005121
C70   C     C_R   0.841938 0.102673 0.377399 -0.014139
C71   C     C_R   0.859811 0.119810 0.332467 -0.155185
C72   C     C_R   0.801450 0.161619 0.309902 0.046541
C73   C     C_R   0.728080 0.191368 0.332096 0.291558
C74   C     C_R   0.709112 0.174370 0.376134 -0.077100
C75   C     C_R   0.857789 0.286081 0.162410 0.254533
C76   C     C_R   0.889929 0.298840 0.118717 -0.092465
C77   C     C_R   0.853457 0.109473 0.104903 -0.132166
C78   C     C_R   0.466501 0.756674 0.617402 -0.120884
C79   C     C_R   0.822592 0.097035 0.148441 -0.172743
C80   C     C_R   0.829166 0.186298 0.177708 0.035720
C81   C     C_1   0.819070 0.177575 0.224258 0.065379
C82   C     C_1   0.812882 0.170163 0.263380 0.075893
C83   C     C_R   0.892879 0.212145 0.090422 -0.021565
C84   C     C_R   0.283965 0.231851 0.922192 0.559655
C85   C     C_R   0.266492 0.548307 0.938288 0.578026
C86   C     C_R   0.943521 0.221667 0.923282 0.551156
C87   C     C_R   0.294692 0.242016 0.048460 0.588112
C88   C     C_R   0.275858 0.558739 0.065196 0.549672
C89   C     C_R   0.459788 0.730082 0.660562 0.263276
C90   C     C_R   0.953116 0.232169 0.049484 0.534898
Cr1   Cr    Cr6+3 0.583430 0.162610 0.509470 1.046280
Cr2   Cr    Cr6+3 0.584210 0.916680 0.495400 1.019676
Cr3   Cr    Cr6+3 0.332380 0.920740 0.495100 1.073350
Cr4   Cr    Cr6+3 0.086810 0.177030 0.983130 1.109608
Cr5   Cr    Cr6+3 0.337180 0.419300 0.994610 1.082437
Cr6   Cr    Cr6+3 0.084840 0.422330 0.995830 1.098676
H1    H     H_    0.512312 0.191455 0.787462 0.121083
H2    H     H_    0.475841 0.320147 0.729234 0.121691
H3    H     H_    0.281813 0.287151 0.770452 0.188375
H4    H     H_    0.953485 0.356438 0.725800 0.121092
H5    H     H_    0.625858 0.130983 0.723795 0.178608
H6    H     H_    0.687817 0.001953 0.771770 0.179548
H7    H     H_    0.862512 0.035774 0.713729 0.134554
H8    H     H_    0.444351 0.581395 0.276219 0.111371
H9    H     H_    0.234158 0.956362 0.298841 0.182993
H10   H     H_    0.172697 0.606901 0.663982 0.141930
H11   H     H_    0.261106 0.948658 0.377736 0.160524
H12   H     H_    0.417241 0.310193 0.325536 0.108162
H13   H     H_    0.918932 0.378200 0.108006 0.175485
H14   H     H_    0.647319 0.193326 0.391638 0.173042
H15   H     H_    0.799733 0.019613 0.160025 0.111171
H16   H     H_    0.853588 0.040683 0.083674 0.161275
H17   H     H_    0.917881 0.098805 0.314785 0.103056
H18   H     H_    0.549977 0.801751 0.605805 0.171417
H19   H     H_    0.442030 0.574664 0.807744 0.135849
H20   H     H_    0.414238 0.532099 0.883353 0.149722
H21   H     H_    0.184702 0.964011 0.764856 0.114102
O1    O     O_R   0.493980 0.188910 0.559650 -0.506562
O2    O     O_R   0.480180 0.824400 0.444640 -0.501072
O3    O     O_R   0.308310 0.808540 0.439800 -0.494108
O4    O     O_R   0.340740 0.020600 0.455570 -0.506883
O5    O     O_3   0.500010 0.000010 0.499990 -0.251657
O6    O     O_R   0.969650 0.150960 0.933380 -0.493600
O7    O     O_R   0.187740 0.180870 0.937580 -0.473710
O8    O     O_R   0.358510 0.327410 0.940870 -0.511267
O9    O     O_R   0.324180 0.507870 0.953930 -0.517972
O10   O     O_R   0.170560 0.527890 0.952050 -0.435372
O11   O     O_R   0.987620 0.318470 0.945550 -0.489985
O12   O     O_R   0.678640 0.153520 0.554450 -0.484554
O13   O     O_R   0.976400 0.159270 0.031530 -0.500449
O14   O     O_R   0.194000 0.188570 0.028560 -0.452182
O15   O     O_R   0.365260 0.335720 0.039020 -0.444817
O16   O     O_R   0.330440 0.515580 0.044910 -0.490268
O17   O     O_R   0.177310 0.536200 0.050190 -0.483425
O18   O     O_R   0.993870 0.326170 0.036530 -0.504794
O19   O     O_3   0.169610 0.339550 0.991190 -0.282718
O20   O     O_R   0.698130 0.004030 0.549500 -0.513318
O21   O     O_R   0.481060 0.827210 0.535360 -0.523512
O22   O     O_R   0.309260 0.811560 0.537660 -0.434482
O23   O     O_R   0.341620 0.023400 0.546290 -0.489830
O24   O     O_R   0.493030 0.185890 0.461780 -0.520970
O25   O     O_R   0.677760 0.150720 0.463730 -0.499750
O26   O     O_R   0.697180 0.001010 0.451640 -0.516852
Cl1   Cl    Cl    0.169351 0.701589 0.914463 -0.565780
C91   C     C_3   0.115940 0.077703 0.700429 -0.250646
C92   C     C_3   0.075170 0.971436 0.666283 -0.308118
C93   C     C_3   0.953533 0.927377 0.646509 -0.434083
H22   H     H_    0.893894 0.898142 0.672893 0.181207
H23   H     H_    0.944944 0.992439 0.632223 0.159054
H24   H     H_    0.930429 0.856502 0.619210 0.175041
H25   H     H_    0.130805 0.987800 0.638238 0.186798
H26   H     H_    0.078990 0.906740 0.682799 0.185167
H27   H     H_    0.054042 0.062706 0.726093 0.195470
H28   H     H_    0.121842 0.145100 0.682995 0.167026
Cl2   Cl    Cl    0.394803 0.959624 0.716162 -0.663271
C94   C     C_3   0.774582 0.346984 0.791197 -0.255693
C95   C     C_3   0.741408 0.400056 0.756711 -0.308386
C96   C     C_3   0.711573 0.485326 0.779983 -0.445660
H29   H     H_    0.637789 0.445429 0.799950 0.157519
H30   H     H_    0.785183 0.551416 0.802651 0.169705
H31   H     H_    0.689007 0.523209 0.754248 0.164049
H32   H     H_    0.813174 0.441143 0.735939 0.166678
H33   H     H_    0.667022 0.335595 0.733926 0.168255
H34   H     H_    0.705473 0.309969 0.813479 0.147239
H35   H     H_    0.852344 0.410893 0.812497 0.162354
C97   C     C_3   0.211402 0.741061 0.816136 -0.227341
C98   C     C_3   0.093899 0.656629 0.792501 -0.293336
C99   C     C_3   0.041086 0.712731 0.768441 -0.451412
H36   H     H_    0.031662 0.774057 0.792897 0.168391
H37   H     H_    0.094949 0.754777 0.742034 0.173334
H38   H     H_    0.955905 0.649990 0.752041 0.151033
H39   H     H_    0.101030 0.595053 0.767256 0.164587
H40   H     H_    0.036925 0.612089 0.817711 0.200631
H41   H     H_    0.203655 0.800270 0.842365 0.200408
H42   H     H_    0.265420 0.792301 0.791747 0.175450
Cl3   Cl    Cl    0.067155 0.248448 0.782071 -0.704729
Cl4   Cl    Cl    0.218093 0.781211 0.207084 -0.561939
Cl5   Cl    Cl    0.099441 0.568802 0.275297 -0.496805
Cl6   Cl    Cl    0.467849 0.922504 0.283390 -0.579337
C100  C     C_3   0.573814 0.767486 0.219841 -0.231644
C101  C     C_3   0.660057 0.816381 0.261588 -0.284434
C102  C     C_3   0.781041 0.858467 0.248544 -0.459962
H43   H     H_    0.789675 0.789354 0.229851 0.167202
H44   H     H_    0.803368 0.924062 0.227432 0.144872
H45   H     H_    0.841039 0.893514 0.279429 0.146405
H46   H     H_    0.654762 0.886126 0.281534 0.221727
H47   H     H_    0.641293 0.752689 0.283388 0.159993
H48   H     H_    0.584207 0.702149 0.198598 0.154002
H49   H     H_    0.588319 0.833166 0.199617 0.174295
C103  C     C_3   0.228603 0.440036 0.209671 -0.229774
C104  C     C_3   0.195592 0.367712 0.246740 -0.282156
C105  C     C_3   0.131077 0.245791 0.226484 -0.462376
H50   H     H_    0.050081 0.225786 0.208003 0.163192
H51   H     H_    0.182584 0.225431 0.202673 0.158351
H52   H     H_    0.112117 0.194695 0.253689 0.135637
H53   H     H_    0.273072 0.384388 0.267180 0.142334
H54   H     H_    0.140916 0.386387 0.269457 0.223740
H55   H     H_    0.151206 0.421610 0.188634 0.185961
H56   H     H_    0.285000 0.421927 0.187691 0.137980
Cl7   Cl    Cl    0.149635 0.990311 0.054328 -0.566634
C106  C     C_3   0.154638 0.965352 0.153423 -0.191147
C107  C     C_3   0.040960 0.965352 0.155812 -0.312942
C108  C     C_3   0.942652 0.848822 0.154859 -0.412934
H57   H     H_    0.937537 0.794758 0.123303 0.207606
H58   H     H_    0.954212 0.813793 0.184273 0.187577
H59   H     H_    0.861653 0.851085 0.155982 0.135027
H60   H     H_    0.043788 0.017787 0.187493 0.143065
H61   H     H_    0.024276 0.999698 0.127185 0.210013
H62   H     H_    0.146168 0.895593 0.128194 0.230641
H63   H     H_    0.176509 0.949397 0.186262 0.197249
C109  C     C_3   0.446564 0.339465 0.416653 -0.253419
C110  C     C_3   0.381962 0.403621 0.412322 -0.322494
C111  C     C_3   0.431257 0.508949 0.447031 -0.431566
H64   H     H_    0.424126 0.488744 0.481736 0.160633
H65   H     H_    0.521922 0.563722 0.442391 0.158466
H66   H     H_    0.383604 0.553759 0.442734 0.155111
H67   H     H_    0.386889 0.427129 0.378253 0.155320
H68   H     H_    0.291048 0.351117 0.417332 0.166610
H69   H     H_    0.446591 0.326375 0.452171 0.170401
H70   H     H_    0.536131 0.390169 0.409343 0.169651
C112  C     C_3   0.530399 0.321140 0.195131 -0.188967
C113  C     C_3   0.518741 0.416335 0.221455 -0.310861
C114  C     C_3   0.624069 0.492618 0.253823 -0.408185
H71   H     H_    0.636682 0.446240 0.278480 0.217556
H72   H     H_    0.700411 0.529232 0.234885 0.213390
H73   H     H_    0.613640 0.560458 0.272598 0.119559
H74   H     H_    0.506530 0.465215 0.197875 0.202347
H75   H     H_    0.443510 0.382601 0.241121 0.147254
H76   H     H_    0.542689 0.273235 0.219165 0.206746
H77   H     H_    0.609181 0.353805 0.177503 0.235958
Cl8   Cl    Cl    0.533823 0.395682 0.104679 -0.590627
Cl9   Cl    Cl    0.860780 0.398169 0.197937 -0.514126
Cl10  Cl    Cl    0.653462 0.244875 0.304946 -0.582831
C115  C     C_3   0.909582 0.059779 0.400437 -0.246735
C116  C     C_3   0.035942 0.146401 0.408563 -0.309809
C117  C     C_3   0.101642 0.106728 0.435564 -0.442153
H78   H     H_    0.066240 0.088689 0.468455 0.157984
H79   H     H_    0.097312 0.031112 0.416410 0.162625
H80   H     H_    0.191816 0.171944 0.442306 0.143335
H81   H     H_    0.073122 0.163594 0.375882 0.161384
H82   H     H_    0.045606 0.224531 0.427651 0.177279
H83   H     H_    0.879417 0.037147 0.433414 0.178079
H84   H     H_    0.899090 0.983737 0.379063 0.143763
Cl11  Cl    Cl    0.132480 0.634889 0.575612 -0.582758
Cl12  Cl    Cl    0.586589 0.769995 0.693569 -0.641042

loop_
_geom_bond_atom_site_label_1
_geom_bond_atom_site_label_2
_ccdc_geom_bond_type
C7    H20   S    
C7    C13   A    
C21   C26   S    
C103  C104  S    
C16   C25   T    
C77   H16   S    
C106  C107  S    
C14   C18   S    
C114  H71   S    
C61   C68   A    
C16   C84   S    
C57   C66   S    
C108  H57   S    
Cr2   O21   S    
C23   O1    A    
C91   C92   S    
C101  H47   S    
C114  H73   S    
C7    C8    A    
Cr6   O19   S    
C53   C54   A    
C94   H35   S    
C15   C19   S    
C109  H70   S    
C108  H58   S    
C14   C91   S    
Cr6   O11   S    
C97   H42   S    
C17   C23   S    
C17   C26   T    
C32   C36   S    
C14   C21   S    
C41   Cl4   S    
C94   C95   S    
C35   C37   S    
Cr2   O2    S    
Cr3   O4    S    
C88   O16   A    
C1    O12   A    
C100  H49   S    
C1    C30   S    
C70   C115  S    
C5    C6    A    
C80   C81   S    
C43   C52   T    
C111  H66   S    
C110  H67   S    
C2    C11   S    
Cr5   O16   S    
C33   C36   S    
C117  H78   S    
C71   H17   S    
C36   H6    S    
C18   C19   S    
C73   C74   A    
C87   O14   A    
Cr2   O26   S    
C63   C112  S    
C104  H53   S    
C116  H82   S    
C93   H22   S    
C100  H48   S    
C8    H19   S    
C44   C103  S    
C102  H43   S    
C95   C96   S    
C34   O25   A    
C47   C48   S    
C28   C37   S    
C8    C9    A    
Cr1   O5    S    
C29   C38   T    
Cr4   O19   S    
C116  C117  S    
C31   C33   S    
C70   C71   A    
Cr3   O3    S    
C32   C38   S    
C92   H25   S    
C75   C80   A    
C95   H33   S    
C73   Cl10  S    
C96   H31   S    
C24   Cl2   S    
C42   C51   T    
C98   H40   S    
C49   C100  S    
C91   H27   S    
Cr4   O6    S    
C45   O2    A    
C22   C24   S    
C48   C50   S    
C78   C89   A    
C22   H1    S    
C107  H61   S    
C96   H30   S    
C85   O9    A    
C78   H18   S    
C67   C78   A    
C89   Cl12  S    
Cr2   O20   S    
C61   Cl7   S    
C106  H62   S    
C108  H59   S    
C44   C46   S    
C103  H56   S    
C81   C82   T    
Cr6   O18   S    
C102  H44   S    
C31   Cl3   S    
C111  H65   S    
C3    H10   S    
C53   C59   A    
C27   H4    S    
C12   C67   S    
C34   O26   A    
C97   H41   S    
C112  H76   S    
C107  C108  S    
C27   C31   S    
C104  C105  S    
C105  H52   S    
C23   O23   A    
C28   C32   S    
C93   H24   S    
C77   C79   A    
Cr3   O5    S    
C47   C49   S    
C98   C99   S    
C76   H13   S    
C12   O21   A    
Cr6   O17   S    
C27   C35   S    
C58   C59   A    
C101  C102  S    
C86   O11   A    
C46   C51   S    
C59   H11   S    
C63   C64   A    
Cr6   O10   S    
C60   C61   A    
C102  H45   S    
C105  H51   S    
C87   O15   A    
C112  H77   S    
C2    C89   A    
C35   C39   S    
C75   C76   A    
C5    C9    A    
C112  C113  S    
Cr3   O22   S    
Cr2   O5    S    
Cr5   O8    S    
C109  C110  S    
C46   C49   S    
C48   C52   S    
C41   C46   S    
C113  H75   S    
C19   C22   S    
C62   C63   A    
C114  H72   S    
C12   O22   A    
C69   C74   A    
C15   C24   S    
C5    C97   S    
C20   C21   S    
C43   C45   S    
C34   C69   S    
C29   C86   S    
C115  H83   S    
C40   Cl5   S    
C91   H28   S    
C45   O3    A    
C69   C70   A    
C40   C41   S    
C20   C22   S    
C62   Cl8   S    
C107  H60   S    
C55   C57   A    
C96   H29   S    
C92   H26   S    
C85   O10   A    
C42   C88   S    
C18   H3    S    
C56   O24   A    
C6    Cl1   S    
C3    C4    A    
Cr4   O13   S    
C76   C83   A    
C41   C50   S    
C86   O6    A    
C1    O20   A    
C100  C101  S    
C103  H55   S    
C92   C93   S    
C9    C10   S    
C53   C56   S    
C84   O8    A    
C40   C48   S    
C83   C90   S    
C54   C55   A    
C99   H36   S    
C47   H8    S    
C93   H23   S    
C33   H7    S    
C31   C32   S    
C104  H54   S    
C72   C73   A    
C74   H14   S    
C4    C67   A    
C101  H46   S    
C44   C47   S    
C98   H39   S    
Cr1   O12   S    
C79   H15   S    
C84   O7    A    
C109  H69   S    
C115  H84   S    
Cr4   O14   S    
C117  H80   S    
C62   C68   A    
C55   H12   S    
C60   C64   A    
C58   H9    S    
C56   O4    A    
Cr1   O25   S    
C2    C3    A    
C106  H63   S    
C88   O17   A    
C71   C72   A    
Cr3   O23   S    
C105  H50   S    
C6    C13   A    
C37   H5    S    
C90   O18   A    
Cr5   O9    S    
C57   C58   A    
Cr5   O15   S    
C97   C98   S    
C110  H68   S    
C113  H74   S    
C111  H64   S    
C95   H32   S    
C64   C65   S    
C99   H37   S    
Cr5   O19   S    
C33   C35   S    
C117  H79   S    
C30   C39   T    
C50   Cl6   S    
C18   C20   S    
C65   C66   T    
C54   C109  S    
C75   Cl9   S    
C19   C25   S    
Cr1   O1    S    
C10   C11   T    
C79   C80   A    
C90   O13   A    
C15   H21   S    
C60   C106  S    
C40   C44   S    
C20   H2    S    
C110  C111  S    
C94   H34   S    
C36   C37   S    
C49   C50   S    
C115  C116  S    
C21   C24   S    
C13   C85   S    
C27   C28   S    
C28   C94   S    
C68   C87   S    
C77   C83   A    
C14   C15   S    
C99   H38   S    
C113  C114  S    
C4    Cl11  S    
C116  H81   S    
C72   C82   S    
Cr1   O24   S    
Cr4   O7    S    
