data_mof_unit_30599.cif
_audit_creation_date              2012-12-10T18:57:13-0500
_audit_creation_method            fapswitch 2.2
_symmetry_space_group_name_H-M    P1
_symmetry_Int_Tables_number       1
_space_group_crystal_system       triclinic
_cell_length_a                    8.727309
_cell_length_b                    10.856882
_cell_length_c                    9.560127
_cell_angle_alpha                 90.91739
_cell_angle_beta                  97.685335
_cell_angle_gamma                 90.539417
_cell_volume                      897.522269497

loop_
_atom_site_label
_atom_site_type_symbol
_atom_type_description
_atom_site_fract_x
_atom_site_fract_y
_atom_site_fract_z
_atom_type_partial_charge
C1    C     C_R   0.495558 0.262529 0.498386 0.794637
C2    C     C_R   0.625587 0.542902 0.942121 0.213455
C3    C     C_3   0.690594 0.669184 0.941876 -0.511297
C4    C     C_R   0.204003 0.497829 0.464035 0.884809
C5    C     C_3   0.684958 0.675457 0.099733 -0.089390
C6    C     C_R   0.497016 0.737949 0.500304 0.794939
C7    C     C_R   0.796052 0.499636 0.536099 0.879143
C8    C     C_2   0.038360 0.492054 0.444733 -0.378332
C9    C     C_2   0.961896 0.500975 0.556188 -0.376410
C10   C     C_R   0.458336 0.066752 0.616245 0.126327
C11   C     C_R   0.477342 0.129781 0.493929 -0.096001
C12   C     C_R   0.475201 0.933880 0.368679 -0.212664
C13   C     C_R   0.473880 0.062426 0.366893 -0.221867
C14   C     C_3   0.844684 0.692514 0.185469 -0.816843
C15   C     C_R   0.480770 0.871420 0.497473 -0.095848
C16   C     C_R   0.459885 0.939891 0.618484 0.128790
C17   C     C_3   0.547141 0.941352 0.764087 -0.499922
C18   C     C_3   0.544245 0.080611 0.761056 -0.448201
C19   C     C_R   0.624945 0.545126 0.089805 0.265300
C20   C     C_R   0.384086 0.444679 0.059150 -0.094503
C21   C     C_R   0.383886 0.444943 0.910443 -0.083071
Cu1   Cu    Cu3+1 0.499990 0.499980 0.640670 0.935951
Cu2   Cu    Cu3+1 0.500010 0.500020 0.359330 0.936033
H1    H     H_    0.978976 0.479429 0.338224 0.173770
H2    H     H_    0.835290 0.689131 0.299777 0.253641
H3    H     H_    0.925812 0.621000 0.156944 0.227617
H4    H     H_    0.892271 0.784419 0.163822 0.232850
H5    H     H_    0.598700 0.742161 0.129542 0.175551
H6    H     H_    0.021291 0.511069 0.663288 0.170155
H7    H     H_    0.476342 0.904251 0.842522 0.193547
H8    H     H_    0.471985 0.122029 0.836472 0.195754
H9    H     H_    0.288504 0.402017 0.842622 0.139269
H10   H     H_    0.808378 0.670129 0.909510 0.200478
H11   H     H_    0.607339 0.730485 0.882558 0.200129
H12   H     H_    0.478722 0.108328 0.267791 0.165367
H13   H     H_    0.479523 0.884447 0.270234 0.157217
H14   H     H_    0.665895 0.904303 0.767097 0.200290
H15   H     H_    0.660717 0.123442 0.762306 0.201605
H16   H     H_    0.288977 0.401399 0.102172 0.141773
N1    N     N_R   0.500980 0.500930 0.148050 -0.201805
N2    N     N_R   0.500990 0.500890 0.852140 -0.184861
O1    O     O_R   0.500000 0.319640 0.618810 -0.582503
O2    O     O_R   0.500020 0.319680 0.381230 -0.587123
O3    O     O_R   0.274830 0.499980 0.591380 -0.582154
O4    O     O_R   0.274850 0.500020 0.353800 -0.594137
O5    O     O_R   0.499980 0.680320 0.618770 -0.580717
O6    O     O_R   0.500000 0.680360 0.381190 -0.589214
O7    O     O_R   0.725150 0.499980 0.646200 -0.586874
O8    O     O_R   0.725170 0.500020 0.408620 -0.574657

loop_
_geom_bond_atom_site_label_1
_geom_bond_atom_site_label_2
_ccdc_geom_bond_type
Cu1   O7    S    
C5    C19   S    
C14   H4    S    
C12   H13   S    
C5    H5    S    
C4    O3    A    
C1    C11   S    
C12   C15   A    
C9    H6    S    
C4    C8    S    
C10   C11   A    
C7    O7    A    
C2    C3    S    
C18   H15   S    
C10   C16   A    
C14   H3    S    
C17   H7    S    
C11   C13   A    
C5    C14   S    
Cu1   O1    S    
C10   C18   S    
Cu2   O4    S    
C8    H1    S    
C13   H12   S    
C4    O4    A    
C14   H2    S    
C20   N1    A    
C21   H9    S    
C21   N2    A    
Cu2   O8    S    
Cu1   N2    S    
Cu2   O6    S    
C19   N1    A    
C3    H10   S    
C2    N2    A    
C15   C16   A    
Cu1   O5    S    
C1    O1    A    
Cu2   O2    S    
C20   C21   A    
C7    O8    A    
C17   C18   S    
C6    O6    A    
C7    C9    S    
C20   H16   S    
Cu1   Cu2   S    
C16   C17   S    
C17   H14   S    
C18   H8    S    
C6    O5    A    
C3    H11   S    
C12   C13   A    
C6    C15   S    
C2    C19   A    
C1    O2    A    
Cu1   O3    S    
Cu2   N1    S    
C8    C9    D    
C3    C5    S    
