data_mof_unit_56925.cif
_audit_creation_date              2012-12-10T17:22:09-0500
_audit_creation_method            fapswitch 2.2
_symmetry_space_group_name_H-M    P1
_symmetry_Int_Tables_number       1
_space_group_crystal_system       triclinic
_cell_length_a                    15.888682
_cell_length_b                    10.846697
_cell_length_c                    9.621234
_cell_angle_alpha                 91.09591
_cell_angle_beta                  90.716135
_cell_angle_gamma                 93.542323
_cell_volume                      1654.49459749

loop_
_atom_site_label
_atom_site_type_symbol
_atom_type_description
_atom_site_fract_x
_atom_site_fract_y
_atom_site_fract_z
_atom_type_partial_charge
C1    C     C_R   0.507309 0.263463 0.499749 0.798191
C2    C     C_3   0.949595 0.434988 0.622321 0.277243
C3    C     C_3   0.916587 0.500996 0.491835 -0.146478
C4    C     C_3   0.957554 0.635515 0.498389 0.455554
C5    C     C_3   0.054884 0.634959 0.492787 0.351864
C6    C     C_1   0.824511 0.501445 0.498573 0.115988
C7    C     C_1   0.175326 0.499842 0.493309 0.153088
C8    C     C_1   0.250818 0.499630 0.496851 -0.105454
C9    C     C_R   0.566712 0.126509 0.746966 -0.217708
C10   C     C_R   0.563455 0.069174 0.875251 0.550452
C11   C     C_R   0.517436 0.956844 0.887884 -0.307663
C12   C     C_R   0.340403 0.499473 0.499231 0.833891
C13   C     C_R   0.484111 0.894329 0.769448 0.560832
C14   C     C_R   0.500307 0.942205 0.635120 -0.035844
C15   C     C_R   0.528146 0.067775 0.627759 -0.050860
C16   C     C_R   0.516092 0.129809 0.501402 -0.049486
C17   C     C_R   0.500592 0.061296 0.378609 -0.173398
C18   C     C_R   0.491582 0.933934 0.381118 -0.190692
C19   C     C_R   0.491116 0.872325 0.507970 -0.057625
C20   C     C_R   0.614372 0.663831 0.149105 -0.116029
C21   C     C_R   0.670558 0.743012 0.079309 -0.198540
C22   C     C_R   0.670502 0.742426 0.935993 -0.190078
C23   C     C_R   0.495075 0.737438 0.502096 0.797352
C24   C     C_R   0.614196 0.662719 0.861513 -0.073426
C25   C     C_R   0.556480 0.579533 0.928149 0.118683
C26   C     C_R   0.556367 0.579992 0.077508 0.162817
C27   C     C_R   0.445092 0.423109 0.068457 0.106162
C28   C     C_R   0.444753 0.426878 0.920674 0.717620
C29   C     C_R   0.659563 0.500692 0.500666 0.769826
C30   C     C_3   0.047242 0.433686 0.619139 0.328893
C31   C     C_3   0.045556 0.429341 0.353179 0.550179
C32   C     C_3   0.945484 0.425993 0.360374 -0.164615
C33   C     C_1   0.749082 0.501212 0.501474 -0.157192
C34   C     C_3   0.082867 0.499968 0.487615 -0.195144
Cu1   Cu    Cu3+1 0.499990 0.499990 0.640660 1.042883
Cu2   Cu    Cu3+1 0.500010 0.500010 0.359340 0.948284
H1    H     H_    0.922249 0.338009 0.623970 0.101478
H2    H     H_    0.496103 0.106114 0.280045 0.187737
H3    H     H_    0.601235 0.215357 0.741348 0.189290
H4    H     H_    0.507447 0.917951 0.989629 0.185679
H5    H     H_    0.484083 0.883818 0.282798 0.174938
H6    H     H_    0.065157 0.336113 0.618505 0.157492
H7    H     H_    0.619068 0.673116 0.259015 0.195221
H8    H     H_    0.714157 0.805912 0.137191 0.181650
H9    H     H_    0.713777 0.805204 0.881824 0.168056
H10   H     H_    0.617627 0.671455 0.751962 0.183336
H11   H     H_    0.927939 0.328046 0.386584 0.173255
H12   H     H_    0.081947 0.682779 0.588133 0.153696
H13   H     H_    0.940664 0.679843 0.598706 0.133763
N1    N     N_R   0.500800 0.501210 0.147910 -0.235972
N2    N     N_R   0.500820 0.501290 0.852040 -0.251677
O1    O     O_R   0.499990 0.319640 0.618810 -0.543664
O2    O     O_R   0.500000 0.319660 0.381240 -0.590721
O3    O     O_R   0.379430 0.499990 0.618840 -0.475181
O4    O     O_R   0.379440 0.500020 0.381260 -0.612651
O5    O     O_R   0.500000 0.680340 0.618760 -0.546771
O6    O     O_R   0.500010 0.680360 0.381190 -0.611546
O7    O     O_R   0.620560 0.499980 0.618740 -0.603400
O8    O     O_R   0.620570 0.500010 0.381160 -0.588105
F1    F     F_    0.082238 0.489894 0.739082 -0.617853
F2    F     F_    0.924218 0.492629 0.743579 -0.613742
F3    F     F_    0.927027 0.709230 0.396299 -0.627631
F4    F     F_    0.600838 0.126072 0.988761 -0.672829
F5    F     F_    0.428093 0.796893 0.789311 -0.631263
C35   C     C_3   0.379426 0.333415 0.131479 -0.320949
C36   C     C_3   0.386868 0.199390 0.082003 -0.770033
H14   H     H_    0.353860 0.180547 0.980931 0.302381
H15   H     H_    0.453902 0.179032 0.071282 0.275496
H16   H     H_    0.356923 0.135250 0.158154 0.233416
H17   H     H_    0.382667 0.331869 0.244231 0.253566
H18   H     H_    0.315533 0.362349 0.104042 0.201478
F6    F     F_    0.386914 0.356530 0.844593 -0.648156
C37   C     C_3   0.084352 0.483066 0.215913 -0.261634
C38   C     C_3   0.103681 0.384416 0.106466 -0.658106
H19   H     H_    0.156577 0.330566 0.143226 0.259736
H20   H     H_    0.048459 0.319469 0.084026 0.262667
H21   H     H_    0.123060 0.429791 0.008459 0.277910
H22   H     H_    0.044142 0.550238 0.168551 0.231873
H23   H     H_    0.145347 0.535745 0.237212 0.215038
F7    F     F_    0.069083 0.308045 0.362146 -0.676664
C39   C     C_3   0.892957 0.434049 0.221735 -0.371447
C40   C     C_3   0.868583 0.560860 0.173039 -0.587941
H24   H     H_    0.821664 0.599680 0.243082 0.260985
H25   H     H_    0.923443 0.627479 0.162656 0.294760
H26   H     H_    0.837878 0.549609 0.068826 0.234220
H27   H     H_    0.924886 0.387891 0.135651 0.229780
H28   H     H_    0.832442 0.377991 0.233511 0.206700
F8    F     F_    0.085420 0.702030 0.381004 -0.617232

loop_
_geom_bond_atom_site_label_1
_geom_bond_atom_site_label_2
_ccdc_geom_bond_type
C36   H15   S    
C29   C33   S    
C37   C38   S    
C10   F4    S    
C3    C6    S    
C39   C40   S    
C7    C8    T    
C32   C39   S    
C38   H20   S    
Cu1   O7    S    
C26   N1    A    
C28   N2    A    
C31   C37   S    
C36   H16   S    
C15   C16   A    
C4    F3    S    
C9    H3    S    
C18   C19   A    
C1    O2    A    
Cu2   O2    S    
C5    F8    S    
C29   O8    A    
C16   C17   A    
C38   H21   S    
C30   F1    S    
C37   H22   S    
C9    C10   A    
C39   H27   S    
C2    F2    S    
Cu2   O8    S    
C36   H14   S    
C21   C22   A    
Cu1   O3    S    
C28   F6    S    
C5    H12   S    
C38   H19   S    
C30   C34   S    
C11   H4    S    
C23   O5    A    
C24   C25   A    
C31   F7    S    
Cu2   O6    S    
C18   H5    S    
C25   C26   A    
C35   H18   S    
Cu1   Cu2   S    
C19   C23   S    
C25   N2    A    
C27   C35   S    
C21   H8    S    
C31   C32   S    
C8    C12   S    
C5    C34   S    
C17   C18   A    
C37   H23   S    
C31   C34   S    
C1    C16   S    
C20   C21   A    
C39   H28   S    
C35   C36   S    
C40   H25   S    
Cu1   N2    S    
C32   H11   S    
C22   C24   A    
C3    C4    S    
Cu1   O1    S    
C20   H7    S    
Cu2   N1    S    
C23   O6    A    
Cu1   O5    S    
C14   C19   A    
C4    C5    S    
C27   N1    A    
C40   H26   S    
C6    C33   T    
C4    H13   S    
C2    C30   S    
C24   H10   S    
C2    C3    S    
C9    C15   A    
Cu2   O4    S    
C11   C13   A    
C2    H1    S    
C13   F5    S    
C20   C26   A    
C7    C34   S    
C17   H2    S    
C3    C32   S    
C1    O1    A    
C12   O4    A    
C10   C11   A    
C22   H9    S    
C29   O7    A    
C40   H24   S    
C27   C28   A    
C14   C15   A    
C30   H6    S    
C13   C14   A    
C12   O3    A    
C35   H17   S    
