data_mof_unit_51688.cif
_audit_creation_date              2012-12-10T16:51:17-0500
_audit_creation_method            fapswitch 2.2
_symmetry_space_group_name_H-M    P1
_symmetry_Int_Tables_number       1
_space_group_crystal_system       triclinic
_cell_length_a                    27.785801
_cell_length_b                    8.655469
_cell_length_c                    7.423467
_cell_angle_alpha                 103.179834
_cell_angle_beta                  93.891902
_cell_angle_gamma                 92.050277
_cell_volume                      1731.88593343

loop_
_atom_site_label
_atom_site_type_symbol
_atom_type_description
_atom_site_fract_x
_atom_site_fract_y
_atom_site_fract_z
_atom_type_partial_charge
C1    C     C_R   0.498551 0.199538 0.453019 0.893113
C2    C     C_R   0.501449 0.800462 0.546981 0.893113
C3    C     C_R   0.102021 0.492508 0.521903 -0.052861
C4    C     C_R   0.897979 0.507493 0.478097 -0.052861
C5    C     C_R   0.124847 0.365184 0.414340 -0.090319
C6    C     C_R   0.875153 0.634817 0.585660 -0.090318
C7    C     C_R   0.097100 0.232560 0.313485 -0.231933
C8    C     C_R   0.902900 0.767440 0.686515 -0.231933
C9    C     C_R   0.130637 0.617764 0.639603 0.004490
C10   C     C_R   0.869363 0.382237 0.360397 0.004490
C11   C     C_R   0.354743 0.501704 0.510380 -0.036964
C12   C     C_R   0.645257 0.498296 0.489620 -0.036964
C13   C     C_R   0.971430 0.374005 0.378376 0.069008
C14   C     C_R   0.028570 0.625996 0.621623 0.069008
C15   C     C_R   0.977486 0.636570 0.601608 -0.067847
C16   C     C_R   0.022514 0.363431 0.398392 -0.067847
C17   C     C_R   0.949221 0.505561 0.487399 -0.001855
C18   C     C_R   0.050779 0.494440 0.512601 -0.001855
C19   C     C_R   0.941553 0.262705 0.243983 -0.165460
C20   C     C_R   0.058447 0.737296 0.756017 -0.165460
C21   C     C_R   0.891598 0.263367 0.239857 -0.193477
C22   C     C_R   0.108402 0.736634 0.760143 -0.193477
C23   C     C_R   0.407509 0.500459 0.503141 0.799849
C24   C     C_R   0.592491 0.499541 0.496859 0.799850
C25   C     C_R   0.046726 0.223888 0.317811 0.463115
C26   C     C_R   0.953273 0.776113 0.682189 0.463115
C27   C     C_2   0.497847 0.031478 0.426548 -0.364125
C28   C     C_2   0.502153 0.968522 0.573452 -0.364125
C29   C     C_R   0.175448 0.369831 0.417109 0.566671
C30   C     C_R   0.824552 0.630170 0.582891 0.566671
C31   C     C_R   0.181128 0.618323 0.638342 0.538967
C32   C     C_R   0.818872 0.381678 0.361658 0.538967
C33   C     C_R   0.275050 0.507541 0.357465 -0.095426
C34   C     C_R   0.724950 0.492459 0.642535 -0.095426
C35   C     C_R   0.325034 0.507543 0.351375 -0.206733
C36   C     C_R   0.674966 0.492457 0.648624 -0.206733
C37   C     C_R   0.333554 0.496427 0.675686 -0.216332
C38   C     C_R   0.666446 0.503574 0.324314 -0.216331
C39   C     C_R   0.283479 0.495386 0.681102 -0.091869
C40   C     C_R   0.716521 0.504615 0.318898 -0.091869
C41   C     C_R   0.254034 0.500703 0.521931 0.345750
C42   C     C_R   0.745966 0.499298 0.478069 0.345750
Cu1   Cu    Cu3+1 0.505380 0.517380 0.684380 0.956212
Cu2   Cu    Cu3+1 0.494620 0.482620 0.315620 0.956212
H1    H     H_    0.355574 0.491483 0.800159 0.156123
H2    H     H_    0.644425 0.508518 0.199841 0.156123
H3    H     H_    0.462208 0.378515 0.948330 0.225212
H4    H     H_    0.537792 0.621485 0.051670 0.225212
H5    H     H_    0.267508 0.489142 0.808516 0.144211
H6    H     H_    0.732492 0.510859 0.191485 0.144211
H7    H     H_    0.114612 0.131402 0.236176 0.194833
H8    H     H_    0.885388 0.868599 0.763824 0.194833
H9    H     H_    0.659647 0.487588 0.777675 0.158207
H10   H     H_    0.340353 0.512412 0.222325 0.158207
H11   H     H_    0.747452 0.487693 0.765936 0.145910
H12   H     H_    0.252548 0.512307 0.234064 0.145910
H13   H     H_    0.870454 0.171877 0.138365 0.194489
H14   H     H_    0.129546 0.828124 0.861634 0.194489
H15   H     H_    0.955515 0.177455 0.133406 0.223612
H16   H     H_    0.044485 0.822546 0.866593 0.223613
H17   H     H_    0.493787 0.959323 0.285228 0.179881
H18   H     H_    0.506212 0.040677 0.714772 0.179881
N1    N     N_R   0.202450 0.496469 0.525857 -0.467782
N2    N     N_R   0.797550 0.503532 0.474143 -0.467782
N3    N     N_2   0.486510 0.456430 0.038510 -0.217641
N4    N     N_2   0.513490 0.543570 0.961490 -0.217641
O1    O     O_R   0.503500 0.286120 0.619780 -0.583927
O2    O     O_R   0.496500 0.713880 0.380220 -0.583927
O3    O     O_R   0.494410 0.256780 0.308360 -0.582543
O4    O     O_R   0.505590 0.743220 0.691640 -0.582543
O5    O     O_R   0.434810 0.514700 0.655690 -0.591650
O6    O     O_R   0.565190 0.485300 0.344310 -0.591650
O7    O     O_R   0.425720 0.485350 0.344280 -0.584240
O8    O     O_R   0.574280 0.514650 0.655720 -0.584240
O9    O     O_2   0.197561 0.247911 0.313549 -0.531564
O10   O     O_2   0.802439 0.752090 0.686451 -0.531564
O11   O     O_2   0.791360 0.259374 0.253377 -0.530757
O12   O     O_2   0.208640 0.740627 0.746623 -0.530757
O13   O     O_3   0.021262 0.079705 0.243553 -0.597402
C43   C     C_3   0.039662 0.956916 0.321162 -0.303099
H19   H     H_    0.050451 0.997432 0.472494 0.182770
H20   H     H_    0.070464 0.904024 0.245604 0.166618
H21   H     H_    0.010937 0.861161 0.304021 0.196763
O14   O     O_3   0.978738 0.920296 0.756447 -0.597402
C44   C     C_3   0.960338 0.043085 0.678838 -0.303099
H22   H     H_    0.929536 0.095977 0.754397 0.166618
H23   H     H_    0.949548 0.002569 0.527507 0.182770
H24   H     H_    0.989063 0.138840 0.695980 0.196763

loop_
_geom_bond_atom_site_label_1
_geom_bond_atom_site_label_2
_ccdc_geom_bond_type
C29   N1    A    
C30   N2    A    
C8    C26   A    
C14   C18   A    
C34   C42   A    
C39   C41   A    
C44   H22   S    
C3    C18   A    
C19   C21   A    
C2    O2    A    
C9    C22   A    
C14   C20   A    
C11   C37   A    
C36   H9    S    
C27   H17   S    
C33   C35   A    
C32   O11   S    
Cu1   O5    S    
C12   C36   A    
C8    H8    S    
C33   H12   S    
C40   C42   A    
C34   H11   S    
C35   H10   S    
Cu2   N3    S    
C23   O7    A    
C43   H21   S    
C5    C29   A    
C44   H23   S    
C10   C21   A    
C13   C19   A    
C31   N1    A    
O14   C44   S    
C32   N2    A    
C4    C6    A    
C5    C7    A    
C15   C26   A    
C6    C8    A    
C19   H15   S    
C1    O3    A    
Cu1   Cu2   S    
Cu1   O1    S    
C21   H13   S    
C3    C9    A    
C23   O5    A    
C30   O10   S    
Cu2   O3    S    
C4    C17   A    
C43   H20   S    
C39   H5    S    
C20   C22   A    
Cu1   O4    S    
Cu2   O2    S    
C20   H16   S    
C41   N1    S    
C4    C10   A    
C42   N2    S    
C24   O6    A    
C31   O12   S    
C44   H24   S    
C16   C25   A    
C15   C17   A    
C26   O14   S    
C6    C30   A    
C25   O13   S    
C43   H19   S    
C3    C5    A    
C22   H14   S    
C29   O9    S    
C12   C24   S    
C7    C25   A    
C13   C17   A    
C33   C41   A    
C11   C35   A    
C7    H7    S    
C37   C39   A    
C38   C40   A    
C24   O8    A    
Cu1   O8    S    
Cu1   N4    S    
C40   H6    S    
C11   C23   S    
C1    O1    A    
Cu2   O6    S    
C34   C36   A    
C12   C38   A    
Cu2   O7    S    
C38   H2    S    
C9    C31   A    
O13   C43   S    
C10   C32   A    
C16   C18   A    
N3    N4    D    
C13   C16   A    
C27   C28   D    
C1    C27   S    
C14   C15   A    
C2    C28   S    
H4    N4    S    
C2    O4    A    
C37   H1    S    
H3    N3    S    
C28   H18   S    
