data_mof_unit_67736.cif
_audit_creation_date              2012-12-10T19:48:35-0500
_audit_creation_method            fapswitch 2.2
_symmetry_space_group_name_H-M    P1
_symmetry_Int_Tables_number       1
_space_group_crystal_system       triclinic
_cell_length_a                    11.206959
_cell_length_b                    10.683247
_cell_length_c                    9.566384
_cell_angle_alpha                 90.128079
_cell_angle_beta                  91.066779
_cell_angle_gamma                 90.061659
_cell_volume                      1145.14959875

loop_
_atom_site_label
_atom_site_type_symbol
_atom_type_description
_atom_site_fract_x
_atom_site_fract_y
_atom_site_fract_z
_atom_type_partial_charge
C1    C     C_R   0.501628 0.259924 0.499777 0.776218
C2    C     C_R   0.498355 0.740076 0.500222 0.776194
C3    C     C_R   0.871796 0.502858 0.505226 -0.107553
C4    C     C_R   0.128207 0.497183 0.494782 -0.107688
C5    C     C_R   0.942488 0.464403 0.620114 0.051969
C6    C     C_R   0.057516 0.535666 0.379900 0.052000
C7    C     C_3   0.565595 0.041505 0.610206 -0.197576
C8    C     C_3   0.434366 0.958494 0.389791 -0.197571
C9    C     C_3   0.612507 0.956135 0.491940 -0.208714
C10   C     C_3   0.387449 0.043865 0.508054 -0.208660
C11   C     C_3   0.498030 0.877228 0.500863 -0.033253
C12   C     C_3   0.501930 0.122773 0.499133 -0.033261
C13   C     C_3   0.451600 0.961109 0.617910 0.161369
C14   C     C_3   0.548359 0.038893 0.382085 0.161348
C15   C     C_3   0.513562 0.611546 0.050061 -0.037985
C16   C     C_3   0.486438 0.388454 0.949939 -0.038019
C17   C     C_3   0.415116 0.568436 0.947480 -0.038788
C18   C     C_3   0.584884 0.431564 0.052520 -0.038772
C19   C     C_3   0.598407 0.543748 0.950668 0.020976
C20   C     C_3   0.401593 0.456253 0.049332 0.020959
C21   C     C_R   0.262471 0.498576 0.498215 0.773785
C22   C     C_R   0.737530 0.501433 0.501786 0.773751
C23   C     C_R   0.155780 0.660634 0.036079 -0.166113
C24   C     C_R   0.844236 0.339406 0.963922 -0.166105
C25   C     C_R   0.135920 0.659074 0.179974 0.170559
C26   C     C_R   0.864100 0.340980 0.820029 0.170503
C27   C     C_R   0.104442 0.544275 0.240744 0.079274
C28   C     C_R   0.895567 0.455788 0.759268 0.079233
C29   C     C_R   0.102019 0.433573 0.162911 -0.245347
C30   C     C_R   0.897984 0.566486 0.837110 -0.245337
C31   C     C_R   0.127604 0.434596 0.021509 0.060521
C32   C     C_R   0.872397 0.565448 0.978509 0.060588
C33   C     C_R   0.150851 0.550107 0.957603 -0.227806
C34   C     C_R   0.849155 0.449932 0.042408 -0.227821
C35   C     C_R   0.932686 0.540919 0.387992 -0.252924
C36   C     C_R   0.067320 0.459153 0.612023 -0.253128
Cu1   Cu    Cu3+1 0.500030 0.499990 0.643150 0.951712
Cu2   Cu    Cu3+1 0.499970 0.500010 0.356850 0.951722
H1    H     H_    0.172803 0.556236 0.849135 0.162761
H2    H     H_    0.827204 0.443801 0.150878 0.162768
H3    H     H_    0.356767 0.639201 0.897288 0.113524
H4    H     H_    0.643237 0.360802 0.102713 0.113531
H5    H     H_    0.524651 0.706533 0.095043 0.134248
H6    H     H_    0.475340 0.293469 0.904956 0.134242
H7    H     H_    0.668182 0.596967 0.898193 0.135226
H8    H     H_    0.331817 0.403031 0.101808 0.135221
H9    H     H_    0.178622 0.746554 0.984093 0.149633
H10   H     H_    0.821400 0.253474 0.015895 0.149637
H11   H     H_    0.080796 0.345876 0.213907 0.174641
H12   H     H_    0.919197 0.654190 0.786124 0.174628
H13   H     H_    0.882561 0.575813 0.301451 0.193515
H14   H     H_    0.117447 0.424253 0.698562 0.193555
H15   H     H_    0.704350 0.918054 0.484848 0.132620
H16   H     H_    0.295594 0.081913 0.515126 0.132668
H17   H     H_    0.617594 0.076681 0.701603 0.129398
H18   H     H_    0.382387 0.923325 0.298376 0.129403
N1    N     N_3   0.500090 0.499970 0.858290 -0.175170
N2    N     N_3   0.499910 0.500030 0.141710 -0.175168
O1    O     O_R   0.500060 0.316850 0.620870 -0.576630
O2    O     O_R   0.499940 0.683150 0.379130 -0.576627
O3    O     O_R   0.500000 0.316860 0.379090 -0.598591
O4    O     O_R   0.500000 0.683140 0.620910 -0.598592
O5    O     O_R   0.319670 0.500010 0.620890 -0.563813
O6    O     O_R   0.680330 0.499990 0.379110 -0.563802
O7    O     O_R   0.319620 0.500010 0.379110 -0.588245
O8    O     O_R   0.680380 0.499990 0.620890 -0.588252
C37   C     C_3   0.159865 0.775535 0.267411 -0.404082
C38   C     C_3   0.047518 0.833820 0.331788 -0.317889
C39   C     C_3   0.058731 0.845421 0.490935 -0.860738
H19   H     H_    0.076656 0.753134 0.539758 0.262974
H20   H     H_    0.132529 0.910513 0.520100 0.247202
H21   H     H_    0.974011 0.881875 0.533228 0.248657
H22   H     H_    0.033338 0.929035 0.287745 0.210549
H23   H     H_    0.966239 0.779449 0.304883 0.242161
H24   H     H_    0.227538 0.751649 0.349526 0.200011
H25   H     H_    0.202021 0.848124 0.201999 0.169157
C40   C     C_3   0.840159 0.224528 0.732572 -0.404016
C41   C     C_3   0.952515 0.166210 0.668271 -0.318420
C42   C     C_3   0.941224 0.154240 0.509227 -0.861527
H26   H     H_    0.867209 0.089387 0.480370 0.247539
H27   H     H_    0.923637 0.246485 0.460196 0.263140
H28   H     H_    0.025781 0.117308 0.466955 0.248724
H29   H     H_    0.033729 0.220693 0.694893 0.242374
H30   H     H_    0.966797 0.071131 0.712518 0.210827
H31   H     H_    0.797937 0.151952 0.797939 0.169206
H32   H     H_    0.772534 0.248451 0.650410 0.200046
C43   C     C_2   0.144086 0.313181 0.949969 0.760334
O9    O     O_2   0.219650 0.302084 0.860453 -0.656378
O10   O     O_R   0.078954 0.208670 0.992267 -0.784553
H33   H     H_    0.094845 0.132052 0.933158 0.326228
C44   C     C_2   0.855900 0.686848 0.050061 0.760220
O11   O     O_2   0.780308 0.697933 0.139543 -0.656379
O12   O     O_R   0.921057 0.791354 0.007828 -0.784592
H34   H     H_    0.905136 0.867955 0.066932 0.326239
C45   C     C_3   0.396001 0.916068 0.753535 -0.430050
C46   C     C_3   0.366109 0.027103 0.847571 -0.309532
C47   C     C_3   0.306255 0.984909 0.980973 -0.884037
H35   H     H_    0.214077 0.953224 0.956238 0.251116
H36   H     H_    0.356690 0.907053 0.030745 0.232520
H37   H     H_    0.302138 0.064349 0.055820 0.263939
H38   H     H_    0.449303 0.077742 0.876242 0.216512
H39   H     H_    0.305657 0.092123 0.790279 0.258003
H40   H     H_    0.313775 0.861807 0.727755 0.193801
H41   H     H_    0.460533 0.854113 0.809385 0.210890
C48   C     C_3   0.603954 0.083940 0.246455 -0.430050
C49   C     C_3   0.633867 0.972911 0.152432 -0.309561
C50   C     C_3   0.693752 0.015106 0.019049 -0.883959
H42   H     H_    0.643321 0.092947 0.969240 0.232507
H43   H     H_    0.785920 0.046813 0.043825 0.251109
H44   H     H_    0.697910 0.935659 0.944215 0.263944
H45   H     H_    0.694306 0.907897 0.209747 0.257995
H46   H     H_    0.550687 0.922262 0.123741 0.216515
H47   H     H_    0.539418 0.145884 0.190595 0.210889
H48   H     H_    0.686171 0.138214 0.272233 0.193840

loop_
_geom_bond_atom_site_label_1
_geom_bond_atom_site_label_2
_ccdc_geom_bond_type
C43   O9    D    
C4    C36   A    
O12   H34   S    
C46   H39   S    
C27   C29   A    
C45   C46   S    
C25   C37   S    
C7    H17   S    
C8    H18   S    
Cu1   O4    S    
C29   H11   S    
C40   C41   S    
C19   N1    S    
C15   C19   S    
C33   H1    S    
C13   C45   S    
C34   H2    S    
C48   H47   S    
C24   C26   A    
C18   H4    S    
C2    O2    A    
C32   C44   S    
C49   C50   S    
C38   H23   S    
C5    C36   A    
C20   H8    S    
C17   C20   S    
C6    C35   A    
C7    C9    S    
C18   C19   S    
C39   H20   S    
C22   O8    A    
Cu1   O5    S    
Cu2   N2    S    
C41   H29   S    
C18   N2    S    
C14   C48   S    
C38   C39   S    
C23   C33   A    
C50   H42   S    
C31   C33   A    
C16   H6    S    
C36   H14   S    
Cu2   O3    S    
C30   H12   S    
C40   H31   S    
C46   H38   S    
Cu1   O8    S    
C50   H43   S    
C1    C12   S    
C2    C11   S    
C47   H36   S    
C45   H40   S    
C47   H35   S    
Cu2   O6    S    
C49   H45   S    
C7    C12   S    
C26   C40   S    
C23   H9    S    
C37   C38   S    
C24   H10   S    
C48   H48   S    
C31   C43   S    
C4    C6    A    
C44   O11   D    
C42   H27   S    
C41   C42   S    
C49   H46   S    
C38   H22   S    
C24   C34   A    
C32   C34   A    
C39   H21   S    
C9    C14   S    
Cu1   Cu2   S    
C44   O12   S    
C5    C28   S    
C6    C27   S    
Cu2   O7    S    
C3    C35   A    
C16   C20   S    
C46   C47   S    
C9    C11   S    
Cu1   O1    S    
C10   C12   S    
Cu2   O2    S    
C16   C18   S    
C12   C14   S    
C40   H32   S    
C43   O10   S    
C35   H13   S    
C50   H44   S    
C37   H24   S    
C20   N2    S    
C47   H37   S    
C45   H41   S    
C15   C17   S    
C8    C14   S    
C21   O7    A    
C3    C5    A    
C10   C13   S    
C1    O3    A    
C42   H28   S    
C19   H7    S    
C25   C27   A    
C48   C49   S    
C26   C28   A    
C1    O1    A    
C15   H5    S    
C29   C31   A    
C30   C32   A    
C4    C21   S    
C11   C13   S    
C8    C11   S    
C28   C30   A    
C15   N2    S    
C16   N1    S    
C23   C25   A    
C39   H19   S    
C10   H16   S    
C17   H3    S    
C21   O5    A    
C22   O6    A    
C42   H26   S    
C41   H30   S    
C7    C13   S    
C9    H15   S    
C8    C10   S    
C3    C22   S    
C37   H25   S    
O10   H33   S    
Cu1   N1    S    
C2    O4    A    
C17   N1    S    
