data_mof_unit_37429.cif
_audit_creation_date              2012-12-10T20:07:09-0500
_audit_creation_method            fapswitch 2.2
_symmetry_space_group_name_H-M    P1
_symmetry_Int_Tables_number       1
_space_group_crystal_system       triclinic
_cell_length_a                    19.24781
_cell_length_b                    18.508217
_cell_length_c                    10.72307
_cell_angle_alpha                 89.616827
_cell_angle_beta                  89.80765
_cell_angle_gamma                 89.118034
_cell_volume                      3819.45659926

loop_
_atom_site_label
_atom_site_type_symbol
_atom_type_description
_atom_site_fract_x
_atom_site_fract_y
_atom_site_fract_z
_atom_type_partial_charge
C1    C     C_R   0.365618 0.500454 0.503828 0.824534
C2    C     C_R   0.634469 0.499587 0.502979 0.823869
C3    C     C_R   0.709651 0.498967 0.517419 -0.036093
C4    C     C_R   0.290913 0.501059 0.524141 -0.034884
C5    C     C_R   0.966489 0.483683 0.441641 0.115512
C6    C     C_R   0.034498 0.510992 0.671830 0.132498
C7    C     C_R   0.039484 0.477049 0.448940 0.122139
C8    C     C_R   0.961338 0.507344 0.668705 0.131593
C9    C     C_R   0.072701 0.495079 0.562184 -0.063209
C10   C     C_R   0.928342 0.496443 0.552764 -0.079245
C11   C     C_R   0.529295 0.724973 0.401324 0.369345
C12   C     C_R   0.460100 0.275793 0.415117 0.376547
C13   C     C_R   0.473016 0.726639 0.599140 0.374634
C14   C     C_R   0.540715 0.273419 0.582679 0.367704
C15   C     C_R   0.525570 0.801911 0.394052 0.191960
C16   C     C_R   0.463143 0.198912 0.407299 0.192968
C17   C     C_R   0.477728 0.803468 0.603242 0.194976
C18   C     C_R   0.538551 0.196534 0.588317 0.202725
C19   C     C_R   0.501401 0.841318 0.497605 -0.050545
C20   C     C_R   0.500849 0.159099 0.497521 -0.052958
C21   C     C_R   0.438013 0.963047 0.507472 0.434254
C22   C     C_R   0.563832 0.037449 0.478250 0.433786
C23   C     C_R   0.564470 0.961395 0.484728 0.434923
C24   C     C_R   0.438323 0.039001 0.514395 0.435351
C25   C     C_R   0.501010 0.077574 0.496651 -0.149744
C26   C     C_R   0.501322 0.922864 0.496160 -0.150617
C27   C     C_R   0.500372 0.500157 0.260351 0.870339
C28   C     C_R   0.501276 0.499623 0.739411 0.846666
C29   C     C_R   0.384514 0.559918 0.127073 -0.223345
C30   C     C_R   0.614473 0.433810 0.871526 -0.190386
C31   C     C_R   0.381764 0.550560 0.869274 -0.176431
C32   C     C_R   0.613578 0.432675 0.129518 -0.200270
C33   C     C_R   0.325854 0.585844 0.062557 0.189498
C34   C     C_R   0.667314 0.395753 0.934916 0.166280
C35   C     C_R   0.323553 0.578948 0.931553 0.186061
C36   C     C_R   0.667090 0.394815 0.066565 0.195306
C37   C     C_R   0.442161 0.527258 0.934131 0.036826
C38   C     C_R   0.557380 0.466266 0.065075 0.023211
C39   C     C_R   0.442866 0.529924 0.063938 0.041561
C40   C     C_R   0.557616 0.466202 0.935237 0.031480
C41   C     C_R   0.500771 0.498391 0.871732 -0.132871
C42   C     C_R   0.500874 0.500117 0.127720 -0.120031
C43   C     C_R   0.745343 0.433631 0.540142 -0.250943
C44   C     C_R   0.250968 0.563100 0.497124 -0.204715
C45   C     C_R   0.259515 0.440017 0.576733 -0.193144
C46   C     C_R   0.746103 0.564036 0.512840 -0.171884
C47   C     C_R   0.816870 0.432887 0.554381 -0.144669
C48   C     C_R   0.179530 0.562468 0.515727 -0.187150
C49   C     C_R   0.188402 0.439954 0.597358 -0.204221
C50   C     C_R   0.817616 0.563341 0.528137 -0.227293
C51   C     C_R   0.852827 0.497633 0.547184 0.160331
C52   C     C_R   0.148257 0.500166 0.562783 0.160508
H1    H     H_    0.383006 0.562481 0.227717 0.156793
H2    H     H_    0.617809 0.436636 0.771062 0.178535
H3    H     H_    0.378170 0.544948 0.769200 0.163339
H4    H     H_    0.615237 0.434791 0.229606 0.170259
H5    H     H_    0.718160 0.382902 0.544468 0.175872
H6    H     H_    0.274617 0.611082 0.458611 0.160878
H7    H     H_    0.289852 0.392338 0.601680 0.167827
H8    H     H_    0.719581 0.615245 0.496519 0.172330
H9    H     H_    0.844314 0.382021 0.569072 0.136617
H10   H     H_    0.148277 0.609205 0.489121 0.138223
H11   H     H_    0.164201 0.392112 0.635359 0.144342
H12   H     H_    0.845810 0.613477 0.522470 0.146793
N1    N     N_R   0.500000 0.689440 0.500000 -0.136172
N2    N     N_R   0.500000 0.310560 0.500000 -0.136131
O1    O     O_R   0.398180 0.560840 0.499970 -0.617928
O2    O     O_R   0.601820 0.439160 0.500030 -0.605722
O3    O     O_R   0.601820 0.560840 0.500030 -0.591438
O4    O     O_R   0.398180 0.439160 0.499970 -0.574485
O5    O     O_R   0.499990 0.560810 0.316770 -0.558498
O6    O     O_R   0.500010 0.439190 0.683230 -0.577376
O7    O     O_R   0.500010 0.560810 0.683230 -0.551323
O8    O     O_R   0.499990 0.439190 0.316770 -0.571524
Zn1   Zn    Zn3+2 0.500000 0.581210 0.500000 1.031202
Zn2   Zn    Zn3+2 0.500000 0.418790 0.500000 1.028712
C53   C     C_3   0.721846 0.350629 0.137199 -0.405816
C54   C     C_3   0.729471 0.368100 0.274736 -0.903641
H13   H     H_    0.739349 0.426661 0.285494 0.276004
H14   H     H_    0.682381 0.352014 0.327504 0.270646
H15   H     H_    0.774189 0.337009 0.313862 0.262148
H16   H     H_    0.708934 0.292572 0.130167 0.231561
H17   H     H_    0.773620 0.359022 0.094325 0.208772
C55   C     C_3   0.259628 0.597645 0.855004 -0.449061
C56   C     C_3   0.269970 0.665534 0.776292 -0.817035
H18   H     H_    0.308488 0.654762 0.701355 0.281839
H19   H     H_    0.220262 0.681770 0.731398 0.250517
H20   H     H_    0.287571 0.710713 0.835466 0.263025
H21   H     H_    0.248054 0.551760 0.792563 0.219993
H22   H     H_    0.212931 0.605600 0.913583 0.223039
C57   C     C_3   0.724149 0.358929 0.858643 -0.435587
C58   C     C_3   0.722986 0.276352 0.867850 -0.838664
H23   H     H_    0.756559 0.256490 0.944924 0.251517
H24   H     H_    0.669290 0.256751 0.882272 0.270826
H25   H     H_    0.743991 0.252560 0.780405 0.254445
H26   H     H_    0.718169 0.373449 0.759260 0.219287
H27   H     H_    0.775749 0.379077 0.886029 0.201093
C59   C     C_3   0.267177 0.619729 0.137161 -0.413338
C60   C     C_3   0.213964 0.563358 0.174694 -0.908601
H28   H     H_    0.190960 0.537672 0.091578 0.256081
H29   H     H_    0.239131 0.520732 0.233164 0.273585
H30   H     H_    0.171622 0.589693 0.229255 0.251680
H31   H     H_    0.287921 0.644493 0.223312 0.204533
H32   H     H_    0.241854 0.664788 0.084742 0.216298
C61   C     C_3   0.929058 0.481324 0.315731 -0.378308
C62   C     C_3   0.917193 0.404447 0.270379 -0.852752
H33   H     H_    0.965090 0.380729 0.229380 0.263994
H34   H     H_    0.898825 0.369452 0.347790 0.261405
H35   H     H_    0.877361 0.405654 0.195852 0.246494
H36   H     H_    0.877744 0.509144 0.319617 0.215962
H37   H     H_    0.957197 0.513096 0.244098 0.184159
C63   C     C_3   0.071617 0.535684 0.789326 -0.410643
C64   C     C_3   0.071294 0.618117 0.796200 -0.871162
H38   H     H_    0.102340 0.640768 0.718305 0.263981
H39   H     H_    0.017678 0.640679 0.789924 0.257193
H40   H     H_    0.093969 0.635378 0.885987 0.250319
H41   H     H_    0.047913 0.512924 0.874899 0.209647
H42   H     H_    0.126098 0.515731 0.793003 0.204544
C65   C     C_3   0.082369 0.449074 0.338360 -0.389827
C66   C     C_3   0.095656 0.367590 0.348815 -0.823872
H43   H     H_    0.133818 0.354986 0.423090 0.262198
H44   H     H_    0.047012 0.338608 0.370562 0.263359
H45   H     H_    0.117091 0.347056 0.259318 0.247319
H46   H     H_    0.057876 0.460974 0.247408 0.203020
H47   H     H_    0.132946 0.476223 0.331575 0.217191
C67   C     C_3   0.918347 0.513346 0.788606 -0.389273
C68   C     C_3   0.915408 0.440451 0.855846 -0.892143
H48   H     H_    0.890506 0.399944 0.795375 0.261714
H49   H     H_    0.968251 0.420407 0.880442 0.258487
H50   H     H_    0.884552 0.446098 0.943027 0.245870
H51   H     H_    0.938900 0.554598 0.852376 0.211777
H52   H     H_    0.864330 0.532147 0.770712 0.216102
O9    O     O_3   0.563370 0.684516 0.312047 -0.722180
H53   H     H_    0.599634 0.714406 0.272413 0.330569
O10   O     O_3   0.417592 0.317253 0.339120 -0.716949
H54   H     H_    0.377129 0.288207 0.314695 0.329735
O11   O     O_3   0.441506 0.687842 0.692983 -0.734946
H55   H     H_    0.410905 0.720356 0.742058 0.331028
O12   O     O_3   0.583839 0.312388 0.657787 -0.742930
H56   H     H_    0.626476 0.283027 0.672065 0.325718
O13   O     O_3   0.544770 0.839681 0.288215 -0.713710
H57   H     H_    0.539818 0.807909 0.214946 0.350675
O14   O     O_3   0.431003 0.161533 0.313127 -0.714287
H58   H     H_    0.426513 0.193516 0.239131 0.350652
O15   O     O_3   0.460160 0.842670 0.708126 -0.715766
H59   H     H_    0.470712 0.812720 0.782762 0.347198
O16   O     O_3   0.571781 0.156933 0.680738 -0.716732
H60   H     H_    0.579075 0.188363 0.753714 0.348815
O17   O     O_3   0.373972 0.930326 0.514366 -0.653564
H61   H     H_    0.377637 0.880505 0.482017 0.336618
O18   O     O_3   0.626736 0.070270 0.455462 -0.655494
H62   H     H_    0.618678 0.120483 0.426280 0.336732
O19   O     O_3   0.628672 0.927009 0.477935 -0.652660
H63   H     H_    0.625221 0.877000 0.510081 0.339025
O20   O     O_3   0.375252 0.073293 0.537326 -0.652259
H64   H     H_    0.383048 0.122945 0.567105 0.338954

loop_
_geom_bond_atom_site_label_1
_geom_bond_atom_site_label_2
_ccdc_geom_bond_type
O5    Zn1   S    
C21   C26   A    
C67   C68   S    
C49   H11   S    
C50   H12   S    
C14   C18   A    
O16   H60   S    
C54   H15   S    
O6    Zn2   S    
C6    C9    A    
O15   H59   S    
O10   H54   S    
C5    C61   S    
C56   H18   S    
C15   C19   A    
C30   H2    S    
C3    C43   A    
O8    Zn2   S    
C32   C36   A    
C38   C40   A    
C61   H36   S    
C38   C42   A    
C2    O2    A    
C36   C53   S    
C11   O9    S    
C63   H41   S    
C54   H14   S    
C20   C25   S    
C53   H17   S    
O14   H58   S    
C29   C33   A    
C28   C41   S    
C67   H51   S    
C33   C59   S    
C23   C26   A    
C19   C26   S    
C34   C57   S    
C17   C19   A    
C57   H26   S    
C15   O13   S    
C11   C15   A    
C12   C16   A    
C44   H6    S    
C12   O10   S    
O18   H62   S    
C32   C38   A    
C27   O8    A    
C18   C20   A    
C66   H45   S    
C16   C20   A    
C64   H40   S    
C62   H34   S    
C61   H37   S    
C65   H46   S    
O7    Zn1   S    
C28   O6    A    
C9    C52   S    
C55   H22   S    
C28   O7    A    
C63   C64   S    
C66   H44   S    
C39   C42   A    
C4    C45   A    
C56   H19   S    
C30   C34   A    
C7    C65   S    
C16   O14   S    
C55   C56   S    
C18   O16   S    
C57   C58   S    
C5    C7    A    
C54   H13   S    
C6    C8    A    
C4    C44   A    
C53   C54   S    
C12   N2    A    
C22   C25   A    
C58   H25   S    
C57   H27   S    
C31   C37   A    
C13   O11   S    
C17   O15   S    
C68   H49   S    
C48   H10   S    
C60   H28   S    
C67   H52   S    
C35   C55   S    
C49   C52   A    
N2    Zn2   S    
C29   C39   A    
C58   H24   S    
C50   C51   A    
C14   N2    A    
C30   C40   A    
C24   C25   A    
C65   C66   S    
C65   H47   S    
C8    C67   S    
C40   C41   A    
C60   H29   S    
C21   O17   S    
C23   O19   S    
O4    Zn2   S    
O9    H53   S    
C31   C35   A    
O1    Zn1   S    
C55   H21   S    
C68   H48   S    
C2    O3    A    
C27   O5    A    
C66   H43   S    
C64   H38   S    
C61   C62   S    
C56   H20   S    
C7    C9    A    
C22   O18   S    
C45   H7    S    
C46   H8    S    
C6    C63   S    
C47   H9    S    
C47   C51   A    
O12   H56   S    
C24   O20   S    
C1    O1    A    
O2    Zn2   S    
O11   H55   S    
C46   C50   A    
C3    C46   A    
C1    O4    A    
N1    Zn1   S    
C13   C17   A    
C1    C4    S    
C10   C51   S    
C2    C3    S    
C68   H50   S    
C5    C10   A    
C37   C39   A    
C44   C48   A    
O17   H61   S    
C63   H42   S    
C27   C42   S    
C29   H1    S    
C53   H16   S    
C59   H32   S    
C58   H23   S    
C33   C35   A    
C45   C49   A    
O3    Zn1   S    
C34   C36   A    
C37   C41   A    
C13   N1    A    
C43   H5    S    
C11   N1    A    
C48   C52   A    
C60   H30   S    
C14   O12   S    
C8    C10   A    
C59   C60   S    
C62   H33   S    
C21   C24   A    
O20   H64   S    
C22   C23   A    
C31   H3    S    
O19   H63   S    
O13   H57   S    
C43   C47   A    
C32   H4    S    
C59   H31   S    
C64   H39   S    
C62   H35   S    
