data_mof_unit_18422.cif
_audit_creation_date              2012-12-11T16:20:05-0500
_audit_creation_method            fapswitch 2.2
_symmetry_space_group_name_H-M    P1
_symmetry_Int_Tables_number       1
_space_group_crystal_system       triclinic
_cell_length_a                    13.542183
_cell_length_b                    14.033575
_cell_length_c                    30.02859
_cell_angle_alpha                 97.351797
_cell_angle_beta                  90.159341
_cell_angle_gamma                 118.857008
_cell_volume                      4943.37035317

loop_
_atom_site_label
_atom_site_type_symbol
_atom_type_description
_atom_site_fract_x
_atom_site_fract_y
_atom_site_fract_z
_atom_type_partial_charge
C1    C     C_R   0.717856 0.097217 0.569468 0.544425
C2    C     C_1   0.367659 0.731892 0.775818 -0.056502
C3    C     C_3   0.989474 0.675942 0.565024 -0.454974
C4    C     C_3   0.551564 0.693294 0.294995 -0.270927
C5    C     C_3   0.636437 0.785988 0.330917 -0.304117
C6    C     C_3   0.711886 0.751090 0.353902 -0.454335
C7    C     C_2   0.163401 0.011040 0.066340 0.576737
C8    C     C_3   0.166892 0.971840 0.160987 -0.247308
C9    C     C_3   0.201070 0.884966 0.143523 -0.281752
C10   C     C_3   0.106355 0.769360 0.147225 -0.454912
C11   C     C_3   0.569179 0.755386 0.598058 -0.239610
C12   C     C_3   0.615661 0.688788 0.618847 -0.321350
C13   C     C_1   0.367580 0.738312 0.736189 -0.053550
C14   C     C_3   0.701093 0.674776 0.589545 -0.461129
C15   C     C_3   0.491370 0.369422 0.198257 -0.245484
C16   C     C_3   0.602364 0.365627 0.202342 -0.292603
C17   C     C_3   0.663503 0.383373 0.158942 -0.425659
C18   C     C_3   0.512212 0.342938 0.320636 -0.254334
C19   C     C_3   0.620450 0.419172 0.351362 -0.308227
C20   C     C_3   0.713787 0.498569 0.325211 -0.471358
C21   C     C_3   0.903093 0.039835 0.182889 -0.251618
C22   C     C_3   0.786293 0.957952 0.196061 -0.296278
C23   C     C_3   0.791370 0.865549 0.215942 -0.466679
C24   C     C_R   0.384042 0.788213 0.551843 0.524848
C25   C     C_3   0.540413 0.695086 0.817046 -0.253007
C26   C     C_3   0.610604 0.650675 0.838123 -0.311248
C27   C     C_3   0.711446 0.667870 0.810930 -0.444861
C28   C     C_R   0.308017 0.616362 0.901409 0.002423
C29   C     C_3   0.352198 0.047072 0.722682 -0.203600
C30   C     C_3   0.232716 0.143070 0.715740 -0.083567
C31   C     C_3   0.217722 0.137109 0.766755 -0.187725
C32   C     C_1   0.302913 0.192500 0.879185 -0.004098
C33   C     C_3   0.344161 0.141838 0.703574 0.084534
C34   C     C_3   0.345978 0.057793 0.774713 -0.219426
C35   C     C_R   0.367049 0.738243 0.688275 0.002086
C36   C     C_3   0.327644 0.156450 0.791622 0.046693
C37   C     C_3   0.429369 0.262567 0.779339 -0.226160
C38   C     C_3   0.443213 0.251314 0.727993 -0.231319
C39   C     C_R   0.398720 0.117511 0.569856 0.544305
C40   C     C_1   0.316133 0.170080 0.840389 -0.062737
C41   C     C_1   0.356499 0.135796 0.654841 -0.075965
C42   C     C_1   0.371458 0.130005 0.615359 -0.030185
C43   C     C_3   0.692970 0.152427 0.729875 -0.229169
C44   C     C_3   0.900938 0.260603 0.721069 -0.206137
C45   C     C_3   0.926858 0.275173 0.772807 -0.088957
C46   C     C_R   0.266453 0.703302 0.662508 -0.114956
C47   C     C_1   0.887165 0.201548 0.880877 0.008562
C48   C     C_3   0.792763 0.151306 0.705073 0.035825
C49   C     C_3   0.718637 0.171839 0.781830 -0.262335
C50   C     C_3   0.832248 0.174208 0.793044 0.053882
C51   C     C_R   0.720580 0.096080 0.442892 0.541950
C52   C     C_3   0.818343 0.061072 0.769462 -0.003969
C53   C     C_3   0.807721 0.055189 0.717567 -0.206658
C54   C     C_1   0.854356 0.188019 0.842134 -0.040681
C55   C     C_1   0.773353 0.138137 0.656117 -0.079091
C56   C     C_1   0.754470 0.123444 0.616041 -0.026590
C57   C     C_R   0.265802 0.701247 0.615546 -0.012181
C58   C     C_3   0.289792 0.735261 0.271171 -0.229441
C59   C     C_3   0.280476 0.553133 0.273021 -0.212861
C60   C     C_3   0.269738 0.532573 0.220754 -0.212949
C61   C     C_1   0.305549 0.599736 0.111986 -0.023936
C62   C     C_3   0.350605 0.678281 0.290527 0.075831
C63   C     C_R   0.381962 0.783788 0.425175 0.544336
C64   C     C_3   0.283784 0.717372 0.219218 -0.224610
C65   C     C_3   0.334372 0.642921 0.201735 0.058234
C66   C     C_3   0.459875 0.698436 0.219705 -0.205268
C67   C     C_3   0.471506 0.727064 0.272247 -0.076648
C68   C     C_R   0.268441 0.703471 0.844198 -0.134051
C69   C     C_1   0.322652 0.623158 0.152261 -0.079099
C70   C     C_1   0.356421 0.701370 0.339853 -0.075447
C71   C     C_1   0.364862 0.731974 0.379616 -0.032589
C72   C     C_R   0.357829 0.138194 0.402346 0.003697
C73   C     C_R   0.429663 0.236588 0.386175 -0.107350
C74   C     C_R   0.421137 0.246226 0.340734 0.013934
C75   C     C_R   0.395682 0.115780 0.443594 0.541430
C76   C     C_R   0.329479 0.159355 0.312956 0.037529
C77   C     C_R   0.249424 0.066810 0.330460 -0.132384
C78   C     C_R   0.264412 0.055256 0.374904 -0.139721
C79   C     C_R   0.241724 0.656502 0.883555 -0.133278
C80   C     C_R   0.246494 0.083478 0.147031 -0.026033
C81   C     C_R   0.242283 0.101090 0.101677 0.051183
C82   C     C_R   0.398136 0.287880 0.121384 -0.150201
C83   C     C_R   0.403575 0.272878 0.165794 0.015010
C84   C     C_R   0.324811 0.172092 0.179106 0.029584
C85   C     C_1   0.322363 0.162836 0.226008 -0.044337
C86   C     C_1   0.322736 0.159508 0.265578 -0.055764
C87   C     C_R   0.369364 0.738038 0.594388 0.014281
C88   C     C_R   0.315021 0.206339 0.089890 -0.020940
C89   C     C_R   0.787988 0.140340 0.404775 0.019344
C90   C     C_R   0.407535 0.633066 0.881203 -0.116687
C91   C     C_R   0.829484 0.080070 0.377906 -0.138551
C92   C     C_R   0.872768 0.111781 0.336946 -0.120564
C93   C     C_R   0.875988 0.204558 0.322961 0.038772
C94   C     C_R   0.842949 0.269681 0.351008 -0.119563
C95   C     C_R   0.799706 0.238167 0.391862 -0.129270
C96   C     C_R   0.909860 0.311730 0.170584 -0.142425
C97   C     C_R   0.916600 0.311372 0.124197 -0.141427
C98   C     C_R   0.903680 0.131523 0.116375 -0.111385
C99   C     C_R   0.465781 0.750954 0.619883 -0.015722
C100  C     C_R   0.900401 0.132463 0.162919 0.011574
C101  C     C_R   0.436177 0.680969 0.841176 0.008925
C102  C     C_R   0.904280 0.224047 0.190069 0.044920
C103  C     C_1   0.902092 0.227721 0.237865 -0.042483
C104  C     C_1   0.894772 0.221812 0.277273 -0.045051
C105  C     C_R   0.916696 0.222445 0.096824 0.005010
C106  C     C_R   0.284769 0.231718 0.923114 0.555555
C107  C     C_R   0.266981 0.549185 0.938449 0.539339
C108  C     C_R   0.943455 0.221577 0.924103 0.548871
C109  C     C_R   0.292776 0.241784 0.048734 0.563223
C110  C     C_R   0.274241 0.556723 0.065308 0.547182
C111  C     C_R   0.465102 0.759321 0.667004 -0.109738
C112  C     C_R   0.362082 0.711916 0.821940 0.034135
C113  C     C_R   0.956871 0.233718 0.051211 0.534930
C114  C     C_3   0.123268 0.064905 0.685313 -0.257774
C115  C     C_3   0.085148 0.941724 0.680307 -0.277822
C116  C     C_3   0.965835 0.873799 0.657352 -0.451421
C117  C     C_3   0.049359 0.299537 0.783277 -0.251377
C118  C     C_3   0.136564 0.415057 0.774219 -0.323185
C119  C     C_3   0.256435 0.432871 0.779331 -0.445752
C120  C     C_2   0.903391 0.027000 0.783326 0.529093
C121  C     C_3   0.152644 0.650034 0.588777 -0.240428
C122  C     C_3   0.096919 0.722804 0.596051 -0.283026
Cr1   Cr    Cr6+3 0.583400 0.162540 0.509180 1.007572
Cr2   Cr    Cr6+3 0.584070 0.916690 0.495550 0.994756
Cr3   Cr    Cr6+3 0.332550 0.920810 0.495240 1.004239
Cr4   Cr    Cr6+3 0.086700 0.177000 0.983690 1.078036
Cr5   Cr    Cr6+3 0.336880 0.419130 0.994740 1.016263
Cr6   Cr    Cr6+3 0.084850 0.422220 0.995960 1.016332
H1    H     H_    0.165277 0.646286 0.898608 0.136548
H2    H     H_    0.425696 0.069691 0.791139 0.118325
H3    H     H_    0.745911 0.453201 0.302070 0.142875
H4    H     H_    0.681445 0.540627 0.305395 0.148908
H5    H     H_    0.785096 0.561266 0.349019 0.141944
H6    H     H_    0.601581 0.467513 0.378937 0.151690
H7    H     H_    0.652740 0.369835 0.366122 0.162072
H8    H     H_    0.537915 0.308757 0.290312 0.153592
H9    H     H_    0.474904 0.392584 0.310178 0.129956
H10   H     H_    0.822475 0.821751 0.191396 0.153108
H11   H     H_    0.848057 0.899010 0.247349 0.144975
H12   H     H_    0.705675 0.805828 0.224005 0.139118
H13   H     H_    0.211395 0.726617 0.829463 0.105963
H14   H     H_    0.754863 0.999997 0.221311 0.169827
H15   H     H_    0.725525 0.921886 0.165777 0.164197
H16   H     H_    0.932484 0.994787 0.158126 0.148527
H17   H     H_    0.965603 0.074190 0.212600 0.146092
H18   H     H_    0.682376 0.625258 0.775800 0.150308
H19   H     H_    0.768414 0.756987 0.810562 0.196313
H20   H     H_    0.759643 0.633736 0.826545 0.137439
H21   H     H_    0.642910 0.694165 0.872982 0.168743
H22   H     H_    0.557088 0.561024 0.838978 0.155252
H23   H     H_    0.513209 0.652592 0.781806 0.140807
H24   H     H_    0.416469 0.334552 0.789755 0.113220
H25   H     H_    0.595600 0.784295 0.815737 0.156063
H26   H     H_    0.722814 0.250762 0.796528 0.112127
H27   H     H_    0.677907 0.218274 0.720034 0.115532
H28   H     H_    0.971802 0.262030 0.701878 0.111794
H29   H     H_    0.890588 0.330594 0.712840 0.104510
H30   H     H_    0.922359 0.349405 0.788362 0.122809
H31   H     H_    0.734196 0.974969 0.702916 0.108345
H32   H     H_    0.883340 0.058511 0.702177 0.115067
H33   H     H_    0.285521 0.964940 0.706926 0.113236
H34   H     H_    0.736281 0.995548 0.778884 0.091893
H35   H     H_    0.188144 0.676702 0.678947 0.102596
H36   H     H_    0.614953 0.072348 0.719829 0.119092
H37   H     H_    0.647917 0.105555 0.796951 0.111394
H38   H     H_    0.193922 0.678254 0.206122 0.116292
H39   H     H_    0.202618 0.701719 0.282614 0.115495
H40   H     H_    0.319777 0.507466 0.285831 0.107875
H41   H     H_    0.194489 0.519435 0.285612 0.118008
H42   H     H_    0.178796 0.490066 0.208510 0.124345
H43   H     H_    0.304017 0.476854 0.208503 0.117591
H44   H     H_    0.246486 0.225463 0.710520 0.104589
H45   H     H_    0.510968 0.818449 0.279581 0.130529
H46   H     H_    0.509872 0.775097 0.204752 0.103289
H47   H     H_    0.335141 0.825140 0.283812 0.115798
H48   H     H_    0.330597 0.798183 0.206998 0.116212
H49   H     H_    0.493937 0.642202 0.208178 0.106132
H50   H     H_    0.179652 0.000211 0.308886 0.102114
H51   H     H_    0.207338 0.978925 0.386808 0.126863
H52   H     H_    0.498079 0.301787 0.408489 0.126528
H53   H     H_    0.455387 0.367785 0.112221 0.144232
H54   H     H_    0.928053 0.383146 0.110206 0.129246
H55   H     H_    0.146918 0.056336 0.772269 0.156832
H56   H     H_    0.913548 0.382385 0.191536 0.099314
H57   H     H_    0.844305 0.341040 0.340164 0.104627
H58   H     H_    0.769240 0.287032 0.411952 0.122063
H59   H     H_    0.822919 0.005580 0.387351 0.123506
H60   H     H_    0.904374 0.062578 0.095784 0.161373
H61   H     H_    0.897615 0.060566 0.315089 0.103843
H62   H     H_    0.458935 0.603820 0.895835 0.123037
H63   H     H_    0.540398 0.779347 0.687462 0.106454
H64   H     H_    0.275529 0.980529 0.783782 0.111864
H65   H     H_    0.904904 0.890862 0.676585 0.194754
H66   H     H_    0.196163 0.200359 0.781730 0.130513
H67   H     H_    0.964549 0.893486 0.622766 0.140882
H68   H     H_    0.937974 0.784838 0.655364 0.139415
H69   H     H_    0.142738 0.924476 0.658821 0.153891
H70   H     H_    0.086071 0.915574 0.713566 0.159654
H71   H     H_    0.055323 0.079046 0.699525 0.144567
H72   H     H_    0.133344 0.089812 0.651185 0.138156
H73   H     H_    0.278007 0.428104 0.814393 0.163451
H74   H     H_    0.265845 0.371254 0.755771 0.129892
H75   H     H_    0.316511 0.514026 0.770308 0.160694
H76   H     H_    0.121265 0.427303 0.739581 0.157604
H77   H     H_    0.525275 0.253921 0.721843 0.112453
H78   H     H_    0.129268 0.477966 0.798318 0.170086
H79   H     H_    0.063699 0.294692 0.819132 0.191304
H80   H     H_    0.062971 0.237279 0.761732 0.166363
H81   H     H_    0.948742 0.908696 0.775812 0.323618
H82   H     H_    0.009153 0.669728 0.529230 0.156522
H83   H     H_    0.926699 0.593184 0.572379 0.147006
H84   H     H_    0.951845 0.730964 0.570272 0.135246
H85   H     H_    0.074874 0.727601 0.631541 0.141855
H86   H     H_    0.156162 0.807402 0.589461 0.196848
H87   H     H_    0.161420 0.631872 0.552363 0.160800
H88   H     H_    0.446277 0.322991 0.714557 0.106593
H89   H     H_    0.096008 0.569019 0.599481 0.125066
H90   H     H_    0.659674 0.674910 0.368678 0.157596
H91   H     H_    0.766280 0.737186 0.329273 0.142871
H92   H     H_    0.767274 0.816656 0.381460 0.142314
H93   H     H_    0.690747 0.859577 0.314871 0.154811
H94   H     H_    0.591011 0.809522 0.356937 0.189262
H95   H     H_    0.502325 0.618275 0.310823 0.151698
H96   H     H_    0.600895 0.672767 0.269847 0.130474
H97   H     H_    0.144583 0.924037 0.005020 0.333232
H98   H     H_    0.084896 0.762363 0.182760 0.134527
H99   H     H_    0.508524 0.278828 0.797882 0.116120
H100  H     H_    0.029757 0.750365 0.126142 0.171805
H101  H     H_    0.133737 0.708309 0.135019 0.153092
H102  H     H_    0.221138 0.888120 0.107773 0.194558
H103  H     H_    0.278309 0.901634 0.163504 0.150035
H104  H     H_    0.164317 0.975469 0.198046 0.133394
H105  H     H_    0.078876 0.945212 0.148850 0.175775
H106  H     H_    0.659222 0.624891 0.556470 0.150197
H107  H     H_    0.770518 0.756318 0.583971 0.150090
H108  H     H_    0.737715 0.631918 0.606541 0.144358
H109  H     H_    0.659220 0.731812 0.652554 0.158267
H110  H     H_    0.433380 0.050086 0.714370 0.109933
H111  H     H_    0.545185 0.606002 0.622568 0.170007
H112  H     H_    0.546299 0.718953 0.562055 0.170167
H113  H     H_    0.636848 0.842499 0.600749 0.172944
H114  H     H_    0.616042 0.311755 0.132278 0.172124
H115  H     H_    0.674055 0.459288 0.147044 0.144238
H116  H     H_    0.748485 0.392533 0.165341 0.134082
H117  H     H_    0.659080 0.432288 0.229265 0.139544
H118  H     H_    0.586094 0.285806 0.212112 0.166278
H119  H     H_    0.508797 0.448633 0.187363 0.122270
H120  H     H_    0.458511 0.371705 0.231833 0.118955
O1    O     O_R   0.494060 0.188820 0.559230 -0.510005
O2    O     O_R   0.170530 0.527770 0.952070 -0.514202
O3    O     O_R   0.987720 0.318450 0.945940 -0.504528
O4    O     O_R   0.678470 0.153390 0.554100 -0.493966
O5    O     O_R   0.976400 0.159230 0.032040 -0.506630
O6    O     O_R   0.193740 0.188470 0.029020 -0.465666
O7    O     O_R   0.364860 0.335530 0.039220 -0.527191
O8    O     O_R   0.330170 0.515340 0.044800 -0.496086
O9    O     O_R   0.177230 0.536000 0.050040 -0.511213
O10   O     O_R   0.993930 0.326080 0.036750 -0.503808
O11   O     O_3   0.169480 0.339450 0.991460 -0.253661
O12   O     O_R   0.480140 0.824500 0.445020 -0.499016
O13   O     O_R   0.697870 0.003940 0.549410 -0.524808
O14   O     O_R   0.480980 0.827230 0.535590 -0.512593
O15   O     O_R   0.309390 0.811640 0.537920 -0.516610
O16   O     O_R   0.341810 0.023400 0.546180 -0.500187
O17   O     O_R   0.493150 0.185870 0.461540 -0.526579
O18   O     O_R   0.677630 0.150660 0.463530 -0.503641
O19   O     O_R   0.696960 0.000990 0.451710 -0.519075
O20   O     O_2   0.979798 0.083824 0.812460 -0.552568
O21   O     O_R   0.889878 0.925369 0.763502 -0.751786
O22   O     O_2   0.061851 0.962121 0.070846 -0.554387
O23   O     O_R   0.308480 0.808690 0.440220 -0.511500
O24   O     O_R   0.205956 0.985464 0.026955 -0.703108
O25   O     O_R   0.340970 0.020670 0.455610 -0.498653
O26   O     O_3   0.500010 0.000010 0.499990 -0.233827
O27   O     O_R   0.969690 0.151000 0.934080 -0.483920
O28   O     O_R   0.187530 0.180840 0.938210 -0.476553
O29   O     O_R   0.358160 0.327300 0.941250 -0.517832
O30   O     O_R   0.323950 0.507710 0.953980 -0.502462

loop_
_geom_bond_atom_site_label_1
_geom_bond_atom_site_label_2
_ccdc_geom_bond_type
C58   C62   S    
C48   C55   S    
C5    H93   S    
C55   C56   T    
C111  H63   S    
C93   C94   A    
C120  O20   D    
C38   H77   S    
C96   C102  A    
C73   C74   A    
C23   H10   S    
C19   C20   S    
C119  H73   S    
C94   H57   S    
Cr4   O27   S    
C108  O27   A    
C14   H108  S    
C114  C115  S    
C30   H44   S    
C1    O4    A    
C78   H51   S    
C97   H54   S    
C90   C101  A    
Cr3   O25   S    
C85   C86   T    
C52   C53   S    
C101  C112  A    
C115  H69   S    
C82   H53   S    
C2    C112  S    
C26   C27   S    
C50   C54   S    
C98   C105  A    
C74   C76   A    
C62   C67   S    
Cr3   O23   S    
Cr5   O7    S    
C121  H87   S    
C105  C113  S    
C36   C37   S    
C118  H78   S    
C1    C56   S    
C20   H4    S    
Cr1   O1    S    
C39   O16   A    
C68   C112  A    
C5    C6    S    
C9    H103  S    
C52   H34   S    
C28   C107  S    
C45   C117  S    
C115  C116  S    
C79   H1    S    
C51   O18   A    
C29   C33   S    
C109  O6    A    
C62   C70   S    
C11   C99   S    
C18   C19   S    
C41   C42   T    
C28   C79   A    
C2    C13   T    
C63   O23   A    
C118  C119  S    
C67   H45   S    
C24   O15   A    
C64   H38   S    
C6    H90   S    
C116  H67   S    
Cr2   O26   S    
C84   C85   S    
C12   H111  S    
C58   H47   S    
C17   H116  S    
C110  O8    A    
C16   C17   S    
C53   H32   S    
C64   C65   S    
C90   H62   S    
C22   H15   S    
C50   C52   S    
C18   H8    S    
C70   C71   T    
Cr2   O14   S    
C20   H5    S    
C89   C91   A    
C91   H59   S    
C43   C48   S    
C107  O2    A    
Cr1   O26   S    
C80   C84   A    
C72   C73   A    
C25   C26   S    
C97   C105  A    
C43   H36   S    
C117  H80   S    
C3    H82   S    
H81   O21   S    
C66   C67   S    
C23   H11   S    
C59   C60   S    
C18   C74   S    
C32   C106  S    
C21   C22   S    
C75   O25   A    
C10   H100  S    
C44   H29   S    
C73   H52   S    
Cr3   O15   S    
C94   C95   A    
C119  H74   S    
C96   H56   S    
C72   C75   S    
C43   H27   S    
C61   C110  S    
C93   C104  S    
C14   H107  S    
C115  H70   S    
C39   C42   S    
C87   C99   A    
Cr3   O26   S    
C7    O22   D    
C3    H83   S    
C48   C53   S    
C66   H49   S    
C43   C49   S    
C53   H31   S    
Cr6   O3    S    
C113  O5    A    
C108  O3    A    
C25   H25   S    
Cr5   O8    S    
C44   H28   S    
Cr6   O11   S    
C29   H33   S    
C49   H26   S    
C36   C40   S    
C106  O28   A    
C76   C77   A    
C110  O9    A    
C15   H119  S    
C91   C92   A    
C21   C100  S    
C8    C9    S    
C15   C83   S    
C58   C64   S    
C75   O17   A    
C11   H112  S    
C77   C78   A    
C29   C34   S    
C109  O7    A    
C10   H101  S    
Cr6   O2    S    
C120  O21   S    
C122  H86   S    
C51   O19   A    
C9    H102  S    
C19   H6    S    
C19   H7    S    
Cr6   O10   S    
C89   C95   A    
C18   H9    S    
H97   O24   S    
C49   H37   S    
C37   C38   S    
C4    C67   S    
Cr1   O17   S    
C83   C84   A    
C39   O1    A    
C26   H22   S    
Cr2   O12   S    
C99   C111  A    
C96   C97   A    
C22   H14   S    
C100  C102  A    
C119  H75   S    
C68   H13   S    
Cr4   O6    S    
C106  O29   A    
Cr5   O29   S    
C58   H39   S    
C34   H2    S    
C121  C122  S    
C63   O12   A    
C47   C54   T    
C6    H92   S    
C116  H65   S    
C52   C120  S    
C12   H109  S    
C7    C81   S    
C63   C71   S    
C60   C65   S    
C49   C50   S    
C33   C41   S    
C98   C100  A    
C46   H35   S    
C46   C57   A    
C11   H113  S    
C1    O13   A    
C64   H48   S    
C113  O10   A    
C88   C109  S    
C37   H24   S    
C24   O14   A    
C16   H117  S    
C76   C86   S    
C29   H110  S    
C14   H106  S    
C35   C111  A    
C44   C45   S    
C10   H98   S    
C30   C114  S    
C61   C69   T    
C3    H84   S    
C65   C69   S    
C5    H94   S    
Cr4   O28   S    
C7    O24   S    
C59   C62   S    
C30   C33   S    
C31   H55   S    
C22   C23   S    
C60   H43   S    
C121  H89   S    
C26   H21   S    
C118  H76   S    
C45   H30   S    
C77   H50   S    
C21   H16   S    
C38   H88   S    
C80   C81   A    
C117  H79   S    
C17   H114  S    
C31   H66   S    
C28   C90   A    
C11   C12   S    
C3    C122  S    
C21   H17   S    
C13   C35   S    
C16   H118  S    
C4    H95   S    
C35   C46   A    
Cr2   O19   S    
C33   C38   S    
C122  H85   S    
C25   H23   S    
C92   H61   S    
C114  H71   S    
C60   H42   S    
Cr6   O9    S    
C34   H64   S    
C12   C14   S    
C27   H20   S    
Cr1   O4    S    
C65   C66   S    
C44   C48   S    
C4    H96   S    
C117  C118  S    
C8    H105  S    
C45   C50   S    
C8    H104  S    
Cr1   O18   S    
C25   C101  S    
C30   C31   S    
Cr2   O13   S    
C68   C79   A    
C27   H18   S    
C82   C88   A    
C4    C5    S    
Cr3   O16   S    
C92   C93   A    
Cr5   O11   S    
C9    C10   S    
Cr4   O5    S    
C34   C36   S    
C32   C40   T    
Cr5   O30   S    
C102  C103  S    
C24   C87   S    
C81   C88   A    
C57   C121  S    
C6    H91   S    
C116  H68   S    
C57   C87   A    
C37   H99   S    
C15   H120  S    
C17   H115  S    
C27   H19   S    
C47   C108  S    
C72   C78   A    
C103  C104  T    
C8    C80   S    
C31   C36   S    
C66   H46   S    
C114  H72   S    
C20   H3    S    
C82   C83   A    
C59   H41   S    
C107  O30   A    
C98   H60   S    
C51   C89   S    
C59   H40   S    
C15   C16   S    
C95   H58   S    
C23   H12   S    
Cr4   O11   S    
