data_mof_unit_40794.cif
_audit_creation_date              2012-12-11T15:56:00-0500
_audit_creation_method            fapswitch 2.2
_symmetry_space_group_name_H-M    P1
_symmetry_Int_Tables_number       1
_space_group_crystal_system       triclinic
_cell_length_a                    11.187745
_cell_length_b                    11.152327
_cell_length_c                    18.737544
_cell_angle_alpha                 90.552648
_cell_angle_beta                  90.297192
_cell_angle_gamma                 59.046787
_cell_volume                      2004.83663039

loop_
_atom_site_label
_atom_site_type_symbol
_atom_type_description
_atom_site_fract_x
_atom_site_fract_y
_atom_site_fract_z
_atom_type_partial_charge
C1    C     C_R   0.358162 0.773437 0.397934 0.542892
C2    C     C_R   0.246511 0.400444 0.208041 -0.126684
C3    C     C_R   0.238966 0.430260 0.280575 -0.002056
C4    C     C_R   0.379186 0.349383 0.392073 0.529466
C5    C     C_R   0.967002 0.837640 0.376913 -0.120273
C6    C     C_R   0.979292 0.717681 0.406513 -0.111012
C7    C     C_R   0.058772 0.588563 0.371883 -0.071481
C8    C     C_R   0.135986 0.574470 0.309381 0.074708
C9    C     C_R   0.330241 0.320405 0.324891 -0.012678
C10   C     C_R   0.874713 0.335137 0.187847 0.002582
C11   C     C_R   0.830938 0.251759 0.217179 -0.013976
C12   C     C_R   0.562917 0.012274 0.204624 0.073098
C13   C     C_R   0.817718 0.245337 0.290234 -0.039946
C14   C     C_R   0.907773 0.397499 0.307706 -0.117851
C15   C     C_R   0.912663 0.409564 0.234777 0.047933
C16   C     C_R   0.777209 0.376668 0.403671 0.532360
C17   C     C_3   0.698199 0.258726 0.201019 -0.043007
C18   C     C_3   0.685058 0.244091 0.280515 -0.182836
C19   C     C_R   0.847591 0.327153 0.336102 -0.028633
C20   C     C_R   0.301823 0.942079 0.188282 0.031009
C21   C     C_R   0.431493 0.839348 0.212993 0.039406
C22   C     C_R   0.452471 0.796667 0.282968 0.022545
C23   C     C_R   0.332466 0.267092 0.178446 0.010242
C24   C     C_R   0.217590 0.970824 0.311725 -0.150042
C25   C     C_R   0.197886 0.016368 0.240083 -0.149571
C26   C     C_3   0.537190 0.699632 0.184834 -0.253497
C27   C     C_3   0.561730 0.651593 0.262314 -0.258389
C28   C     C_R   0.343227 0.769035 0.603708 0.574889
C29   C     C_R   0.342093 0.849367 0.331547 0.033668
C30   C     C_R   0.307160 0.328989 0.815397 0.032102
C31   C     C_R   0.439294 0.281310 0.788128 0.053609
C32   C     C_R   0.457966 0.294321 0.717246 0.006100
C33   C     C_R   0.209672 0.403345 0.696952 -0.173108
C34   C     C_R   0.403007 0.183703 0.298376 -0.146673
C35   C     C_R   0.190482 0.396248 0.769998 -0.139869
C36   C     C_3   0.568176 0.139724 0.791817 -0.043290
C37   C     C_3   0.595710 0.159918 0.715401 -0.247356
C38   C     C_R   0.345326 0.342705 0.670053 0.013545
C39   C     C_R   0.903098 0.293670 0.822796 0.038203
C40   C     C_R   0.372375 0.351944 0.596481 0.547999
C41   C     C_R   0.816986 0.427168 0.796430 0.023012
C42   C     C_R   0.781605 0.448330 0.726547 0.017841
C43   C     C_R   0.926300 0.202404 0.701363 -0.167986
C44   C     C_R   0.966956 0.181192 0.773806 -0.154219
C45   C     C_R   0.426489 0.152179 0.224475 -0.003491
C46   C     C_3   0.676214 0.540396 0.820577 -0.248700
C47   C     C_3   0.637737 0.564797 0.742305 -0.254971
C48   C     C_R   0.827067 0.337795 0.678693 0.020562
C49   C     C_R   0.307120 0.846497 0.825244 -0.026191
C50   C     C_R   0.252795 0.772019 0.793343 0.049393
C51   C     C_R   0.257656 0.756468 0.720257 -0.013181
C52   C     C_R   0.767789 0.374501 0.608135 0.536940
C53   C     C_R   0.376050 0.885682 0.708147 0.038848
C54   C     C_R   0.373893 0.898322 0.782161 -0.171804
C55   C     C_3   0.110670 0.791181 0.798460 -0.039653
C56   C     C_R   0.121064 0.697540 0.279945 0.091831
C57   C     C_3   0.115139 0.775081 0.717791 -0.213566
C58   C     C_R   0.315258 0.815990 0.676716 0.044568
C59   C     C_R   0.914979 0.315443 0.113022 0.534982
C60   C     C_R   0.305524 0.254958 0.102048 0.539265
C61   C     C_R   0.270973 0.964422 0.111596 0.549540
C62   C     C_R   0.944104 0.281968 0.897032 0.563795
C63   C     C_R   0.293655 0.287221 0.885375 0.568937
C64   C     C_R   0.844897 0.800841 0.175960 -0.112101
C65   C     C_R   0.274940 0.896664 0.897832 0.546625
C66   C     C_R   0.791314 0.822360 0.244413 -0.121114
C67   C     C_R   0.034231 0.827876 0.312722 -0.074763
C68   C     C_R   0.657129 0.929630 0.259528 -0.108883
C69   C     C_R   0.614542 0.956521 0.134829 -0.037708
C70   C     C_R   0.753882 0.861102 0.120431 -0.140641
Cr1   Cr    Cr6+3 0.601740 0.606840 0.505840 1.016698
Cr2   Cr    Cr6+3 0.291500 0.601560 0.495070 1.012710
Cr3   Cr    Cr6+3 0.606780 0.291630 0.499130 0.998027
Cr4   Cr    Cr6+3 0.062440 0.063060 0.008240 1.035916
Cr5   Cr    Cr6+3 0.062950 0.375000 0.998920 0.996576
Cr6   Cr    Cr6+3 0.374550 0.061770 0.992470 0.990055
H1    H     H_    0.448980 0.105218 0.338657 0.121340
H2    H     H_    0.789442 0.827950 0.066157 0.119041
H3    H     H_    0.098834 0.101525 0.223932 0.125331
H4    H     H_    0.622792 0.704562 0.159262 0.138150
H5    H     H_    0.493880 0.649068 0.150969 0.183536
H6    H     H_    0.531216 0.573613 0.274272 0.145884
H7    H     H_    0.664069 0.627874 0.283291 0.168058
H8    H     H_    0.120377 0.450301 0.661565 0.122241
H9    H     H_    0.086275 0.433835 0.789908 0.138230
H10   H     H_    0.546130 0.054132 0.796750 0.128944
H11   H     H_    0.683630 0.178241 0.709154 0.175380
H12   H     H_    0.901908 0.938513 0.402244 0.110926
H13   H     H_    0.015093 0.922531 0.287260 0.136230
H14   H     H_    0.598387 0.080580 0.678185 0.131140
H15   H     H_    0.970213 0.115366 0.664110 0.118036
H16   H     H_    0.046179 0.079196 0.791479 0.117715
H17   H     H_    0.678903 0.629021 0.846569 0.150132
H18   H     H_    0.618765 0.499845 0.850406 0.175888
H19   H     H_    0.556549 0.540487 0.726340 0.149127
H20   H     H_    0.623763 0.664399 0.722574 0.160213
H21   H     H_    0.415698 0.958128 0.805119 0.145362
H22   H     H_    0.027468 0.894844 0.818440 0.171414
H23   H     H_    0.926334 0.724631 0.455924 0.097792
H24   H     H_    0.951540 0.722330 0.164726 0.163564
H25   H     H_    0.117404 0.679740 0.698413 0.174910
H26   H     H_    0.038000 0.872468 0.690146 0.107493
H27   H     H_    0.851558 0.752309 0.285927 0.162800
H28   H     H_    0.633789 0.940847 0.315397 0.098600
H29   H     H_    0.557492 0.966588 0.089081 0.196093
H30   H     H_    0.184192 0.484275 0.172628 0.160971
H31   H     H_    0.006581 0.481721 0.175391 0.263499
H32   H     H_    0.836794 0.583379 0.181273 0.249505
H33   H     H_    0.724185 0.163145 0.104583 0.265719
H34   H     H_    0.071904 0.496640 0.398224 0.098307
H35   H     H_    0.819912 0.052527 0.169743 0.261691
H36   H     H_    0.541191 0.901838 0.680634 0.218222
H37   H     H_    0.385503 0.052930 0.676573 0.228504
H38   H     H_    0.131112 0.683555 0.889344 0.264161
H39   H     H_    0.014511 0.688617 0.831191 0.230715
H40   H     H_    0.922137 0.467720 0.340902 0.150906
H41   H     H_    0.615857 0.360677 0.178877 0.158907
H42   H     H_    0.593158 0.337649 0.303980 0.142210
H43   H     H_    0.698153 0.142550 0.296581 0.167189
H44   H     H_    0.132446 0.022886 0.349380 0.118498
I1    I     I_    0.712477 0.128884 0.868887 -0.400649
I2    I     I_    0.223464 0.696848 0.186684 -0.465855
N1    N     N_3   0.925858 0.521230 0.210851 -0.665210
N2    N     N_3   0.721841 0.139140 0.158169 -0.590809
N3    N     N_3   0.437102 0.945796 0.665215 -0.619737
N4    N     N_3   0.114088 0.674841 0.835117 -0.608721
O1    O     O_R   0.748670 0.497520 0.427970 -0.531898
O2    O     O_R   0.417470 0.174910 0.067830 -0.520438
O3    O     O_R   0.375160 0.946380 0.070880 -0.550750
O4    O     O_R   0.476470 0.723930 0.429450 -0.503472
O5    O     O_R   0.160500 0.919670 0.926690 -0.513677
O6    O     O_R   0.933140 0.190380 0.936050 -0.459075
O7    O     O_R   0.909010 0.403210 0.925030 -0.518962
O8    O     O_R   0.179590 0.361290 0.918480 -0.510178
O9    O     O_R   0.391360 0.170840 0.907510 -0.504363
O10   O     O_R   0.350950 0.942600 0.922260 -0.513516
O11   O     O_3   0.166650 0.166610 0.999880 -0.328638
O12   O     O_R   0.300170 0.471020 0.567120 -0.509946
O13   O     O_R   0.264730 0.744140 0.416740 -0.497428
O14   O     O_R   0.309440 0.472410 0.418220 -0.494238
O15   O     O_R   0.501630 0.260530 0.414310 -0.535726
O16   O     O_R   0.727920 0.305730 0.428950 -0.506888
O17   O     O_R   0.738670 0.496020 0.588600 -0.517058
O18   O     O_R   0.467190 0.722540 0.578350 -0.473959
O19   O     O_R   0.254720 0.742640 0.577370 -0.537214
O20   O     O_R   0.491630 0.259030 0.574940 -0.520487
O21   O     O_R   0.718640 0.304340 0.577850 -0.510621
O22   O     O_3   0.500010 0.500010 0.500020 -0.259702
O23   O     O_R   0.186620 0.923750 0.087000 -0.456219
O24   O     O_R   0.957350 0.194160 0.084660 -0.510261
O25   O     O_R   0.935120 0.407280 0.085350 -0.541952
O26   O     O_R   0.203800 0.365060 0.067090 -0.496200

loop_
_geom_bond_atom_site_label_1
_geom_bond_atom_site_label_2
_ccdc_geom_bond_type
C66   C68   A    
C12   C69   A    
C23   C45   A    
C22   C29   A    
Cr4   O6    S    
C70   H2    S    
C11   C13   A    
C41   C42   A    
H31   N1    S    
C5    C67   A    
C8    C56   A    
Cr6   O10   S    
Cr5   O8    S    
C7    C8    A    
C39   C41   A    
Cr3   O15   S    
C53   C54   A    
C57   H26   S    
C12   C68   A    
C26   C27   S    
H39   N4    S    
C15   N1    S    
C13   C18   S    
Cr3   O21   S    
C62   O7    A    
C36   C37   S    
C10   C15   A    
C31   C36   S    
C34   H1    S    
C30   C31   A    
H38   N4    S    
H37   N3    S    
C20   C25   A    
C49   C54   A    
C16   O1    A    
C67   H13   S    
C60   O26   A    
C20   C61   S    
C24   C29   A    
C5    H12   S    
Cr2   O13   S    
C56   I2    S    
Cr5   O25   S    
C40   O12   A    
C41   C46   S    
C54   H21   S    
C28   O18   A    
C64   C70   A    
C43   C48   A    
C18   H42   S    
C1    O13   A    
C61   O3    A    
C53   N3    S    
Cr2   O12   S    
Cr1   O22   S    
C21   C22   A    
Cr1   O1    S    
C14   C19   A    
C65   O5    A    
Cr6   O9    S    
C50   C51   A    
Cr3   O16   S    
C23   C60   S    
Cr4   O11   S    
C24   H44   S    
C52   O17   A    
C13   C19   A    
Cr3   O22   S    
C63   O8    A    
C62   O6    A    
C60   O2    A    
C24   C25   A    
C3    C8    S    
Cr5   O11   S    
C4    O15   A    
C51   C58   A    
C69   H29   S    
C36   H10   S    
Cr6   O11   S    
C2    H30   S    
C26   H4    S    
C63   O9    A    
C16   O16   A    
C43   C44   A    
C3    C9    A    
C59   O25   A    
C4    O14   A    
Cr6   O3    S    
C17   N2    S    
C31   C32   A    
C46   H18   S    
C55   N4    S    
Cr2   O14   S    
Cr5   O26   S    
C47   H20   S    
C1    C29   S    
C17   C18   S    
C28   O19   A    
Cr4   O23   S    
C34   C45   A    
C42   C48   A    
C32   C37   S    
H36   N3    S    
C39   C44   A    
C49   C65   S    
C51   C57   S    
C37   H14   S    
C1    O4    A    
C26   H5    S    
C32   C38   A    
C22   C27   S    
C55   C57   S    
C9    C34   A    
Cr6   O2    S    
H32   N1    S    
C30   C35   A    
C17   H41   S    
Cr1   O17   S    
C59   O24   A    
C39   C62   S    
C46   C47   S    
C11   C17   S    
H35   N2    S    
C25   H3    S    
C66   H27   S    
C37   H11   S    
C27   H6    S    
C68   H28   S    
C12   C45   S    
C44   H16   S    
C53   C58   A    
Cr5   O7    S    
H33   N2    S    
C6    C7    A    
C28   C58   S    
C52   O21   A    
C56   C67   A    
C57   H25   S    
C50   C55   S    
C7    H34   S    
C40   O20   A    
Cr3   O20   S    
C6    H23   S    
C27   H7    S    
C36   I1    S    
C64   H24   S    
Cr2   O22   S    
Cr1   O4    S    
C38   C40   S    
C35   H9    S    
C5    C6    A    
C46   H17   S    
C61   O23   A    
C16   C19   S    
C14   H40   S    
C21   C26   S    
C55   H22   S    
C30   C63   S    
C33   C35   A    
C2    C3    A    
C42   C47   S    
C69   C70   A    
C33   H8    S    
C43   H15   S    
C65   O10   A    
C10   C11   A    
C48   C52   S    
C20   C21   A    
C49   C50   A    
C2    C23   A    
C47   H19   S    
C14   C15   A    
Cr4   O24   S    
C33   C38   A    
C4    C9    S    
Cr4   O5    S    
C10   C59   S    
C18   H43   S    
Cr2   O19   S    
C64   C66   A    
Cr1   O18   S    
