data_mof_unit_62979.cif
_audit_creation_date              2013-03-05T16:21:34-0500
_audit_creation_method            fapswitch 2.2
_symmetry_space_group_name_H-M    P1
_symmetry_Int_Tables_number       1
_space_group_crystal_system       triclinic
_cell_length_a                    30.751229
_cell_length_b                    32.025017
_cell_length_c                    21.734623
_cell_angle_alpha                 89.912077
_cell_angle_beta                  135.03883
_cell_angle_gamma                 90.162243
_cell_volume                      15124.9029729

loop_
_atom_site_label
_atom_site_type_symbol
_atom_site_description
_atom_site_fract_x
_atom_site_fract_y
_atom_site_fract_z
_atom_type_partial_charge
O1    O     O_R   0.447840 1.000000 0.357610 -0.594323
O2    O     O_R   0.947840 0.500000 0.357610 -0.543933
O3    O     O_R   0.552190 1.000000 0.462050 -0.544065
O4    O     O_R   0.052190 0.500000 0.462050 -0.580711
C1    C     C_R   0.500155 0.001112 0.381435 0.846308
C2    C     C_R   0.000040 0.499208 0.381291 0.835023
O5    O     O_R   0.447840 0.939540 0.447780 -0.569145
O6    O     O_R   0.447840 0.060460 0.447780 -0.553080
O7    O     O_R   0.947840 0.439540 0.447780 -0.544123
O8    O     O_R   0.947840 0.560460 0.447780 -0.548219
O9    O     O_R   0.552190 0.939560 0.552210 -0.546552
O10   O     O_R   0.552190 0.060440 0.552210 -0.551074
O11   O     O_R   0.052190 0.439560 0.552210 -0.549857
O12   O     O_R   0.052190 0.560440 0.552210 -0.574312
C3    C     C_R   0.499958 0.919936 0.499836 0.807370
C4    C     C_R   0.500088 0.080058 0.500122 0.808666
C5    C     C_R   0.999957 0.419938 0.499840 0.828732
C6    C     C_R   0.000080 0.580061 0.500087 0.777143
Cu1   Cu    Cu3+1 0.438230 1.000000 0.438170 1.138468
Cu2   Cu    Cu3+1 0.938230 0.500000 0.438170 1.187281
Cu3   Cu    Cu3+1 0.561800 0.000000 0.561830 1.170032
Cu4   Cu    Cu3+1 0.061800 0.500000 0.561830 1.131439
O13   O     O_R   0.447840 0.000000 0.537950 -0.534412
O14   O     O_R   0.947840 0.500000 0.537950 -0.534153
O15   O     O_R   0.552190 1.000000 0.642390 -0.552492
O16   O     O_R   0.052190 0.500000 0.642390 -0.554489
C7    C     C_R   0.500075 0.998793 0.618820 0.879158
C8    C     C_R   0.000087 0.498694 0.618851 0.871718
C9    C     C_3   0.454322 0.735466 0.417982 0.325741
C10   C     C_3   0.457315 0.264345 0.418393 0.328894
C11   C     C_3   0.952529 0.235457 0.418661 0.331915
C12   C     C_3   0.944205 0.764297 0.427526 0.338976
C13   C     C_3   0.508198 0.763422 0.451162 0.206889
C14   C     C_3   0.512640 0.236668 0.457067 0.203293
C15   C     C_3   0.005187 0.263437 0.447759 0.197830
C16   C     C_3   0.987047 0.736665 0.431556 0.213261
H1    H     H_    0.599878 0.724442 0.559759 0.238277
H2    H     H_    0.602754 0.275983 0.570709 0.226347
H3    H     H_    0.097678 0.224498 0.552214 0.239159
H4    H     H_    0.078424 0.776094 0.505566 0.218352
C17   C     C_1   0.499857 0.875178 0.499618 -0.018505
C18   C     C_1   0.500245 0.124803 0.500396 -0.008970
C19   C     C_1   0.999852 0.375184 0.499600 0.003848
C20   C     C_1   0.000181 0.624814 0.500282 -0.036805
C21   C     C_1   0.500060 0.624826 0.499892 -0.023632
C22   C     C_1   0.500257 0.375158 0.500429 -0.024262
C23   C     C_1   0.000219 0.124832 0.500049 -0.006577
C24   C     C_1   0.999899 0.875168 0.500080 -0.025058
C25   C     C_3   0.446972 0.763184 0.467928 0.215377
C26   C     C_3   0.445862 0.236499 0.463581 0.206762
C27   C     C_3   0.948248 0.263175 0.471994 0.211130
C28   C     C_3   0.958224 0.736472 0.497620 0.203477
C29   C     C_3   0.499928 0.791746 0.499481 -0.174801
C30   C     C_3   0.500327 0.208218 0.500614 -0.176028
C31   C     C_3   0.999950 0.291757 0.499481 -0.176788
C32   C     C_3   0.999964 0.708238 0.500211 -0.172395
C33   C     C_3   0.491824 0.735362 0.549916 -0.267135
C34   C     C_3   0.487805 0.264468 0.545804 -0.247654
C35   C     C_3   0.995052 0.235373 0.553468 -0.262563
C36   C     C_3   0.013336 0.764518 0.571168 -0.255077
C37   C     C_3   0.500316 0.708152 0.500047 -0.077145
C38   C     C_3   0.500479 0.291815 0.500859 -0.077412
C39   C     C_3   0.000417 0.208162 0.500094 -0.082762
C40   C     C_3   0.000004 0.791834 0.500353 -0.072943
C41   C     C_3   0.545002 0.763448 0.579890 0.289118
C42   C     C_3   0.542614 0.236652 0.581407 0.291837
C43   C     C_3   0.046880 0.263480 0.579270 0.287680
C44   C     C_3   0.054614 0.736755 0.571546 0.296980
C45   C     C_3   0.554966 0.735594 0.532637 -0.230305
C46   C     C_3   0.556668 0.264642 0.539096 -0.250223
C47   C     C_3   0.053776 0.235629 0.528487 -0.233703
C48   C     C_3   0.043058 0.764712 0.503049 -0.267273
C49   C     C_1   0.499864 0.837562 0.499518 0.213434
C50   C     C_1   0.500316 0.162413 0.500562 0.217469
C51   C     C_1   0.999865 0.337570 0.499497 0.219549
C52   C     C_1   0.000124 0.662427 0.500309 0.210667
C53   C     C_1   0.500231 0.662432 0.500001 0.167711
C54   C     C_1   0.500391 0.337546 0.500682 0.160136
C55   C     C_1   0.000369 0.162439 0.500111 0.170314
C56   C     C_1   0.999936 0.837559 0.500224 0.160316
H5    H     H_    0.485203 0.724057 0.591144 0.216960
H6    H     H_    0.477652 0.275661 0.582865 0.224798
H7    H     H_    0.991024 0.224070 0.597578 0.220627
H8    H     H_    0.024421 0.775739 0.629286 0.219576
C57   C     C_R   0.473677 0.969839 0.255797 0.057226
C58   C     C_R   0.041442 0.521260 0.323038 0.091059
C59   C     C_R   0.501762 0.002029 0.316458 -0.211566
C60   C     C_R   0.000632 0.496327 0.315353 -0.214467
C61   C     C_R   0.539316 0.030938 0.322039 0.292847
C62   C     C_R   0.962617 0.467833 0.245328 0.298810
C63   C     C_R   0.541877 0.029784 0.259656 0.250931
C64   C     C_R   0.960668 0.468954 0.178420 0.258129
C65   C     C_R   0.506590 0.999613 0.192223 -0.254703
C66   C     C_R   0.996981 0.498709 0.182633 -0.242667
C67   C     C_R   0.476264 0.968556 0.195152 0.108056
C68   C     C_R   0.039362 0.522647 0.257704 0.101529
C69   C     C_3   0.411579 0.953130 0.125150 -0.415822
C70   C     C_3   0.051392 0.568558 0.268166 -0.380542
C71   C     C_3   0.408666 0.954680 0.192050 -0.384520
C72   C     C_3   0.053902 0.566997 0.340512 -0.421411
H9    H     H_    0.409289 0.920859 0.104224 0.230556
H10   H     H_    0.380631 0.976013 0.071310 0.196240
H11   H     H_    0.011656 0.586669 0.210375 0.224923
H12   H     H_    0.096516 0.576114 0.291902 0.220047
H13   H     H_    0.404563 0.923306 0.209526 0.226302
H14   H     H_    0.376077 0.978530 0.177155 0.221719
H15   H     H_    0.015726 0.584256 0.324865 0.217020
H16   H     H_    0.100502 0.573555 0.405959 0.228240
C73   C     C_R   0.467433 0.026860 0.685781 -0.021081
C74   C     C_R   0.965976 0.525972 0.684382 -0.028143
C75   C     C_R   0.501256 0.997497 0.686731 -0.232783
C76   C     C_R   0.001313 0.497424 0.686852 -0.230764
C77   C     C_R   0.544121 0.972141 0.761645 0.257673
C78   C     C_R   0.045392 0.473050 0.763058 0.265851
C79   C     C_R   0.546274 0.973592 0.828768 0.323127
C80   C     C_R   0.047507 0.474636 0.830137 0.286969
C81   C     C_R   0.506150 0.000540 0.820734 -0.161447
C82   C     C_R   0.006027 0.500615 0.820673 -0.176524
C83   C     C_R   0.470941 0.029013 0.752379 -0.014959
C84   C     C_R   0.969350 0.528211 0.750853 -0.030901
C85   C     C_3   0.404910 0.040865 0.693275 -0.471031
C86   C     C_3   0.902732 0.538430 0.691183 -0.460147
C87   C     C_3   0.400378 0.037627 0.618946 0.695240
C88   C     C_3   0.898374 0.535077 0.617033 0.696742
H17   H     H_    0.399853 0.073158 0.706167 0.230420
H18   H     H_    0.377909 0.016886 0.691742 0.201752
H19   H     H_    0.895965 0.570577 0.702358 0.224542
H20   H     H_    0.877023 0.513813 0.690959 0.204518
O17   O     O_R   0.409740 0.500000 0.357550 -0.535007
O18   O     O_R   0.909740 1.000000 0.357550 -0.541188
O19   O     O_R   0.409840 0.500000 0.462040 -0.567448
O20   O     O_R   0.909840 1.000000 0.462040 -0.560107
C89   C     C_R   0.381235 0.498709 0.381276 0.865448
C90   C     C_R   0.881255 0.000864 0.381292 0.883610
O21   O     O_R   0.499890 0.560480 0.447700 -0.536265
O22   O     O_R   0.499890 0.439520 0.447700 -0.563028
O23   O     O_R   0.999890 0.060480 0.447700 -0.532916
O24   O     O_R   0.999890 0.939520 0.447700 -0.565604
O25   O     O_R   0.500000 0.560470 0.552180 -0.582732
O26   O     O_R   0.500000 0.439530 0.552180 -0.545807
O27   O     O_R   1.000000 0.060470 0.552180 -0.582506
O28   O     O_R   1.000000 0.939530 0.552180 -0.551880
C91   C     C_R   0.499926 0.580076 0.499873 0.814689
C92   C     C_R   0.500085 0.419917 0.500127 0.847367
C93   C     C_R   0.000076 0.080079 0.500027 0.838252
C94   C     C_R   0.999890 0.919921 0.499937 0.845004
Cu5   Cu    Cu3+1 0.499880 0.500000 0.438060 1.207121
Cu6   Cu    Cu3+1 0.999880 1.000000 0.438060 1.196819
Cu7   Cu    Cu3+1 0.500000 0.500000 0.561790 1.137993
Cu8   Cu    Cu3+1 1.000000 1.000000 0.561790 1.136918
O29   O     O_R   0.590030 0.500000 0.537810 -0.541961
O30   O     O_R   0.090030 1.000000 0.537810 -0.543482
O31   O     O_R   0.590140 0.500000 0.642300 -0.557606
O32   O     O_R   0.090140 1.000000 0.642300 -0.563546
C95   C     C_R   0.618494 0.499959 0.618536 0.853522
C96   C     C_R   0.118499 0.999936 0.618543 0.850328
O33   O     O_R   0.590180 0.965000 0.090240 -0.578633
O34   O     O_R   0.590180 0.035000 0.090240 -0.530111
O35   O     O_R   0.090180 0.465000 0.090240 -0.525737
O36   O     O_R   0.090180 0.535000 0.090240 -0.590013
C97   C     C_R   0.618917 0.000125 0.117091 0.914583
C98   C     C_R   0.118937 0.500083 0.120729 0.873354
O37   O     O_R   0.500040 0.965010 0.090190 -0.586229
O38   O     O_R   0.500040 0.034990 0.090190 -0.544306
O39   O     O_R   0.000040 0.465010 0.090190 -0.521008
O40   O     O_R   0.000040 0.534990 0.090190 -0.600731
C99   C     C_R   0.501479 0.999964 0.120465 0.848500
C100  C     C_R   0.998223 0.499865 0.117162 0.898326
Cu9   Cu    Cu3+1 0.500030 0.958570 0.000020 1.085835
Cu10  Cu    Cu3+1 0.500030 0.041430 0.000020 1.139403
Cu11  Cu    Cu3+1 0.000030 0.458570 0.000020 1.184586
Cu12  Cu    Cu3+1 0.000030 0.541430 0.000020 1.039177
O41   O     O_R   0.409890 0.965030 0.909800 -0.590272
O42   O     O_R   0.409890 0.034970 0.909800 -0.583927
O43   O     O_R   0.909890 0.465030 0.909800 -0.570702
O44   O     O_R   0.909890 0.534970 0.909800 -0.586781
O45   O     O_R   0.500040 0.965020 0.909850 -0.550839
O46   O     O_R   0.500040 0.034980 0.909850 -0.560865
O47   O     O_R   0.000040 0.465020 0.909850 -0.540508
O48   O     O_R   0.000040 0.534980 0.909850 -0.587853
C101  C     C_R   0.380883 0.999947 0.881107 0.792146
C102  C     C_R   0.880876 0.499944 0.880996 0.832109
C103  C     C_R   0.501587 0.000053 0.882652 0.879955
C104  C     C_R   0.001603 0.500069 0.882693 0.845931
C105  C     C_R   0.281734 0.527858 0.251495 -0.036572
C106  C     C_R   0.781382 0.980031 0.323898 0.025008
C107  C     C_R   0.314545 0.497159 0.315616 -0.207041
C108  C     C_R   0.814729 0.003980 0.315322 -0.225800
C109  C     C_R   0.282617 0.470334 0.324742 0.241796
C110  C     C_R   0.782764 0.031078 0.242994 0.237702
C111  C     C_R   0.717654 0.029692 0.175876 0.244786
C112  C     C_R   0.217523 0.471921 0.262428 0.230837
C113  C     C_R   0.685544 0.001169 0.182113 -0.178101
C114  C     C_R   0.185459 0.500660 0.192605 -0.188696
C115  C     C_R   0.718179 0.978671 0.258710 -0.031958
C116  C     C_R   0.218717 0.530186 0.192556 -0.028050
C117  C     C_3   0.715536 0.933506 0.273091 -0.402762
C118  C     C_3   0.211458 0.544456 0.120264 -0.435287
C119  C     C_3   0.281181 0.541049 0.184807 0.681381
C120  C     C_3   0.785624 0.934828 0.345257 0.642224
H21   H     H_    0.696349 0.913845 0.216325 0.236555
H22   H     H_    0.693537 0.928677 0.296709 0.223521
H23   H     H_    0.193892 0.576981 0.100124 0.227094
H24   H     H_    0.185483 0.521612 0.065729 0.221891
C121  C     C_R   0.717434 0.536410 0.712112 -0.039972
C122  C     C_R   0.217453 0.036327 0.711271 -0.047580
C123  C     C_R   0.684791 0.499185 0.685950 -0.138402
C124  C     C_R   0.184807 0.999176 0.685984 -0.128695
C125  C     C_R   0.716938 0.462557 0.733910 0.369090
C126  C     C_R   0.216960 0.962740 0.734921 0.374312
C127  C     C_R   0.281487 0.963144 0.800313 -0.195763
C128  C     C_R   0.781459 0.462942 0.799234 -0.126572
H25   H     H_    0.305880 0.934525 0.835076 0.203220
H26   H     H_    0.805833 0.434198 0.833232 0.221979
C129  C     C_R   0.314046 0.999885 0.818022 -0.116564
C130  C     C_R   0.814029 0.499848 0.817863 -0.117712
C131  C     C_R   0.280945 0.036735 0.776291 0.029938
C132  C     C_R   0.780932 0.536793 0.777057 0.031398
C133  C     C_3   0.286125 0.069496 0.732592 -0.460165
C134  C     C_3   0.786045 0.570065 0.734037 -0.469322
C135  C     C_3   0.715712 0.569575 0.661466 0.525691
C136  C     C_3   0.215795 0.068970 0.659929 0.526815
H27   H     H_    0.309062 0.057776 0.713245 0.201963
H28   H     H_    0.306004 0.098943 0.770960 0.226862
H29   H     H_    0.808916 0.558788 0.714324 0.201783
H30   H     H_    0.805962 0.599310 0.773084 0.226784
N1    N     N_R   0.516943 0.777366 0.396663 0.184954
O49   O     O_R   0.524284 0.750016 0.360491 -0.229226
O50   O     O_R   0.517710 0.816952 0.384068 -0.323037
N2    N     N_R   0.526077 0.222863 0.408100 0.189816
O51   O     O_R   0.536448 0.250319 0.375562 -0.227549
O52   O     O_R   0.528185 0.183300 0.397045 -0.263781
N3    N     N_R   0.010487 0.277397 0.389436 0.192883
O53   O     O_R   0.015544 0.250059 0.350633 -0.214863
O54   O     O_R   0.010359 0.316985 0.375934 -0.269661
N4    N     N_R   0.972442 0.722831 0.354771 0.182179
O55   O     O_R   0.963209 0.750269 0.302370 -0.246267
O56   O     O_R   0.969059 0.683259 0.338482 -0.331126
N5    N     N_R   0.582075 0.942988 0.766924 0.172931
O57   O     O_R   0.557426 0.916554 0.704039 -0.314794
O58   O     O_R   0.641435 0.943034 0.834150 -0.210018
N6    N     N_R   0.084688 0.444669 0.769794 0.176041
O59   O     O_R   0.061258 0.417564 0.708383 -0.310968
O60   O     O_R   0.144026 0.446030 0.836945 -0.210306
Cl1   Cl    Cl    0.597223 0.940409 0.920197 -0.416559
Cl2   Cl    Cl    0.100177 0.442835 0.923483 -0.439960
Cl3   Cl    Cl    0.385232 0.086132 0.566313 -0.440741
Cl4   Cl    Cl    0.350685 0.996308 0.544558 -0.449634
Cl5   Cl    Cl    0.880605 0.583175 0.561805 -0.431482
Cl6   Cl    Cl    0.850944 0.492555 0.544896 -0.440509
N7    N     N_R   0.315632 0.440740 0.394898 0.168398
O61   O     O_R   0.355452 0.415719 0.409673 -0.323176
O62   O     O_R   0.305243 0.438235 0.443345 -0.246506
N8    N     N_R   0.815964 0.058722 0.236003 0.172473
O63   O     O_R   0.857310 0.084016 0.299536 -0.319495
O64   O     O_R   0.804657 0.058948 0.165896 -0.212981
N9    N     N_R   0.684798 0.056129 0.100895 0.166834
O65   O     O_R   0.645089 0.040195 0.022961 -0.316151
O66   O     O_R   0.695536 0.096109 0.110378 -0.214078
N10   N     N_R   0.184403 0.443661 0.268639 0.167395
O67   O     O_R   0.143192 0.457779 0.265419 -0.346236
O68   O     O_R   0.195375 0.403762 0.277684 -0.209056
Cl7   Cl    Cl    0.319216 0.589852 0.211098 -0.453012
Cl8   Cl    Cl    0.305005 0.501452 0.155891 -0.421544
Cl9   Cl    Cl    0.821383 0.902793 0.324028 -0.495983
Cl10  Cl    Cl    0.816966 0.927373 0.451693 -0.451538
Cl11  Cl    Cl    0.678050 0.415287 0.709841 -0.527423
Cl12  Cl    Cl    0.178082 0.915629 0.711963 -0.556360
Cl13  Cl    Cl    0.393405 0.717042 0.309243 -0.373325
Cl14  Cl    Cl    0.399980 0.282481 0.308865 -0.364241
Cl15  Cl    Cl    0.889144 0.217024 0.310785 -0.331367
Cl16  Cl    Cl    0.870038 0.782428 0.330872 -0.346622
N11   N     N_R   0.690360 0.555043 0.577180 0.129251
O69   O     O_R   0.711451 0.521346 0.572392 -0.314584
O70   O     O_R   0.644944 0.574812 0.505813 -0.239936
N12   N     N_R   0.688253 0.608877 0.654886 0.131225
O71   O     O_R   0.697804 0.643087 0.633484 -0.271429
O72   O     O_R   0.652135 0.609732 0.666486 -0.363171
N13   N     N_R   0.190544 0.053813 0.576044 0.129653
O73   O     O_R   0.211643 0.019825 0.572111 -0.314341
O74   O     O_R   0.145234 0.073340 0.504202 -0.241406
N14   N     N_R   0.188299 0.108488 0.652360 0.130791
O75   O     O_R   0.197876 0.142364 0.630202 -0.267230
O76   O     O_R   0.152205 0.109865 0.663972 -0.368034
N15   N     N_R   0.595166 0.777514 0.669496 0.176923
O77   O     O_R   0.630116 0.750215 0.731618 -0.253028
O78   O     O_R   0.605305 0.817127 0.688056 -0.260220
N16   N     N_R   0.589796 0.222738 0.671601 0.178323
O79   O     O_R   0.622523 0.250140 0.734044 -0.243773
O80   O     O_R   0.599499 0.183154 0.690351 -0.287644
N17   N     N_R   0.099077 0.277567 0.668162 0.178773
O81   O     O_R   0.135458 0.250282 0.729792 -0.247667
O82   O     O_R   0.109612 0.317184 0.686587 -0.260841
N18   N     N_R   0.115707 0.722949 0.651240 0.170821
O83   O     O_R   0.157927 0.750426 0.706344 -0.263773
O84   O     O_R   0.128475 0.683388 0.667892 -0.305154
N19   N     N_R   0.387596 0.776847 0.432113 0.184069
O85   O     O_R   0.347075 0.749298 0.408872 -0.256576
O86   O     O_R   0.374816 0.816378 0.423564 -0.290533
N20   N     N_R   0.384967 0.222516 0.421890 0.189991
O87   O     O_R   0.343165 0.249847 0.394203 -0.215988
O88   O     O_R   0.372131 0.182914 0.412716 -0.265232
N21   N     N_R   0.890216 0.276817 0.440676 0.189505
O89   O     O_R   0.850698 0.249255 0.420579 -0.230715
O90   O     O_R   0.877649 0.316345 0.433010 -0.272875
N22   N     N_R   0.911502 0.722427 0.494348 0.186433
O91   O     O_R   0.879826 0.749714 0.493445 -0.227811
O92   O     O_R   0.901407 0.682813 0.492865 -0.260234
Cl17  Cl    Cl    0.581182 0.069555 0.404485 -0.421853
Cl18  Cl    Cl    0.915452 0.432120 0.238736 -0.413754
N23   N     N_R   0.580054 0.058896 0.264998 0.175372
O93   O     O_R   0.620369 0.045479 0.265828 -0.332089
O94   O     O_R   0.573628 0.098877 0.266797 -0.211998
N24   N     N_R   0.918820 0.442157 0.103945 0.171606
O95   O     O_R   0.878746 0.457937 0.025930 -0.354003
O96   O     O_R   0.920840 0.401902 0.113795 -0.202244

loop_
_geom_bond_atom_site_label_1
_geom_bond_atom_site_label_2
_geom_bond_distance
_ccdc_geom_bond_type
C114  C116  1.391447 A    
H1    C45   1.110186 S    
O20   Cu8   1.969972 S    
O28   C94   1.296314 A    
N17   O81   1.300214 A    
C23   C93   1.433222 S    
N21   O90   1.300195 A    
C14   N2    1.457303 S    
O44   C102  1.285399 A    
N14   O75   1.301118 A    
Cu10  O46   1.971199 S    
C95   C123  1.441065 S    
C81   C83   1.391395 A    
C58   C60   1.392313 A    
C9    C13   1.539237 S    
C38   C46   1.551657 S    
C41   N15   1.456924 S    
Cu7   O31   1.970099 S    
C12   C28   1.539283 S    
N8    O64   1.301148 A    
O33   Cu9   1.969214 S    
C30   C50   1.466901 S    
O9    C3    1.296005 A    
O30   C96   1.292846 A    
O8    Cu2   1.946948 S    
N6    O60   1.300976 A    
C135  N11   1.469612 S    
O29   C95   1.292766 A    
C13   C45   1.548127 S    
C66   C68   1.391872 A    
O5    C3    1.296233 A    
C15   C47   1.548185 S    
O6    C4    1.295892 A    
O18   C90   1.293907 A    
C19   C51   1.204602 T    
C90   C108  1.449327 S    
C33   C41   1.547069 S    
N24   O95   1.301135 A    
C120  Cl10  1.783756 S    
C15   C31   1.540244 S    
Cu1   O13   1.970671 S    
C5    C19   1.433235 S    
C6    C20   1.433226 S    
C62   C64   1.412841 A    
N1    O49   1.300233 A    
C44   C48   1.547020 S    
C64   C66   1.418786 A    
N22   O91   1.300244 A    
O36   Cu12  1.970226 S    
C75   C77   1.418707 A    
N2    O52   1.300253 A    
O17   C89   1.294372 A    
C39   C47   1.551603 S    
C14   C30   1.540091 S    
O5    Cu1   1.947977 S    
C59   C61   1.414763 A    
C118  H24   1.112491 S    
O19   Cu7   1.969972 S    
N20   O87   1.300262 A    
Cu10  O42   1.969101 S    
O34   Cu10  1.970226 S    
C13   N1    1.457161 S    
C67   C69   1.493143 S    
C33   C37   1.551474 S    
C35   C39   1.551487 S    
C36   C40   1.551504 S    
C9    Cl13  1.782007 S    
C34   H6    1.110071 S    
N15   O78   1.300253 A    
C27   N21   1.457145 S    
N18   O83   1.300224 A    
O8    C6    1.295794 A    
C25   C29   1.540116 S    
C42   N16   1.456858 S    
C80   C82   1.412696 A    
C27   C31   1.540064 S    
N13   O74   1.301393 A    
C96   C124  1.441295 S    
C82   C84   1.391167 A    
O17   Cu5   1.970096 S    
O20   C90   1.292428 A    
H3    C47   1.110186 S    
C136  N13   1.469604 S    
C62   Cl18  1.768966 S    
N16   O80   1.300226 A    
C77   C79   1.413654 A    
O39   Cu11  1.970734 S    
O40   Cu12  1.970104 S    
C110  C111  1.416040 A    
C43   N17   1.456921 S    
O23   Cu6   1.948468 S    
O38   Cu10  1.970104 S    
C76   C78   1.419440 A    
C9    C25   1.539114 S    
C12   C16   1.539315 S    
Cu1   Cu3   2.685134 S    
Cu6   Cu8   2.686613 S    
C73   C75   1.393406 A    
C105  C107  1.392239 A    
C2    C60   1.449155 S    
N4    O55   1.300228 A    
C108  C110  1.415785 A    
N9    O65   1.301024 A    
C86   H19   1.111617 S    
C20   C52   1.204584 T    
C88   Cl6   1.788590 S    
C28   C36   1.547950 S    
C35   C43   1.547062 S    
C133  H28   1.111837 S    
O25   C91   1.296480 A    
C37   C53   1.464176 S    
C68   C70   1.493059 S    
O24   Cu6   1.947834 S    
C61   C63   1.413222 A    
C29   C41   1.539790 S    
N3    O53   1.300234 A    
C31   C51   1.467183 S    
O21   C91   1.296201 A    
C7    C75   1.451055 S    
C65   C67   1.393383 A    
O40   C100  1.286891 A    
N19   O86   1.300190 A    
Cu11  O47   1.970568 S    
Cu9   O45   1.970568 S    
C134  C135  1.529074 S    
O27   Cu8   1.947466 S    
C83   C85   1.492923 S    
C122  C131  1.380057 A    
C9    C37   1.542439 S    
C72   H16   1.111546 S    
O6    Cu1   1.946948 S    
C85   C87   1.523763 S    
C10   C14   1.539181 S    
C97   C113  1.448549 S    
O10   C4    1.296158 A    
C12   C40   1.542559 S    
C66   C100  1.450675 S    
C119  Cl8   1.788604 S    
C73   C87   1.498174 S    
C22   C92   1.433436 S    
C32   C44   1.539610 S    
O9    Cu3   1.946314 S    
O36   C98   1.282806 A    
O46   C103  1.282574 A    
Cu5   O29   1.969779 S    
C85   H17   1.111607 S    
C57   C71   1.492908 S    
O4    Cu4   1.970673 S    
C132  C134  1.496135 S    
C134  H30   1.111839 S    
C117  H22   1.111597 S    
N5    O58   1.300960 A    
C105  C119  1.497643 S    
C78   N6    1.436384 S    
C80   Cl2   1.769017 S    
O21   Cu5   1.948468 S    
N23   O94   1.300984 A    
Cu2   Cu4   2.685134 S    
C86   C88   1.523689 S    
C110  N8    1.436347 S    
O47   C104  1.283893 A    
C71   H14   1.112160 S    
Cu3   O15   1.971137 S    
H4    C48   1.110079 S    
N1    O50   1.300224 A    
C38   C54   1.464544 S    
Cu6   O30   1.969779 S    
C11   C27   1.539087 S    
N10   O67   1.301157 A    
C78   C80   1.413653 A    
C30   C42   1.539611 S    
O27   C93   1.296446 A    
C16   N4    1.457262 S    
C42   C46   1.547169 S    
N14   O76   1.301674 A    
O11   C5    1.296006 A    
O12   Cu4   1.947337 S    
C133  C136  1.529088 S    
C57   C67   1.376215 A    
O24   C94   1.296446 A    
N11   O70   1.301395 A    
C28   N22   1.457213 S    
C74   C76   1.393740 A    
C89   C107  1.450079 S    
C17   C49   1.204666 T    
C1    C59   1.447903 S    
O48   C104  1.281851 A    
N12   O71   1.301117 A    
C123  C125  1.408663 A    
Cu9   O41   1.970118 S    
C21   C53   1.204322 T    
O26   Cu7   1.948106 S    
C16   C48   1.547889 S    
C115  C117  1.493428 S    
C34   C38   1.551582 S    
H2    C46   1.110094 S    
N18   O84   1.300213 A    
N5    O57   1.301185 A    
C10   Cl14  1.781790 S    
C136  N14   1.467038 S    
N7    O61   1.301106 A    
C8    C76   1.452051 S    
C26   C30   1.540089 S    
O35   Cu11  1.969214 S    
O1    C1    1.295484 A    
O23   C93   1.296308 A    
Cu5   Cu7   2.686613 S    
C35   H7    1.110068 S    
C87   Cl4   1.788545 S    
C122  C124  1.392783 A    
N24   O96   1.300950 A    
C70   H11   1.112181 S    
C125  C128  1.402134 A    
Cu9   Cu10  2.653596 S    
O34   C97   1.281670 A    
C74   C88   1.498355 S    
C79   C81   1.413621 A    
N22   O92   1.300219 A    
N13   O73   1.302245 A    
C15   N3    1.457212 S    
O31   C95   1.290096 A    
C58   C72   1.492986 S    
C14   C46   1.548001 S    
O32   C96   1.290128 A    
C69   H10   1.112387 S    
Cu12  O48   1.971199 S    
C10   C26   1.539121 S    
O41   C101  1.285018 A    
C40   C56   1.464363 S    
C106  C120  1.497150 S    
N20   O88   1.300226 A    
C18   C50   1.204453 T    
O1    Cu1   1.971141 S    
O2    Cu2   1.971141 S    
C26   C34   1.547887 S    
O14   C8    1.295032 A    
C3    C17   1.433378 S    
C116  C118  1.493146 S    
C22   C54   1.204538 T    
O45   C103  1.283699 A    
O25   Cu7   1.947466 S    
C117  C120  1.524090 S    
C111  C113  1.418343 A    
N15   O77   1.300205 A    
C16   C32   1.540190 S    
C63   C65   1.416649 A    
O7    Cu2   1.947977 S    
N6    O59   1.301224 A    
O35   C98   1.284834 A    
C101  C129  1.454721 S    
C58   C68   1.376142 A    
O4    C2    1.292186 A    
C128  H26   1.083173 S    
C70   C72   1.519527 S    
C10   C38   1.542623 S    
C11   Cl15  1.781939 S    
C11   C15   1.539245 S    
C12   Cl16  1.781941 S    
O15   C7    1.292343 A    
C105  C116  1.374540 A    
C106  C108  1.392900 A    
O33   C97   1.285843 A    
C26   N20   1.457214 S    
C73   C83   1.375099 A    
C125  Cl11  1.761317 S    
N17   O82   1.300256 A    
O38   C99   1.284520 A    
O26   C92   1.296469 A    
C130  C132  1.395884 A    
O3    C1    1.290020 A    
C109  N7    1.436745 S    
O28   Cu8   1.948106 S    
O22   C92   1.296422 A    
C41   C45   1.547299 S    
N4    O56   1.300256 A    
O11   Cu4   1.946314 S    
C43   C47   1.547291 S    
C111  N9    1.436642 S    
C86   H20   1.112474 S    
N2    O51   1.300237 A    
O37   Cu9   1.970734 S    
C133  H27   1.112158 S    
C36   C44   1.547113 S    
Cu4   O16   1.971137 S    
C118  H23   1.111546 S    
C21   C91   1.433114 S    
C79   Cl1   1.769132 S    
C127  C129  1.408701 A    
Cu11  Cu12  2.653596 S    
C32   C52   1.467110 S    
N19   O85   1.300241 A    
O12   C6    1.296349 A    
C23   C55   1.204373 T    
C25   C33   1.547771 S    
C39   C55   1.464273 S    
N8    O63   1.300991 A    
C122  C136  1.502308 S    
C129  C131  1.395857 A    
C119  Cl7   1.784290 S    
N7    O62   1.301132 A    
C135  N12   1.467036 S    
C34   C42   1.547164 S    
C128  C130  1.408846 A    
C113  C115  1.390641 A    
C24   C94   1.433215 S    
C117  H21   1.112161 S    
C118  C119  1.523577 S    
O13   C7    1.294502 A    
N21   O89   1.300243 A    
C102  C130  1.454886 S    
O2    C2    1.293547 A    
O42   C101  1.285233 A    
C69   C71   1.519669 S    
C84   C86   1.492785 S    
C57   C59   1.390899 A    
C13   C29   1.540306 S    
C71   H13   1.111609 S    
C64   N24   1.436233 S    
C121  C132  1.380128 A    
O18   Cu6   1.970096 S    
Cu2   O14   1.970671 S    
C106  C115  1.374590 A    
N10   O68   1.301155 A    
C74   C84   1.375228 A    
N23   O93   1.301235 A    
Cu11  O43   1.970118 S    
O10   Cu3   1.947337 S    
C44   N18   1.456851 S    
N9    O66   1.301116 A    
C109  C112  1.416890 A    
O37   C99   1.284043 A    
C88   Cl5   1.784090 S    
C25   N19   1.457139 S    
C98   C114  1.450130 S    
N11   O69   1.302250 A    
N3    O54   1.300252 A    
O43   C102  1.284983 A    
O7    C5    1.296192 A    
C120  Cl9   1.788993 S    
C127  H25   1.083183 S    
N12   O72   1.301681 A    
O39   C100  1.281211 A    
C33   H5    1.110070 S    
O3    Cu3   1.970673 S    
C27   C35   1.547777 S    
C4    C18   1.432987 S    
C37   C45   1.551546 S    
C72   H15   1.112411 S    
C126  Cl12  1.761352 S    
C29   C49   1.467270 S    
C60   C62   1.412791 A    
O19   C89   1.292938 A    
C61   Cl17  1.769450 S    
C31   C43   1.539790 S    
C81   C103  1.448500 S    
C82   C104  1.447533 S    
C131  C133  1.496093 S    
C11   C39   1.542497 S    
O16   C8    1.292388 A    
N16   O79   1.300209 A    
C24   C56   1.204417 T    
C85   H18   1.112470 S    
C87   Cl3   1.784140 S    
C36   H8    1.110071 S    
C70   H12   1.111588 S    
C121  C135  1.502254 S    
C134  H29   1.112197 S    
C40   C48   1.551543 S    
C63   N23   1.436022 S    
C107  C109  1.418304 A    
O22   Cu5   1.947834 S    
C112  N10   1.436495 S    
Cu12  O44   1.969101 S    
C77   N5    1.436439 S    
C65   C99   1.452686 S    
C124  C126  1.408870 A    
C126  C127  1.402292 A    
Cu8   O32   1.970099 S    
C121  C123  1.392728 A    
C69   H9    1.111562 S    
C28   C32   1.540261 S    
C112  C114  1.416188 A    
