data_mof_unit_22138.cif
_audit_creation_date              2012-12-11T15:12:45-0500
_audit_creation_method            fapswitch 2.2
_symmetry_space_group_name_H-M    P1
_symmetry_Int_Tables_number       1
_space_group_crystal_system       monoclinic
_cell_length_a                    22.377677
_cell_length_b                    6.939979
_cell_length_c                    19.350554
_cell_angle_alpha                 90.0
_cell_angle_beta                  99.270514
_cell_angle_gamma                 90.0
_cell_volume                      2965.90176251

loop_
_atom_site_label
_atom_site_type_symbol
_atom_type_description
_atom_site_fract_x
_atom_site_fract_y
_atom_site_fract_z
_atom_type_partial_charge
O1    O     O_R   0.448420 0.506120 0.415750 -0.536789
O2    O     O_R   0.551580 0.006120 0.584250 -0.536790
O3    O     O_R   0.436490 0.174470 0.555610 -0.536378
O4    O     O_R   0.563510 0.674470 0.444390 -0.536378
C1    C     C_R   0.421248 0.344628 0.576029 0.707644
C2    C     C_R   0.578752 0.844628 0.423971 0.707644
O5    O     O_R   0.441310 0.176330 0.414520 -0.538201
O6    O     O_R   0.558690 0.676330 0.585480 -0.538202
O7    O     O_R   0.556430 0.007110 0.442150 -0.532480
O8    O     O_R   0.443570 0.507110 0.557850 -0.532479
C3    C     C_R   0.426315 0.345508 0.388696 0.679177
C4    C     C_R   0.573684 0.845508 0.611304 0.679178
O9    O     O_3   0.537770 0.339560 0.509230 -0.361719
O10   O     O_3   0.462230 0.839560 0.490770 -0.361719
V1    V     V_3+5 0.492990 0.064280 0.498290 1.449555
V2    V     V_3+5 0.507010 0.564280 0.501710 1.449555
C5    C     C_R   0.867620 0.939866 0.694863 -0.126342
C6    C     C_R   0.132379 0.439863 0.305136 -0.126343
H1    H     H_    0.954898 0.967833 0.758562 0.134716
H2    H     H_    0.045102 0.467830 0.241438 0.134715
H3    H     H_    0.785781 0.915278 0.579953 0.162366
H4    H     H_    0.214219 0.415276 0.420046 0.162364
H5    H     H_    0.886439 0.949113 0.646743 0.147058
H6    H     H_    0.113561 0.449109 0.353257 0.147058
C7    C     C_R   0.884228 0.938522 0.821525 -0.053331
C8    C     C_R   0.115772 0.438522 0.178475 -0.053331
C9    C     C_R   0.587653 0.848484 0.741790 0.067259
C10   C     C_R   0.412346 0.348483 0.258210 0.067260
C11   C     C_R   0.625482 0.857325 0.807074 -0.108809
C12   C     C_R   0.374517 0.357323 0.192926 -0.108810
C13   C     C_R   0.688010 0.874702 0.812144 -0.179759
C14   C     C_R   0.311990 0.374700 0.187856 -0.179760
C15   C     C_R   0.716048 0.884801 0.751996 0.074272
C16   C     C_R   0.283952 0.384801 0.248004 0.074272
C17   C     C_R   0.678156 0.874694 0.685040 0.043364
C18   C     C_R   0.321844 0.374694 0.314960 0.043364
C19   C     C_R   0.780433 0.905730 0.756179 0.082389
C20   C     C_R   0.219566 0.405730 0.243821 0.082389
C21   C     C_R   0.805011 0.917408 0.693011 0.113405
C22   C     C_R   0.194988 0.417406 0.306989 0.113405
C23   C     C_R   0.767113 0.906774 0.628207 -0.161150
C24   C     C_R   0.232887 0.406773 0.371793 -0.161150
C25   C     C_R   0.704904 0.885373 0.624170 -0.167000
C26   C     C_R   0.295096 0.385373 0.375830 -0.167000
C27   C     C_R   0.821573 0.916007 0.820549 -0.204945
C28   C     C_R   0.178427 0.416007 0.179451 -0.204945
C29   C     C_R   0.906758 0.950681 0.758484 -0.151574
C30   C     C_R   0.093242 0.450679 0.241516 -0.151573
C31   C     C_R   0.614143 0.855210 0.680169 -0.120472
C32   C     C_R   0.385857 0.355211 0.319831 -0.120473
H7    H     H_    0.806654 0.906989 0.870682 0.103283
H8    H     H_    0.193346 0.406992 0.129318 0.103283
H9    H     H_    0.713172 0.881059 0.864436 0.132399
H10   H     H_    0.286828 0.381056 0.135564 0.132398
H11   H     H_    0.607274 0.851494 0.855464 0.126722
H12   H     H_    0.392726 0.351491 0.144536 0.126722
H13   H     H_    0.677849 0.878121 0.572545 0.119980
H14   H     H_    0.322151 0.378121 0.427455 0.119980
C33   C     C_3   0.810857 0.758529 0.266326 -0.268001
C34   C     C_3   0.189142 0.258532 0.733672 -0.268000
C35   C     C_3   0.785474 0.110545 0.246277 0.090872
C36   C     C_3   0.214527 0.610548 0.753725 0.090871
C37   C     C_3   0.736347 0.094043 0.295968 0.148747
C38   C     C_3   0.263654 0.594047 0.704033 0.148743
H15   H     H_    0.784294 0.768043 0.370645 0.213046
H16   H     H_    0.215705 0.268053 0.629353 0.213045
H17   H     H_    0.855521 0.794322 0.297806 0.208664
H18   H     H_    0.144478 0.294331 0.702192 0.208664
H19   H     H_    0.769067 0.219250 0.205272 0.116862
H20   H     H_    0.230934 0.719251 0.794732 0.116868
H21   H     H_    0.698880 0.194219 0.275568 0.081852
H22   H     H_    0.301122 0.694220 0.724436 0.081852
C39   C     C_1   0.624611 0.854761 0.378660 -0.153283
C40   C     C_1   0.375389 0.354762 0.621340 -0.153282
C41   C     C_3   0.792487 0.914009 0.208946 0.070790
C42   C     C_3   0.207513 0.414009 0.791054 0.070789
C43   C     C_3   0.762593 0.741492 0.315639 -0.271314
C44   C     C_3   0.237405 0.241497 0.684358 -0.271313
C45   C     C_3   0.709800 0.885515 0.294025 0.098161
C46   C     C_3   0.290200 0.385516 0.705975 0.098163
C47   C     C_3   0.681613 0.838563 0.217226 -0.434459
C48   C     C_3   0.318387 0.338556 0.782774 -0.434455
C49   C     C_3   0.729191 0.859330 0.167141 0.114709
C50   C     C_3   0.270808 0.359323 0.832859 0.114708
C51   C     C_1   0.662823 0.866741 0.340607 0.011192
C52   C     C_1   0.337177 0.366741 0.659393 0.011194
C53   C     C_1   0.838372 0.928466 0.160865 0.076330
C54   C     C_1   0.161628 0.428466 0.839135 0.076331
C55   C     C_1   0.875856 0.939455 0.121936 -0.113727
C56   C     C_1   0.124144 0.439455 0.878064 -0.113727
H23   H     H_    0.714098 0.976009 0.128810 0.126951
H24   H     H_    0.285902 0.475999 0.871191 0.126950
H25   H     H_    0.663058 0.689867 0.214686 0.206041
H26   H     H_    0.336940 0.189858 0.785312 0.206040
H27   H     H_    0.816338 0.616466 0.241625 0.216571
H28   H     H_    0.183659 0.116468 0.758371 0.216575
H29   H     H_    0.744639 0.591677 0.313431 0.190496
H30   H     H_    0.255358 0.091679 0.686565 0.190501
H31   H     H_    0.642834 0.935960 0.199353 0.140679
H32   H     H_    0.357167 0.435950 0.800648 0.140678
O11   O     O_R   0.056480 0.288780 0.942210 -0.534112
O12   O     O_R   0.943520 0.788780 0.057790 -0.534113
O13   O     O_R   0.058700 0.616820 0.085490 -0.539268
O14   O     O_R   0.941300 0.116820 0.914510 -0.539268
C57   C     C_R   0.073289 0.448123 0.111717 0.698822
C58   C     C_R   0.926711 0.948123 0.888283 0.698823
O15   O     O_R   0.063520 0.618570 0.944410 -0.533995
O16   O     O_R   0.936480 0.118570 0.055590 -0.533995
O17   O     O_R   0.948420 0.787670 0.915740 -0.535231
O18   O     O_R   0.051580 0.287670 0.084260 -0.535231
C59   C     C_R   0.078831 0.449751 0.923927 0.717380
C60   C     C_R   0.921169 0.949751 0.076073 0.717381
O19   O     O_3   0.962260 0.453430 0.990800 -0.366029
O20   O     O_3   0.037740 0.953430 0.009200 -0.366029
V3    V     V_3+5 0.007000 0.728750 0.001710 1.481204
V4    V     V_3+5 0.993000 0.228750 0.998290 1.481203
Br1   Br    Br    0.864253 0.212042 0.291029 -0.506389
Br2   Br    Br    0.135748 0.712054 0.708974 -0.506391
Br3   Br    Br    0.762937 0.181787 0.392548 -0.517340
Br4   Br    Br    0.237065 0.681800 0.607453 -0.517343
Br5   Br    Br    0.731415 0.624583 0.111529 -0.614283
Br6   Br    Br    0.268583 0.124571 0.888469 -0.614285
C61   C     C_3   0.518969 0.833089 0.735457 -0.354866
C62   C     C_3   0.493176 0.833578 0.804319 -0.324497
C63   C     C_3   0.424257 0.821568 0.789597 -0.751114
H33   H     H_    0.405231 0.948492 0.758736 0.227885
H34   H     H_    0.410132 0.689104 0.759270 0.221256
H35   H     H_    0.405973 0.817622 0.839627 0.237852
H36   H     H_    0.510769 0.707401 0.836745 0.202257
H37   H     H_    0.506353 0.968556 0.833815 0.203812
H38   H     H_    0.498470 0.956390 0.703315 0.175710
H39   H     H_    0.504296 0.697836 0.706813 0.175121
C64   C     C_3   0.481031 0.333089 0.264543 -0.354866
C65   C     C_3   0.506823 0.333566 0.195681 -0.324498
C66   C     C_3   0.575743 0.321561 0.210403 -0.751103
H40   H     H_    0.594768 0.448497 0.241258 0.227884
H41   H     H_    0.589869 0.189107 0.240737 0.221255
H42   H     H_    0.594027 0.317595 0.160373 0.237847
H43   H     H_    0.489231 0.207383 0.163258 0.202257
H44   H     H_    0.493646 0.468539 0.166182 0.203812
H45   H     H_    0.501529 0.456394 0.296683 0.175710
H46   H     H_    0.495704 0.197840 0.293190 0.175120

loop_
_geom_bond_atom_site_label_1
_geom_bond_atom_site_label_2
_ccdc_geom_bond_type
C66   H42   S    
C12   C14   A    
C57   O18   A    
C48   H26   S    
O18   V4    S    
C61   H39   S    
C9    C11   A    
C23   C25   A    
O12   C60   A    
O1    C3    A    
O2    C4    A    
C33   C43   S    
C2    O7    A    
O14   C58   A    
O20   V3    S    
O3    V1    S    
C66   H40   S    
C21   C23   A    
C37   C45   S    
C35   C41   S    
O5    C3    A    
C55   C60   S    
C34   C44   S    
C64   H46   S    
C5    H5    S    
C33   H27   S    
C6    H6    S    
O17   V3    S    
C65   H44   S    
C44   C46   S    
C27   H7    S    
C7    C27   A    
C50   Br6   S    
C28   H8    S    
C47   H25   S    
C36   H20   S    
C5    C21   A    
C1    C40   S    
C35   C37   S    
C6    C22   A    
C46   C52   S    
O12   V3    S    
C33   H17   S    
O14   V4    S    
C10   C32   A    
C26   H14   S    
C44   H30   S    
C63   H35   S    
C36   C38   S    
C13   C15   A    
C43   H29   S    
C17   C25   A    
C7    C29   A    
C8    C30   A    
O19   V4    S    
C22   C24   A    
O6    V2    S    
C38   C46   S    
C42   C50   S    
C24   C26   A    
C56   C59   S    
C8    C57   S    
C14   H10   S    
C47   C49   S    
C7    C58   S    
C4    C31   S    
C43   C45   S    
H16   C44   S    
H15   C43   S    
C35   Br1   S    
C10   C64   S    
C61   C62   S    
C46   C48   S    
C65   H43   S    
C45   C47   S    
C9    C61   S    
O5    V1    S    
C47   H31   S    
C12   H12   S    
C34   C42   S    
C13   H9    S    
O16   C60   A    
C14   C16   A    
O4    V2    S    
O13   V3    S    
C17   C31   A    
C37   Br3   S    
O6    C4    A    
O15   V3    S    
C62   H37   S    
O13   C57   A    
O1    V2    S    
C49   Br5   S    
O2    V1    S    
C39   C51   T    
H2    C30   S    
H3    C23   S    
C34   H28   S    
C41   C53   S    
C54   C56   T    
C48   C50   S    
O9    V1    S    
C63   H33   S    
O10   V2    S    
C18   C26   A    
O4    C2    A    
O11   C59   A    
C19   C27   A    
C49   H23   S    
C33   C41   S    
C45   C51   S    
C18   C32   A    
C2    C39   S    
C35   H19   S    
C66   H41   S    
C42   C54   S    
C36   C42   S    
C61   H38   S    
C16   C20   A    
O15   C59   A    
C5    C29   A    
C37   H21   S    
O3    C1    A    
C6    C30   A    
O20   V4    S    
C65   C66   S    
C40   C52   T    
C11   H11   S    
C64   H45   S    
C38   Br4   S    
O16   V4    S    
C53   C55   T    
O7    V1    S    
C10   C12   A    
C11   C13   A    
C3    C32   S    
O8    V2    S    
C20   C22   A    
C41   C49   S    
C64   C65   S    
C48   H32   S    
C15   C17   A    
C62   H36   S    
H1    C29   S    
C16   C18   A    
C38   H22   S    
C15   C19   A    
C20   C28   A    
C25   H13   S    
C1    O8    A    
C34   H18   S    
C19   C21   A    
O9    V2    S    
H4    C24   S    
C63   H34   S    
O11   V4    S    
O10   V1    S    
C50   H24   S    
C8    C28   A    
C36   Br2   S    
C9    C31   A    
C62   C63   S    
O19   V3    S    
C58   O17   A    
