data_mof_unit_45917.cif
_audit_creation_date              2012-12-10T20:38:20-0500
_audit_creation_method            fapswitch 2.2
_symmetry_space_group_name_H-M    P1
_symmetry_Int_Tables_number       1
_space_group_crystal_system       triclinic
_cell_length_a                    9.947714
_cell_length_b                    10.727416
_cell_length_c                    16.634908
_cell_angle_alpha                 90.967359
_cell_angle_beta                  81.219272
_cell_angle_gamma                 88.694197
_cell_volume                      1753.53196406

loop_
_atom_site_label
_atom_site_type_symbol
_atom_type_description
_atom_site_fract_x
_atom_site_fract_y
_atom_site_fract_z
_atom_type_partial_charge
C1    C     C_R   0.499997 0.739642 0.496401 0.834191
C2    C     C_R   0.407103 0.616297 0.780662 -0.235199
C3    C     C_R   0.503882 0.659498 0.151234 -0.176479
C4    C     C_R   0.482911 0.632850 0.233417 -0.192427
C5    C     C_R   0.631985 0.449479 0.206380 -0.106674
C6    C     C_R   0.652643 0.475844 0.124031 -0.166502
C7    C     C_R   0.586563 0.579560 0.096354 0.179906
C8    C     C_2   0.456657 0.541575 0.991092 -0.323964
C9    C     C_2   0.574017 0.584372 0.010411 0.119897
C10   C     C_R   0.545091 0.526683 0.260717 -0.020412
C11   C     C_R   0.384305 0.939633 0.480271 0.042893
C12   C     C_R   0.476887 0.499570 0.653125 0.862514
C13   C     C_R   0.503469 0.870917 0.483754 -0.033349
C14   C     C_R   0.628451 0.931942 0.475790 -0.213644
C15   C     C_R   0.629283 0.060960 0.479376 -0.185347
C16   C     C_R   0.505202 0.128145 0.491711 -0.047051
C17   C     C_R   0.384745 0.066390 0.488465 -0.010466
C18   C     C_3   0.249220 0.072712 0.542336 0.359744
C19   C     C_3   0.246627 0.932586 0.529772 -0.544121
C20   C     C_R   0.909976 0.543686 0.566723 0.055706
C21   C     C_R   0.949119 0.445628 0.437286 0.451459
C22   C     C_R   0.091305 0.446103 0.438674 -0.204983
C23   C     C_R   0.501355 0.260230 0.499884 0.938543
C24   C     C_R   0.052481 0.542331 0.566572 0.199202
C25   C     C_3   0.046541 0.670541 0.602789 -0.147236
C26   C     C_3   0.892024 0.674111 0.602508 -0.065818
C27   C     C_R   0.523077 0.501801 0.346646 0.868236
C28   C     C_R   0.454340 0.504698 0.740425 -0.021778
C29   C     C_R   0.488444 0.401150 0.783601 -0.212878
C30   C     C_R   0.479082 0.410618 0.867566 -0.145777
C31   C     C_R   0.437525 0.524072 0.907304 0.180137
C32   C     C_R   0.398310 0.626003 0.864459 -0.151859
H1    H     H_    0.525645 0.314968 0.752146 0.169503
H2    H     H_    0.712851 0.411468 0.081372 0.144675
H3    H     H_    0.724482 0.880973 0.472226 0.166629
H4    H     H_    0.725625 0.106760 0.477209 0.195523
H5    H     H_    0.169529 0.124521 0.515348 0.089507
H6    H     H_    0.248560 0.878245 0.585825 0.232243
H7    H     H_    0.169591 0.905129 0.491402 0.163165
H8    H     H_    0.162184 0.406312 0.388701 0.215096
H9    H     H_    0.417021 0.693887 0.275584 0.149700
H10   H     H_    0.096835 0.734578 0.557353 0.134652
H11   H     H_    0.863954 0.740529 0.556699 0.158213
H12   H     H_    0.679311 0.366748 0.227096 0.174177
H13   H     H_    0.368636 0.714402 0.895280 0.150039
H14   H     H_    0.449792 0.737912 0.129685 0.146148
H15   H     H_    0.384137 0.697517 0.747069 0.145715
H16   H     H_    0.377169 0.509386 0.037892 0.172986
H17   H     H_    0.511320 0.332386 0.900978 0.148022
N1    N     N_R   0.857140 0.500860 0.500530 -0.172993
N2    N     N_R   0.142780 0.500820 0.500530 -0.143838
O1    O     O_R   0.385310 0.683210 0.499990 -0.626772
O2    O     O_R   0.614650 0.683240 0.500000 -0.633260
O3    O     O_R   0.371780 0.500000 0.615800 -0.584277
O4    O     O_R   0.601120 0.500040 0.615800 -0.617096
O5    O     O_R   0.385350 0.316760 0.500000 -0.591663
O6    O     O_R   0.614690 0.316790 0.500010 -0.576199
O7    O     O_R   0.398880 0.499960 0.384200 -0.634832
O8    O     O_R   0.628220 0.500000 0.384200 -0.509236
Zn1   Zn    Zn3+2 0.346870 0.499980 0.499990 0.976920
Zn2   Zn    Zn3+2 0.653130 0.500020 0.500010 1.025272
S1    S     S_3+6 0.255484 0.113256 0.647004 -0.002238
O9    O     O_2   0.135612 0.058494 0.699428 -0.312069
O10   O     O_2   0.384780 0.062481 0.671957 -0.329635
O11   O     O_3   0.247632 0.268738 0.659821 -0.554596
H18   H     H_    0.254510 0.282973 0.718011 0.369669
S2    S     S_3+6 0.903727 0.384107 0.345874 0.011423
O12   O     O_2   0.870626 0.491049 0.294549 -0.296915
O13   O     O_2   0.022411 0.311375 0.299109 -0.353316
O14   O     O_3   0.772234 0.287857 0.362773 -0.573383
H19   H     H_    0.786683 0.225921 0.317258 0.356715
C33   C     C_3   0.104942 0.680523 0.683672 -0.335138
C34   C     C_3   0.079398 0.569420 0.740600 -0.808964
H20   H     H_    0.970674 0.546050 0.753758 0.241505
H21   H     H_    0.137023 0.485836 0.713190 0.294697
H22   H     H_    0.114689 0.591710 0.799216 0.246516
H23   H     H_    0.216354 0.689520 0.667591 0.216082
H24   H     H_    0.068305 0.768764 0.716420 0.221214
C35   C     C_3   0.797227 0.687569 0.685880 -0.328664
C36   C     C_3   0.679770 0.780834 0.683171 -0.820881
H25   H     H_    0.718604 0.871237 0.658985 0.266495
H26   H     H_    0.607263 0.744376 0.645119 0.267758
H27   H     H_    0.624060 0.797843 0.745630 0.244227
H28   H     H_    0.756134 0.596217 0.706566 0.223920
H29   H     H_    0.851121 0.724445 0.734136 0.220817
C37   C     C_3   0.690751 0.623201 0.946133 -0.387016
C38   C     C_3   0.813716 0.671744 0.980907 -0.847716
H30   H     H_    0.783013 0.752485 0.022910 0.268156
H31   H     H_    0.860422 0.596981 0.013734 0.267616
H32   H     H_    0.891271 0.702608 0.930398 0.250259
H33   H     H_    0.724856 0.542337 0.904803 0.212804
H34   H     H_    0.653483 0.698387 0.909329 0.216177

loop_
_geom_bond_atom_site_label_1
_geom_bond_atom_site_label_2
_ccdc_geom_bond_type
C10   C27   S    
C8    C9    D    
C38   H30   S    
C32   H13   S    
C23   O5    A    
O3    Zn1   S    
C11   C19   S    
C29   C30   A    
C12   C28   S    
C28   C29   A    
C18   H5    S    
C3    C7    A    
C37   H33   S    
C30   C31   A    
C4    H9    S    
O7    Zn1   S    
C15   C16   A    
C29   H1    S    
C2    C32   A    
C18   C19   S    
C34   H20   S    
C1    O2    A    
S1    O10   D    
O1    Zn1   S    
O2    Zn2   S    
C20   C24   A    
C16   C17   A    
C33   H24   S    
O14   H19   S    
C24   N2    A    
C21   C22   A    
C21   S2    S    
C34   H21   S    
C36   H27   S    
C21   N1    A    
C26   H11   S    
O8    Zn2   S    
S2    O12   D    
C24   C25   S    
C36   H26   S    
C14   H3    S    
C37   C38   S    
C36   H25   S    
C25   C26   S    
C6    H2    S    
S2    O13   D    
C8    H16   S    
C33   H23   S    
C19   H6    S    
C9    C37   S    
C31   C32   A    
C22   H8    S    
S1    O9    D    
C17   C18   S    
C25   C33   S    
C19   H7    S    
C30   H17   S    
C16   C23   S    
C38   H31   S    
C35   H28   S    
C34   H22   S    
C1    C13   S    
C4    C10   A    
C3    C4    A    
C37   H34   S    
C15   H4    S    
C35   H29   S    
C23   O6    A    
C11   C17   A    
S1    O11   S    
C8    C31   S    
C5    H12   S    
C18   S1    S    
C33   C34   S    
C27   O7    A    
C25   H10   S    
O6    Zn2   S    
C6    C7    A    
C2    H15   S    
C3    H14   S    
C26   C35   S    
S2    O14   S    
C5    C10   A    
C27   O8    A    
C11   C13   A    
C5    C6    A    
C20   C26   S    
O4    Zn2   S    
C1    O1    A    
C12   O4    A    
C35   C36   S    
C7    C9    S    
O5    Zn1   S    
C20   N1    A    
O11   H18   S    
C38   H32   S    
N1    Zn2   S    
C14   C15   A    
C2    C28   A    
N2    Zn1   S    
C13   C14   A    
C12   O3    A    
C22   N2    A    
