data_mof_unit_18904.cif
_audit_creation_date              2013-03-05T16:09:06-0500
_audit_creation_method            fapswitch 2.2
_symmetry_space_group_name_H-M    P1
_symmetry_Int_Tables_number       1
_space_group_crystal_system       triclinic
_cell_length_a                    18.21308
_cell_length_b                    7.090155
_cell_length_c                    13.000759
_cell_angle_alpha                 90.0
_cell_angle_beta                  71.919857
_cell_angle_gamma                 90.000069
_cell_volume                      1595.93907467

loop_
_atom_site_label
_atom_site_type_symbol
_atom_site_description
_atom_site_fract_x
_atom_site_fract_y
_atom_site_fract_z
_atom_type_partial_charge
O1    O     O_R   0.453880 0.506200 0.150010 -0.595315
O2    O     O_R   0.546120 0.006200 0.849990 -0.595315
O3    O     O_R   0.604080 0.177770 0.007280 -0.596238
O4    O     O_R   0.395920 0.677770 0.992720 -0.596239
C1    C     C_R   0.635967 0.344518 0.001837 1.007312
C2    C     C_R   0.364033 0.844517 0.998163 1.007314
O5    O     O_R   0.458010 0.176640 0.159130 -0.592819
O6    O     O_R   0.541990 0.676640 0.840870 -0.592821
O7    O     O_R   0.399010 0.004010 0.002930 -0.593686
O8    O     O_R   0.600990 0.504010 0.997070 -0.593687
C3    C     C_R   0.443364 0.345342 0.201946 1.057624
C4    C     C_R   0.556636 0.845343 0.798054 1.057627
O9    O     O_3   0.480810 0.338440 0.948570 -0.286299
O10   O     O_3   0.519190 0.838440 0.051430 -0.286297
V1    V     V_3+5 0.503560 0.064490 0.009540 1.205202
V2    V     V_3+5 0.496440 0.564490 0.990460 1.205200
C5    C     C_R   0.580344 0.887054 0.499906 0.381085
C6    C     C_R   0.419657 0.387067 0.500096 0.381091
H1    H     H_    0.666395 0.946563 0.290751 0.156209
H2    H     H_    0.333602 0.446607 0.709251 0.156205
C7    C     C_R   0.591314 0.854496 0.680441 -0.260789
C8    C     C_R   0.408687 0.354495 0.319560 -0.260784
C9    C     C_R   0.954581 0.820453 0.386192 0.317571
C10   C     C_R   0.045419 0.320447 0.613809 0.317572
C11   C     C_R   0.919617 0.787570 0.496475 -0.107428
C12   C     C_R   0.080382 0.287559 0.503526 -0.107429
C13   C     C_R   0.839824 0.795676 0.542386 -0.159663
C14   C     C_R   0.160175 0.295667 0.457614 -0.159670
C15   C     C_R   0.791041 0.838847 0.479475 0.135581
C16   C     C_R   0.208959 0.338853 0.520523 0.135587
C17   C     C_R   0.825906 0.867786 0.366488 0.061935
C18   C     C_R   0.174093 0.367794 0.633510 0.061938
C19   C     C_R   0.708767 0.851282 0.524937 0.091827
C20   C     C_R   0.291234 0.351285 0.475063 0.091817
C21   C     C_R   0.662399 0.881393 0.456006 -0.047525
C22   C     C_R   0.337602 0.381412 0.543995 -0.047523
C23   C     C_R   0.698836 0.912187 0.345219 -0.150088
C24   C     C_R   0.301163 0.412216 0.654781 -0.150081
C25   C     C_R   0.778606 0.905746 0.301553 -0.188525
C26   C     C_R   0.221392 0.405772 0.698445 -0.188528
C27   C     C_R   0.671260 0.838910 0.637271 -0.328533
C28   C     C_R   0.328740 0.338911 0.362728 -0.328521
C29   C     C_R   0.545180 0.878890 0.613158 0.490627
C30   C     C_R   0.454820 0.378894 0.386843 0.490625
C31   C     C_R   0.907506 0.857499 0.320111 -0.343695
C32   C     C_R   0.092494 0.357500 0.679888 -0.343699
H3    H     H_    0.702578 0.822959 0.694702 0.147398
H4    H     H_    0.297422 0.322958 0.305295 0.147395
H5    H     H_    0.818455 0.764851 0.627566 0.156487
H6    H     H_    0.181544 0.264839 0.372435 0.156490
H7    H     H_    0.954609 0.756455 0.548227 0.184009
H8    H     H_    0.045391 0.256439 0.451774 0.184011
H9    H     H_    0.802829 0.931542 0.215559 0.119402
H10   H     H_    0.197167 0.431575 0.784438 0.119404
C33   C     C_1   0.216344 0.858742 0.000122 -0.198625
C34   C     C_1   0.783656 0.358742 0.999878 -0.198623
C35   C     C_1   0.283632 0.852579 0.998986 -0.221277
C36   C     C_1   0.716368 0.352580 0.001014 -0.221276
O11   O     O_R   0.899030 0.205490 0.002790 -0.600166
O12   O     O_R   0.100970 0.705490 0.997210 -0.600167
O13   O     O_R   0.042000 0.536370 0.840840 -0.580429
O14   O     O_R   0.958000 0.036370 0.159160 -0.580426
C37   C     C_R   0.057227 0.368005 0.797978 1.034112
C38   C     C_R   0.942772 0.868005 0.202021 1.034117
O15   O     O_R   0.895930 0.535070 0.992690 -0.584663
O16   O     O_R   0.104070 0.035070 0.007310 -0.584661
O17   O     O_R   0.953870 0.707520 0.150040 -0.601973
O18   O     O_R   0.046130 0.207520 0.849960 -0.601972
C39   C     C_R   0.864079 0.366752 0.998931 1.029914
C40   C     C_R   0.135921 0.866753 0.001069 1.029914
O19   O     O_3   0.019200 0.374340 0.051340 -0.283050
O20   O     O_3   0.980800 0.874340 0.948660 -0.283051
V3    V     V_3+5 0.996440 0.648350 0.990470 1.218966
V4    V     V_3+5 0.003560 0.148350 0.009530 1.218969
O21   O     O_3   0.465995 0.890607 0.660808 -0.777877
H11   H     H_    0.440378 0.911515 0.604860 0.362991
O22   O     O_3   0.534005 0.390601 0.339195 -0.777881
H12   H     H_    0.559622 0.411506 0.395142 0.362996
O23   O     O_3   0.533351 0.901727 0.434881 -0.757307
H13   H     H_    0.555270 0.821636 0.370221 0.331451
O24   O     O_3   0.466653 0.401759 0.565115 -0.757322
H14   H     H_    0.444740 0.321685 0.629784 0.331454
N1    N     N_R   0.037627 0.814087 0.342839 0.223138
O25   O     O_R   0.077350 0.712481 0.390023 -0.415220
O26   O     O_R   0.074470 0.926981 0.265050 -0.441658
N2    N     N_R   0.962374 0.314069 0.657165 0.223136
O27   O     O_R   0.922651 0.212464 0.609976 -0.415223
O28   O     O_R   0.925527 0.426968 0.734951 -0.441657

loop_
_geom_bond_atom_site_label_1
_geom_bond_atom_site_label_2
_geom_bond_distance
_ccdc_geom_bond_type
C16   C18   1.422698 A    
C9    C31   1.413976 A    
C13   C15   1.415315 A    
O1    C3    1.308842 A    
O2    C4    1.308840 A    
C2    O7    1.308793 A    
C5    C29   1.412836 A    
O24   H14   0.990044 S    
C25   H9    1.082509 S    
O22   H12   0.989607 S    
O5    C3    1.311320 A    
C9    N1    1.441623 S    
C1    C36   1.462183 S    
C30   O22   1.384216 S    
C21   C23   1.403313 A    
C10   C12   1.396016 A    
C12   H8    1.083355 S    
N2    O28   1.300980 A    
O18   V4    2.020509 S    
O16   V4    1.991032 S    
C15   C19   1.432749 A    
O12   V3    1.974806 S    
C5    O23   1.380986 S    
C6    O24   1.380987 S    
O15   V3    1.991033 S    
O13   C37   1.310152 A    
O14   C38   1.310151 A    
H1    C23   1.081506 S    
C7    C29   1.399026 A    
C14   H6    1.076127 S    
C8    C30   1.399031 A    
C34   C36   1.221797 T    
C20   C28   1.409961 A    
O17   V3    2.020512 S    
O5    V1    2.025161 S    
O6    V2    2.025161 S    
C2    C35   1.462183 S    
C29   O21   1.384220 S    
C16   C20   1.432751 A    
C38   O17   1.306717 A    
O4    C2    1.309402 A    
O19   V3    2.185421 S    
N2    O27   1.301627 A    
O13   V3    2.025142 S    
C4    C7    1.463460 S    
O4    V2    1.991060 S    
O21   H11   0.989616 S    
C11   H7    1.083341 S    
C6    C30   1.412833 A    
H2    C24   1.081522 S    
N1    O25   1.301608 A    
O12   C40   1.317141 A    
O6    C4    1.311321 A    
C27   H3    1.077022 S    
O1    V2    2.018976 S    
C28   H4    1.077043 S    
O2    V1    2.018977 S    
O11   V4    1.974806 S    
O11   C39   1.317142 A    
C7    C27   1.392877 A    
O20   V4    2.185421 S    
N1    O26   1.300976 A    
C26   H10   1.082508 S    
C33   C35   1.221797 T    
O3    V1    1.991057 S    
C37   O18   1.306719 A    
C3    C8    1.463466 S    
C18   C32   1.421753 A    
O20   V3    1.743584 S    
O3    C1    1.309403 A    
O19   V4    1.743583 S    
C11   C13   1.390387 A    
O16   C40   1.318365 A    
C31   C38   1.470737 S    
C12   C14   1.390389 A    
C32   C37   1.470739 S    
C19   C27   1.409954 A    
C14   C16   1.415332 A    
O7    V1    1.979575 S    
C10   C32   1.413976 A    
C1    O8    1.308793 A    
C23   C25   1.386808 A    
O8    V2    1.979579 S    
C24   C26   1.386811 A    
C8    C28   1.392873 A    
C6    C22   1.425269 A    
O15   C39   1.318365 A    
C22   C24   1.403320 A    
C19   C21   1.425346 A    
C17   C25   1.406656 A    
C20   C22   1.425378 A    
C18   C26   1.406665 A    
C33   C40   1.462082 S    
O23   H13   0.990048 S    
C9    C11   1.396018 A    
C15   C17   1.422701 A    
C34   C39   1.462082 S    
C17   C31   1.421751 A    
O9    V2    1.744305 S    
O10   V1    1.744305 S    
O14   V4    2.025143 S    
C5    C21   1.425259 A    
C10   N2    1.441620 S    
C13   H5    1.076128 S    
