data_mof_unit_62554.cif
_audit_creation_date              2012-12-11T15:58:29-0500
_audit_creation_method            fapswitch 2.2
_symmetry_space_group_name_H-M    P1
_symmetry_Int_Tables_number       1
_space_group_crystal_system       triclinic
_cell_length_a                    6.947512
_cell_length_b                    17.328191
_cell_length_c                    18.661981
_cell_angle_alpha                 106.659172
_cell_angle_beta                  90.220368
_cell_angle_gamma                 90.60083
_cell_volume                      2152.20206161

loop_
_atom_site_label
_atom_site_type_symbol
_atom_type_description
_atom_site_fract_x
_atom_site_fract_y
_atom_site_fract_z
_atom_type_partial_charge
O1    O     O_R   0.505770 0.442340 0.559500 -0.520063
O2    O     O_R   0.168070 0.405470 0.411510 -0.527952
O3    O     O_R   0.005580 0.557660 0.440500 -0.511247
C1    C     C_R   0.337914 0.380766 0.384382 0.778130
O4    O     O_R   0.175550 0.432860 0.557160 -0.533930
O5    O     O_R   0.013110 0.585240 0.587190 -0.529640
C2    C     C_R   0.344454 0.415850 0.580573 0.699528
O6    O     O_R   0.498240 0.414760 0.412810 -0.526936
O7    O     O_3   0.341770 0.549960 0.509680 -0.362800
V1    V     V_3+5 0.063870 0.490730 0.498200 1.483371
O8    O     O_R   0.683850 0.594530 0.588490 -0.559481
C3    C     C_R   0.854640 0.618850 0.615854 0.705867
O9    O     O_R   0.676380 0.567140 0.442840 -0.530420
C4    C     C_R   0.845327 0.584134 0.419416 0.741565
V2    V     V_3+5 0.564820 0.509270 0.501800 1.447879
O10   O     O_3   0.836790 0.450040 0.490320 -0.352214
C5    C     C_1   0.856540 0.636162 0.367402 -0.184744
C6    C     C_1   0.867790 0.678727 0.323842 0.019385
C7    C     C_1   0.882180 0.728902 0.271951 0.012268
C8    C     C_1   0.894540 0.771151 0.228139 0.010300
C9    C     C_1   0.908947 0.821318 0.176240 0.011189
C10   C     C_1   0.920233 0.863867 0.132664 -0.198829
C11   C     C_3   0.763703 0.834082 0.754839 0.177147
C12   C     C_3   0.735741 0.760760 0.683154 0.286220
H1    H     H_    0.680624 0.747720 0.851544 0.189862
H2    H     H_    0.672527 0.636775 0.749200 0.175581
C13   C     C_3   0.828053 0.736187 0.828029 -0.455006
C14   C     C_3   0.106913 0.793762 0.770806 0.162302
C15   C     C_3   0.907976 0.813160 0.811044 -0.043858
C16   C     C_3   0.873205 0.690778 0.685730 -0.017777
C17   C     C_3   0.819768 0.663945 0.755888 -0.528915
C18   C     C_3   0.085359 0.724069 0.696597 0.217766
H3    H     H_    0.917009 0.720661 0.871433 0.166234
H4    H     H_    0.920643 0.616626 0.761753 0.162519
C19   C     C_3   0.480409 0.240018 0.330971 0.081804
C20   C     C_3   0.509892 0.168708 0.257890 0.211418
H5    H     H_    0.432628 0.115150 0.265802 0.111209
H6    H     H_    0.610305 0.362836 0.273159 0.118340
C21   C     C_3   0.465718 0.338488 0.251881 0.161188
C22   C     C_3   0.159334 0.268966 0.281809 0.596831
C23   C     C_3   0.358127 0.309289 0.313908 -0.121669
C24   C     C_3   0.415117 0.187615 0.188712 -0.133103
C25   C     C_3   0.495141 0.267838 0.179315 -0.431453
C26   C     C_3   0.195225 0.202056 0.206766 -0.378688
H7    H     H_    0.126848 0.144642 0.209852 0.185319
C27   C     C_1   0.354835 0.363754 0.632576 -0.198857
C28   C     C_1   0.366482 0.321177 0.676116 0.008370
C29   C     C_1   0.381910 0.271007 0.727992 0.008091
C30   C     C_1   0.395249 0.228783 0.771789 0.009473
C31   C     C_1   0.410658 0.178643 0.823691 0.010990
C32   C     C_1   0.422270 0.136118 0.867277 -0.205135
O11   O     O_R   0.278700 0.085270 0.087180 -0.549459
O12   O     O_R   0.601470 0.067150 0.942830 -0.526408
O13   O     O_R   0.763830 0.914750 0.912810 -0.542956
C33   C     C_R   0.432589 0.084105 0.919356 0.712725
O14   O     O_R   0.608870 0.094540 0.088490 -0.523851
O15   O     O_R   0.771290 0.942340 0.059510 -0.519903
C34   C     C_R   0.438518 0.117777 0.116972 0.737749
O16   O     O_R   0.271240 0.057690 0.940480 -0.522011
O17   O     O_3   0.435150 0.950050 0.990310 -0.354992
V3    V     V_3+5 0.713080 0.009270 0.001800 1.446251
O18   O     O_R   0.100490 0.932820 0.057180 -0.528086
C35   C     C_R   0.931515 0.915867 0.080619 0.723816
O19   O     O_R   0.093090 0.905430 0.911530 -0.513940
C36   C     C_R   0.923201 0.882676 0.882905 0.750728
V4    V     V_3+5 0.212120 0.990690 0.998230 1.451418
O20   O     O_3   0.940180 0.049940 0.009690 -0.366963
H8    H     H_    0.620856 0.847160 0.782771 0.085387
H9    H     H_    0.182177 0.673819 0.698995 0.069832
O21   O     O_3   0.654346 0.267230 0.369062 -0.606351
H10   H     H_    0.732253 0.293064 0.338207 0.339244
H11   H     H_    0.397354 0.215375 0.370405 0.147320
O22   O     O_3   0.703936 0.146233 0.246150 -0.606105
H12   H     H_    0.774104 0.189308 0.231672 0.325714
H13   H     H_    0.650030 0.262855 0.164386 0.134570
O23   O     O_3   0.027664 0.326716 0.271722 -0.655328
H14   H     H_    0.054222 0.338996 0.224040 0.308621
O24   O     O_3   0.828738 0.903156 0.736371 -0.623630
H15   H     H_    0.714864 0.926529 0.718333 0.315091
O25   O     O_3   0.075990 0.230092 0.331248 -0.643849
H16   H     H_    0.044543 0.271096 0.378601 0.318442
H17   H     H_    0.121981 0.216704 0.159221 0.137733
O26   O     O_3   0.365297 0.401559 0.235699 -0.650373
H18   H     H_    0.453348 0.426245 0.206433 0.289280
H19   H     H_    0.420225 0.280966 0.131351 0.168415
O27   O     O_3   0.764981 0.784704 0.617958 -0.589156
H20   H     H_    0.685997 0.748303 0.577512 0.282473
H21   H     H_    0.584450 0.738642 0.683522 0.012344
O28   O     O_3   0.249316 0.775939 0.817547 -0.666709
H22   H     H_    0.218423 0.722842 0.825075 0.279595
H23   H     H_    0.158027 0.848923 0.757116 0.176021
O29   O     O_3   0.139458 0.751193 0.635280 -0.602494
H24   H     H_    0.281561 0.757455 0.637306 0.282364

loop_
_geom_bond_atom_site_label_1
_geom_bond_atom_site_label_2
_ccdc_geom_bond_type
C33   O16   A    
C13   C15   S    
O22   H12   S    
C20   C24   S    
C7    C8    T    
C1    O6    A    
C24   C34   S    
C21   C23   S    
O13   C36   A    
C18   O29   S    
C13   H3    S    
C11   C15   S    
C20   H5    S    
C26   H17   S    
O16   V4    S    
O5    C3    A    
H6    C21   S    
C1    C23   S    
V2    O10   S    
C6    C7    S    
C10   C35   S    
O8    V2    S    
O26   H18   S    
C19   O21   S    
C11   C12   S    
C22   O25   S    
C14   O28   S    
O1    V2    S    
O7    V1    S    
V4    O20   S    
O17   V4    S    
H2    C17   S    
O9    C4    A    
C4    C5    S    
C24   C26   S    
O15   C35   A    
O12   C33   A    
C25   H13   S    
O18   V4    S    
C13   C17   S    
C25   H19   S    
C2    C27   S    
C14   C18   S    
O23   H14   S    
O4    C2    A    
O27   H20   S    
C21   C25   S    
C31   C32   T    
C22   O23   S    
O17   V3    S    
C19   C20   S    
O19   V4    S    
C11   H8    S    
O2    C1    A    
O18   C35   A    
V3    O20   S    
C28   C29   S    
C5    C6    T    
C17   H4    S    
C12   H21   S    
O21   H10   S    
O3    C4    A    
O11   C34   A    
C15   C36   S    
C22   C23   S    
C19   H11   S    
O6    V2    S    
O9    V2    S    
C24   C25   S    
O12   V3    S    
O2    V1    S    
O11   V4    S    
C26   H7    S    
C27   C28   T    
C14   C15   S    
C3    C16   S    
O1    C2    A    
O25   H16   S    
O5    V1    S    
O8    C3    A    
O15   V3    S    
C18   H9    S    
O13   V3    S    
H1    C13   S    
O19   C36   A    
O7    V2    S    
C21   O26   S    
O4    V1    S    
O3    V1    S    
V1    O10   S    
C16   C18   S    
O24   H15   S    
C16   C17   S    
C29   C30   T    
O29   H24   S    
O14   C34   A    
C14   H23   S    
C32   C33   S    
C11   O24   S    
C19   C23   S    
C12   C16   S    
C20   O22   S    
C22   C26   S    
C8    C9    S    
C30   C31   S    
O14   V3    S    
O28   H22   S    
C9    C10   T    
C12   O27   S    
