data_mof_unit_31087.cif
_audit_creation_date              2012-12-11T14:30:19-0500
_audit_creation_method            fapswitch 2.2
_symmetry_space_group_name_H-M    P1
_symmetry_Int_Tables_number       1
_space_group_crystal_system       triclinic
_cell_length_a                    12.780312
_cell_length_b                    12.794777
_cell_length_c                    27.182274
_cell_angle_alpha                 90.029364
_cell_angle_beta                  90.059728
_cell_angle_gamma                 120.211439
_cell_volume                      3841.14577966

loop_
_atom_site_label
_atom_site_type_symbol
_atom_type_description
_atom_site_fract_x
_atom_site_fract_y
_atom_site_fract_z
_atom_type_partial_charge
C1    C     C_R   0.556562 0.455597 0.821820 0.577711
C2    C     C_R   0.456382 0.559719 0.177648 0.566984
C3    C     C_R   0.134945 0.413807 0.487356 0.269595
C4    C     C_R   0.271952 0.873760 0.013561 0.271096
C5    C     C_R   0.580658 0.723273 0.487371 0.314771
C6    C     C_R   0.284871 0.875453 0.536030 0.292359
C7    C     C_R   0.133311 0.424675 0.962512 0.301722
C8    C     C_R   0.575528 0.710690 0.537998 0.282176
C9    C     C_R   0.284349 0.872891 0.963004 0.295920
C10   C     C_R   0.136099 0.430440 0.537704 0.301494
C11   C     C_R   0.588839 0.715950 0.962984 0.296731
C12   C     C_R   0.440724 0.897047 0.322181 0.539145
C13   C     C_R   0.103095 0.543374 0.177943 0.561166
C14   C     C_R   0.001610 0.510497 0.973328 -0.093588
C15   C     C_R   0.504154 0.006561 0.526590 -0.094598
C16   C     C_R   0.492604 0.496435 0.972131 -0.106055
C17   C     C_R   0.001263 0.512517 0.526609 -0.090810
C18   C     C_R   0.504386 0.996378 0.972278 -0.105966
C19   C     C_R   0.485279 0.492464 0.528274 -0.103401
C20   C     C_R   0.491462 0.994548 0.474907 -0.118017
C21   C     C_R   0.894259 0.440559 0.677270 0.609947
C22   C     C_R   0.017520 0.512286 0.024791 -0.112591
C23   C     C_R   0.484445 0.504665 0.476572 -0.118987
C24   C     C_R   0.492078 0.983375 0.023965 -0.115407
C25   C     C_R   0.017569 0.514504 0.475146 -0.108931
C26   C     C_R   0.492030 0.508786 0.023847 -0.109788
C27   C     C_R   0.886250 0.613790 0.984422 0.272781
C28   C     C_R   0.723743 0.127751 0.516771 0.288295
C29   C     C_R   0.387795 0.276900 0.981565 0.298707
C30   C     C_R   0.879977 0.609463 0.515049 0.268594
C31   C     C_R   0.724310 0.112745 0.981918 0.300258
C32   C     C_R   0.544588 0.101705 0.821979 0.581129
C33   C     C_R   0.377375 0.273033 0.518980 0.301064
C34   C     C_R   0.711073 0.114913 0.464894 0.295973
C35   C     C_R   0.905609 0.619067 0.035851 0.312089
C36   C     C_R   0.373117 0.285045 0.467186 0.296880
C37   C     C_R   0.712099 0.097098 0.033672 0.298481
C38   C     C_R   0.900798 0.616047 0.463674 0.306800
C39   C     C_R   0.385095 0.289081 0.033346 0.296515
C40   C     C_R   0.896561 0.532870 0.903450 0.229675
C41   C     C_R   0.631757 0.075787 0.599288 0.227975
C42   C     C_R   0.435676 0.369666 0.899181 0.222343
C43   C     C_R   0.556487 0.455155 0.678138 0.580877
C44   C     C_R   0.892452 0.529833 0.596163 0.231695
C45   C     C_R   0.631087 0.068141 0.899485 0.220536
C46   C     C_R   0.432320 0.367152 0.601322 0.220494
C47   C     C_R   0.579404 0.027807 0.391789 0.229473
C48   C     C_R   0.980832 0.560774 0.108307 0.245074
C49   C     C_R   0.424010 0.416602 0.393662 0.261844
C50   C     C_R   0.580458 0.017795 0.107094 0.247800
C51   C     C_R   0.979737 0.560757 0.391402 0.249034
C52   C     C_R   0.438049 0.420383 0.106899 0.247909
C53   C     C_R   0.060206 0.523811 0.126695 0.035470
C54   C     C_R   0.894803 0.440812 0.822629 0.607561
C55   C     C_R   0.464514 0.940694 0.373570 0.000801
C56   C     C_R   0.476226 0.536737 0.126074 0.031475
C57   C     C_R   0.060193 0.524806 0.373234 0.043540
C58   C     C_R   0.463687 0.939625 0.126146 0.030484
C59   C     C_R   0.480177 0.534703 0.373714 -0.001043
C60   C     C_R   0.528743 0.044467 0.628930 0.007199
C61   C     C_R   0.946114 0.480256 0.872383 0.065543
C62   C     C_R   0.510680 0.470461 0.630013 -0.003368
C63   C     C_R   0.528215 0.041171 0.870340 0.005106
C64   C     C_R   0.944573 0.479966 0.627412 0.069575
C65   C     C_R   0.544645 0.102209 0.677881 0.580234
C66   C     C_R   0.511805 0.472255 0.870034 -0.006147
C67   C     C_R   0.928732 0.553769 0.953612 0.055032
C68   C     C_R   0.620703 0.070527 0.547582 0.103115
C69   C     C_R   0.438129 0.380195 0.950912 0.094131
C70   C     C_R   0.925196 0.552136 0.546081 0.057689
C71   C     C_R   0.620746 0.059259 0.951181 0.098282
C72   C     C_R   0.431167 0.376648 0.549574 0.099355
C73   C     C_R   0.594674 0.049081 0.443513 0.084055
C74   C     C_R   0.965596 0.562414 0.056598 0.085264
C75   C     C_R   0.428709 0.401251 0.445463 0.092116
C76   C     C_R   0.456907 0.560327 0.322635 0.529583
C77   C     C_R   0.595709 0.034254 0.055181 0.088143
C78   C     C_R   0.963824 0.562292 0.443115 0.090021
C79   C     C_R   0.439253 0.405287 0.054972 0.089647
C80   C     C_R   0.026941 0.446846 0.891159 0.198951
C81   C     C_R   0.412791 0.979727 0.608073 0.210745
C82   C     C_R   0.564087 0.588007 0.891019 0.198184
C83   C     C_R   0.027921 0.449922 0.608866 0.201893
C84   C     C_R   0.412424 0.976972 0.891238 0.209760
C85   C     C_R   0.562359 0.585588 0.608831 0.203419
C86   C     C_R   0.365228 0.884396 0.405706 0.192456
C87   C     C_R   0.440308 0.896582 0.177677 0.563743
C88   C     C_R   0.116246 0.480995 0.094342 0.196478
C89   C     C_R   0.549381 0.635087 0.405096 0.199845
C90   C     C_R   0.363263 0.886009 0.094175 0.195811
C91   C     C_R   0.117906 0.484481 0.405852 0.198508
C92   C     C_R   0.522618 0.637023 0.094184 0.194951
C93   C     C_R   0.057249 0.463581 0.941747 -0.036888
C94   C     C_R   0.400057 0.950288 0.557434 -0.041342
C95   C     C_R   0.545525 0.600748 0.941488 -0.049186
C96   C     C_R   0.058698 0.467668 0.558357 -0.033554
C97   C     C_R   0.399786 0.944734 0.941569 -0.048445
C98   C     C_R   0.102818 0.543444 0.321975 0.560909
C99   C     C_R   0.539843 0.596888 0.558829 -0.053186
C100  C     C_R   0.375302 0.921339 0.454845 -0.057539
C101  C     C_R   0.085745 0.463590 0.044359 -0.066812
C102  C     C_R   0.540200 0.621400 0.456171 -0.034770
C103  C     C_R   0.375250 0.917522 0.044290 -0.063000
C104  C     C_R   0.087456 0.467577 0.455787 -0.069139
C105  C     C_R   0.542389 0.625399 0.044272 -0.062211
C106  C     C_R   0.132380 0.408562 0.012884 0.269876
C107  C     C_R   0.271857 0.874406 0.485433 0.270213
C108  C     C_R   0.601225 0.728645 0.013606 0.268128
Cr1   Cr    Cr6+3 0.487630 0.241180 0.750000 1.108008
Cr2   Cr    Cr6+3 0.753550 0.512370 0.750000 1.162750
Cr3   Cr    Cr6+3 0.758820 0.246450 0.750000 1.098198
Cr4   Cr    Cr6+3 0.241180 0.487630 0.250000 1.137140
Cr5   Cr    Cr6+3 0.512370 0.753550 0.250000 1.122160
Cr6   Cr    Cr6+3 0.246450 0.758820 0.250000 1.138715
H1    H     H_    0.923141 0.572376 0.173615 0.316590
H2    H     H_    0.728832 0.051231 0.850091 0.345227
H3    H     H_    0.728441 0.493951 0.591389 0.316868
H4    H     H_    0.320891 0.272165 0.849419 0.346401
H5    H     H_    0.885829 0.757926 0.047847 0.352257
H6    H     H_    0.875775 0.151818 0.452276 0.348629
H7    H     H_    0.254779 0.124152 0.044480 0.347872
H8    H     H_    0.876032 0.751775 0.451651 0.365942
H9    H     H_    0.877175 0.132718 0.044907 0.348604
H10   H     H_    0.239628 0.122108 0.455798 0.351501
H11   H     H_    0.888753 0.261376 0.513956 0.312677
H12   H     H_    0.649815 0.077600 0.326072 0.320771
H13   H     H_    0.769092 0.666667 0.986901 0.316414
H14   H     H_    0.339663 0.106755 0.515868 0.314764
H15   H     H_    0.888733 0.247445 0.984974 0.311253
H16   H     H_    0.758656 0.657393 0.511848 0.319707
H17   H     H_    0.358139 0.113384 0.984357 0.311852
H18   H     H_    0.277345 0.509861 0.085696 0.327190
H19   H     H_    0.234124 0.723208 0.416811 0.324601
H20   H     H_    0.497151 0.771251 0.085468 0.327065
H21   H     H_    0.281510 0.519705 0.414734 0.315446
H22   H     H_    0.226454 0.726921 0.085308 0.327423
H23   H     H_    0.420108 0.347838 0.171938 0.317202
H24   H     H_    0.579596 0.782127 0.374738 0.341316
H25   H     H_    0.260339 0.973328 0.618126 0.402207
H26   H     H_    0.042669 0.308723 0.876425 0.396382
H27   H     H_    0.709135 0.740623 0.615714 0.397502
H28   H     H_    0.262333 0.976123 0.882299 0.403354
H29   H     H_    0.046461 0.313675 0.623829 0.395252
H30   H     H_    0.713990 0.738031 0.881977 0.400879
H31   H     H_    0.131415 0.295213 0.060152 0.370801
H32   H     H_    0.160595 0.867881 0.435525 0.372723
H33   H     H_    0.713156 0.838104 0.062336 0.371899
H34   H     H_    0.922510 0.571827 0.325861 0.316995
H35   H     H_    0.133658 0.300395 0.439952 0.374473
H36   H     H_    0.163810 0.878072 0.062180 0.370113
H37   H     H_    0.544000 0.822980 0.448987 0.293849
H38   H     H_    0.206768 0.768972 0.590897 0.339505
H39   H     H_    0.243820 0.459539 0.908870 0.335482
H40   H     H_    0.545621 0.782481 0.594971 0.335537
H41   H     H_    0.203263 0.768566 0.907740 0.339625
H42   H     H_    0.246898 0.466743 0.591434 0.334971
H43   H     H_    0.565506 0.796348 0.907759 0.333950
H44   H     H_    0.653244 0.072459 0.172200 0.317545
H45   H     H_    0.394990 0.338235 0.329487 0.323496
H46   H     H_    0.731885 0.058318 0.647447 0.346125
H47   H     H_    0.734399 0.502789 0.907628 0.316198
H48   H     H_    0.319227 0.270588 0.651489 0.346407
O1    O     O_R   0.460870 0.120930 0.805240 -0.418819
O2    O     O_R   0.120930 0.460870 0.194760 -0.447383
O3    O     O_R   0.539130 0.660060 0.305240 -0.474087
O4    O     O_R   0.339940 0.879070 0.194760 -0.444197
O5    O     O_R   0.498910 0.350470 0.801870 -0.514322
O6    O     O_R   0.851560 0.501090 0.698130 -0.464726
O7    O     O_R   0.649530 0.148440 0.801870 -0.514176
O8    O     O_R   0.498910 0.350470 0.698130 -0.515675
O9    O     O_R   0.851560 0.501090 0.801870 -0.463628
O10   O     O_R   0.649530 0.148440 0.698130 -0.514963
O11   O     O_R   0.350470 0.498910 0.301870 -0.464056
O12   O     O_R   0.660060 0.539130 0.694760 -0.401709
O13   O     O_R   0.501090 0.851560 0.198130 -0.464150
O14   O     O_R   0.148440 0.649530 0.301870 -0.468608
O15   O     O_R   0.350470 0.498910 0.198130 -0.467421
O16   O     O_R   0.501090 0.851560 0.301870 -0.526180
O17   O     O_R   0.148440 0.649530 0.198130 -0.467981
O18   O     O_3   0.666667 0.333333 0.750000 -0.310471
O19   O     O_3   0.333333 0.666667 0.250000 -0.285645
O20   O     O_3   0.920397 0.598037 0.139524 -0.598659
O21   O     O_3   0.677507 0.088972 0.360682 -0.597810
O22   O     O_3   0.396417 0.320983 0.137520 -0.597545
O23   O     O_R   0.879070 0.339940 0.805240 -0.442373
O24   O     O_3   0.918406 0.596596 0.359972 -0.592897
O25   O     O_3   0.680048 0.075425 0.137827 -0.596004
O26   O     O_3   0.364695 0.316140 0.363589 -0.586264
O27   O     O_3   0.743817 0.114538 0.620100 -0.586658
O28   O     O_3   0.804797 0.548783 0.885552 -0.611008
O29   O     O_3   0.359013 0.256400 0.623027 -0.581995
O30   O     O_3   0.742405 0.105977 0.878253 -0.583534
O31   O     O_3   0.797958 0.541429 0.613793 -0.611465
O32   O     O_3   0.361005 0.258453 0.877920 -0.579710
O33   O     O_3   0.872770 0.685038 0.065872 -0.621423
O34   O     O_R   0.460870 0.120930 0.694760 -0.419412
O35   O     O_3   0.811938 0.159968 0.434979 -0.619459
O36   O     O_3   0.324686 0.188083 0.062937 -0.625025
O37   O     O_3   0.865770 0.680002 0.433518 -0.593775
O38   O     O_3   0.813190 0.138070 0.063361 -0.623098
O39   O     O_3   0.311529 0.183921 0.437679 -0.627857
O40   O     O_3   0.835992 0.199314 0.537948 -0.633939
O41   O     O_3   0.830136 0.671012 0.963482 -0.649217
O42   O     O_3   0.333270 0.160651 0.540118 -0.630084
O43   O     O_3   0.836662 0.184554 0.960963 -0.627422
O44   O     O_3   0.819453 0.662552 0.535723 -0.655435
O45   O     O_R   0.660060 0.539130 0.805240 -0.406433
O46   O     O_3   0.346265 0.164707 0.960511 -0.630764
O47   O     O_3   0.213920 0.473612 0.111270 -0.650779
O48   O     O_3   0.262523 0.782225 0.389515 -0.661060
O49   O     O_3   0.531145 0.742409 0.111309 -0.649779
O50   O     O_3   0.217633 0.480280 0.389327 -0.653384
O51   O     O_3   0.256945 0.789657 0.111273 -0.649508
O52   O     O_3   0.629308 0.747451 0.386203 -0.579085
O53   O     O_3   0.314241 0.953592 0.637253 -0.641495
O54   O     O_3   0.064542 0.386617 0.860301 -0.661995
O55   O     O_3   0.640504 0.684659 0.636891 -0.640402
O56   O     O_R   0.879070 0.339940 0.694760 -0.442965
O57   O     O_3   0.314048 0.954643 0.862578 -0.639301
O58   O     O_3   0.067477 0.391556 0.639815 -0.663856
O59   O     O_3   0.640238 0.686172 0.862328 -0.644405
O60   O     O_3   0.176557 0.336710 0.029939 -0.646727
O61   O     O_3   0.156014 0.827302 0.467162 -0.645649
O62   O     O_3   0.674172 0.843936 0.031733 -0.644254
O63   O     O_3   0.178292 0.341343 0.470396 -0.647468
O64   O     O_3   0.156956 0.832897 0.031572 -0.643212
O65   O     O_3   0.613449 0.835463 0.469419 -0.607720
O66   O     O_3   0.182423 0.802383 0.563135 -0.629405
O67   O     O_R   0.120930 0.460870 0.305240 -0.446632
O68   O     O_3   0.206514 0.397132 0.934882 -0.638779
O69   O     O_3   0.599127 0.810689 0.565731 -0.650242
O70   O     O_3   0.180832 0.802571 0.935894 -0.625852
O71   O     O_3   0.209955 0.404002 0.565460 -0.644196
O72   O     O_3   0.622459 0.819029 0.935843 -0.635772
O73   O     O_R   0.539130 0.660060 0.194760 -0.438825
O74   O     O_R   0.339940 0.879070 0.305240 -0.435237

loop_
_geom_bond_atom_site_label_1
_geom_bond_atom_site_label_2
_ccdc_geom_bond_type
C3    C104  A    
C12   O16   A    
C32   O7    A    
C4    C103  A    
C35   C74   A    
H36   O64   S    
C50   O25   S    
C89   C102  A    
C45   C71   A    
H35   O63   S    
H37   O65   S    
C34   O35   S    
C91   C104  A    
C58   C87   S    
C15   C94   A    
C88   C101  A    
C19   C72   A    
C80   O54   S    
C82   O59   S    
C81   O53   S    
C44   C64   A    
H7    O36   S    
C44   O31   S    
C22   C101  A    
C46   C62   A    
C9    O70   S    
C27   O41   S    
C84   C97   A    
C76   O11   A    
C36   C75   A    
C8    C99   A    
C52   O22   S    
H46   O27   S    
C31   O43   S    
Cr5   O3    S    
H40   O69   S    
C8    O69   S    
H43   O72   S    
C87   O4    A    
C1    O5    A    
C61   C80   A    
H34   O24   S    
C30   O44   S    
C32   O1    A    
H41   O70   S    
C101  C106  A    
C33   C36   A    
H15   O43   S    
C30   C38   A    
Cr1   O34   S    
Cr5   O73   S    
Cr3   O10   S    
H14   O42   S    
C37   O38   S    
C42   O32   S    
H20   O49   S    
C85   O55   S    
C21   C64   S    
Cr1   O5    S    
C33   C72   A    
H27   O55   S    
H29   O58   S    
H38   O66   S    
Cr2   O6    S    
C59   C89   A    
H25   O53   S    
C6    C94   A    
C40   C67   A    
C6    O66   S    
C6    C107  A    
C49   C75   A    
C44   C70   A    
Cr2   O45   S    
C51   C57   A    
Cr3   O56   S    
Cr2   O18   S    
H8    O37   S    
C52   C79   A    
C86   C100  A    
C3    O63   S    
C14   C93   A    
C46   C72   A    
C35   O33   S    
Cr5   O13   S    
C65   O34   A    
Cr2   O9    S    
C11   O72   S    
C31   C71   A    
Cr4   O11   S    
H2    O30   S    
C28   C34   A    
C17   C70   A    
H44   O25   S    
C85   C99   A    
H19   O48   S    
H12   O21   S    
C15   C20   A    
C13   C53   S    
C7    C93   A    
H17   O46   S    
C26   C105  A    
H48   O29   S    
C30   C70   A    
C43   O8    A    
Cr6   O4    S    
C41   C68   A    
C29   C69   A    
Cr2   O12   S    
C16   C26   A    
C48   C53   A    
Cr4   O2    S    
C62   C85   A    
C81   C94   A    
H11   O40   S    
Cr3   O23   S    
H18   O47   S    
C65   O10   A    
C25   C78   A    
C50   C58   A    
C48   C74   A    
H9    O38   S    
C27   C67   A    
C47   C73   A    
C47   O21   S    
Cr1   O1    S    
H23   O22   S    
C19   C99   A    
C91   O50   S    
Cr6   O74   S    
H31   O60   S    
C38   C78   A    
C27   C35   A    
C13   O17   A    
C37   C77   A    
C45   C63   A    
C42   C69   A    
C40   C61   A    
C31   C37   A    
Cr3   O7    S    
C39   C79   A    
H45   O26   S    
H26   O54   S    
C19   C23   A    
C64   C83   A    
H16   O44   S    
C84   O57   S    
H21   O50   S    
C66   C82   A    
C98   O67   A    
C98   O14   A    
C60   C81   A    
C2    O73   A    
C45   O30   S    
C20   C100  A    
C10   C96   A    
H42   O71   S    
C14   C67   A    
C29   C39   A    
C1    C66   S    
C7    C106  A    
C76   O3    A    
C17   C96   A    
C105  C108  A    
C29   O46   S    
H30   O59   S    
C58   C90   A    
C2    O15   A    
C18   C97   A    
C39   O36   S    
C60   C65   S    
C4    O64   S    
C88   O47   S    
Cr3   O18   S    
C18   C24   A    
H39   O68   S    
Cr5   O19   S    
H6    O35   S    
C36   O39   S    
C22   C74   A    
C50   C77   A    
C11   C108  A    
H1    O20   S    
Cr1   O8    S    
H28   O57   S    
C13   O2    A    
C47   C55   A    
H22   O51   S    
C11   C95   A    
C18   C71   A    
C12   O74   A    
C5    C102  A    
H24   O52   S    
C100  C107  A    
C9    C97   A    
C82   C95   A    
C57   C91   A    
C28   C68   A    
C21   O6    A    
C54   O9    A    
C42   C66   A    
C16   C69   A    
C86   O48   S    
C41   C60   A    
C23   C75   A    
H47   O28   S    
C46   O29   S    
C5    C8    A    
C25   C104  A    
Cr4   O19   S    
C54   C61   S    
C32   C63   S    
Cr6   O19   S    
C87   O13   A    
C63   C84   A    
C33   O42   S    
C26   C79   A    
C49   C59   A    
C41   O27   S    
H10   O39   S    
C21   O56   A    
C24   C103  A    
C17   C25   A    
C14   C22   A    
C55   C86   A    
C80   C93   A    
C51   C78   A    
C28   O40   S    
C51   O24   S    
C2    C56   S    
C48   O20   S    
C83   O58   S    
C16   C95   A    
Cr1   O18   S    
C106  O60   S    
C49   O26   S    
C83   C96   A    
C108  O62   S    
C15   C68   A    
C59   C76   S    
Cr6   O14   S    
C43   O12   A    
C20   C73   A    
Cr5   O16   S    
C53   C88   A    
H5    O33   S    
C1    O45   A    
C57   C98   S    
C90   C103  A    
C12   C55   S    
H3    O31   S    
C10   O71   S    
Cr4   O67   S    
C34   C73   A    
C23   C102  A    
C107  O61   S    
C5    O65   S    
C92   C105  A    
C56   C92   A    
C40   O28   S    
Cr6   O17   S    
H4    O32   S    
C24   C77   A    
C3    C10   A    
C38   O37   S    
C89   O52   S    
C92   O49   S    
H32   O61   S    
C4    C9    A    
H13   O41   S    
C54   O23   A    
C90   O51   S    
H33   O62   S    
C52   C56   A    
C43   C62   S    
Cr4   O15   S    
C7    O68   S    
