data_mof_unit_15577.cif
_audit_creation_date              2012-12-10T18:57:43-0500
_audit_creation_method            fapswitch 2.2
_symmetry_space_group_name_H-M    P1
_symmetry_Int_Tables_number       1
_space_group_crystal_system       triclinic
_cell_length_a                    10.933245
_cell_length_b                    10.811312
_cell_length_c                    9.589889
_cell_angle_alpha                 90.029938
_cell_angle_beta                  90.252328
_cell_angle_gamma                 91.104303
_cell_volume                      1133.329255

loop_
_atom_site_label
_atom_site_type_symbol
_atom_type_description
_atom_site_fract_x
_atom_site_fract_y
_atom_site_fract_z
_atom_type_partial_charge
C1    C     C_R   0.500906 0.262560 0.500122 0.819063
C2    C     C_R   0.512068 0.129783 0.501686 -0.147342
C3    C     C_R   0.565563 0.067875 0.389345 -0.173061
C4    C     C_R   0.574604 0.938996 0.390970 0.377763
C5    C     C_R   0.521060 0.871166 0.502711 -0.178236
C6    C     C_R   0.483986 0.936034 0.620570 0.057057
C7    C     C_3   0.371204 0.924447 0.707534 0.237011
C8    C     C_3   0.368224 0.065235 0.707819 -0.480710
C9    C     C_R   0.562835 0.589858 0.073908 0.238149
C10   C     C_R   0.431821 0.415157 0.070910 0.444784
C11   C     C_R   0.432791 0.416230 0.923492 -0.058451
C12   C     C_R   0.265477 0.497929 0.499936 0.870412
C13   C     C_R   0.562316 0.589953 0.926595 0.233501
C14   C     C_3   0.696354 0.615356 0.919513 -0.485450
C15   C     C_3   0.698025 0.613083 0.077210 -0.484570
C16   C     C_R   0.505748 0.737529 0.500198 0.849430
C17   C     C_R   0.734593 0.501198 0.500318 0.827699
C18   C     C_2   0.932449 0.487992 0.387159 -0.148791
C19   C     C_2   0.866831 0.507326 0.502648 -0.312529
C20   C     C_2   0.066390 0.494829 0.385707 -0.143371
C21   C     C_2   0.133410 0.490588 0.502617 -0.300041
C22   C     C_R   0.481340 0.062985 0.621009 0.044679
Cu1   Cu    Cu3+1 0.499990 0.499980 0.640670 0.949667
Cu2   Cu    Cu3+1 0.500010 0.500020 0.359330 0.958519
H1    H     H_    0.887201 0.467984 0.288666 0.159076
H2    H     H_    0.386106 0.105864 0.812591 0.179112
H3    H     H_    0.379790 0.347371 0.866286 0.160072
H4    H     H_    0.747826 0.538075 0.872855 0.217645
H5    H     H_    0.717647 0.708221 0.875116 0.198451
H6    H     H_    0.748760 0.533430 0.119502 0.203269
H7    H     H_    0.724197 0.704046 0.122575 0.224527
H8    H     H_    0.908764 0.530690 0.601886 0.145626
H9    H     H_    0.110413 0.501095 0.284541 0.171413
H10   H     H_    0.092508 0.478212 0.604345 0.145615
H11   H     H_    0.600914 0.119187 0.300724 0.187737
H12   H     H_    0.387989 0.881483 0.811215 0.111744
H13   H     H_    0.288935 0.104431 0.651007 0.210261
N1    N     N_R   0.500780 0.500930 0.147930 -0.246425
N2    N     N_R   0.500780 0.500890 0.852020 -0.228765
O1    O     O_R   0.500000 0.319640 0.618810 -0.581046
O2    O     O_R   0.500010 0.319680 0.381230 -0.585999
O3    O     O_R   0.321940 0.499980 0.618760 -0.578239
O4    O     O_R   0.321950 0.500020 0.381180 -0.607621
O5    O     O_R   0.499990 0.680320 0.618770 -0.574481
O6    O     O_R   0.500000 0.680360 0.381190 -0.562480
O7    O     O_R   0.678050 0.499980 0.618820 -0.588418
O8    O     O_R   0.678060 0.500020 0.381240 -0.588481
O9    O     O_3   0.363445 0.321493 0.130772 -0.748249
H14   H     H_    0.340942 0.346157 0.225068 0.372837
O10   O     O_3   0.635151 0.883841 0.282705 -0.728968
H15   H     H_    0.674773 0.809303 0.320394 0.313259
O11   O     O_3   0.273262 0.870996 0.632707 -0.702837
H16   H     H_    0.203403 0.867884 0.698321 0.326184

loop_
_geom_bond_atom_site_label_1
_geom_bond_atom_site_label_2
_ccdc_geom_bond_type
C16   O6    A    
C2    C22   A    
C8    C22   S    
Cu1   Cu2   S    
C15   H7    S    
C6    C7    S    
C11   H3    S    
C8    H2    S    
C7    H12   S    
C16   O5    A    
Cu2   N1    S    
C3    H11   S    
C10   N1    A    
C19   H8    S    
O10   H15   S    
C9    C15   S    
C7    C8    S    
Cu1   O7    S    
C13   C14   S    
C20   C21   D    
C11   N2    A    
Cu2   O2    S    
Cu1   O3    S    
C18   H1    S    
Cu1   N2    S    
Cu2   O6    S    
C1    O2    A    
O9    H14   S    
C17   C19   S    
C7    O11   S    
C2    C3    A    
C12   O4    A    
C18   C20   S    
C10   O9    S    
C5    C6    A    
C13   N2    A    
C10   C11   A    
C20   H9    S    
C14   H5    S    
C12   O3    A    
Cu1   O1    S    
C6    C22   A    
C17   O7    A    
C3    C4    A    
C15   H6    S    
C1    C2    S    
C8    H13   S    
C4    O10   S    
Cu2   O4    S    
C9    C13   A    
C14   C15   S    
C18   C19   D    
C5    C16   S    
C9    N1    A    
C21   H10   S    
C1    O1    A    
C14   H4    S    
Cu2   O8    S    
C12   C21   S    
Cu1   O5    S    
C17   O8    A    
O11   H16   S    
C4    C5    A    
