data_mof_unit_20382.cif
_audit_creation_date              2012-12-10T16:58:26-0500
_audit_creation_method            fapswitch 2.2
_symmetry_space_group_name_H-M    P1
_symmetry_Int_Tables_number       1
_space_group_crystal_system       triclinic
_cell_length_a                    7.741472
_cell_length_b                    8.562949
_cell_length_c                    23.270977
_cell_angle_alpha                 90.899509
_cell_angle_beta                  86.171068
_cell_angle_gamma                 93.725269
_cell_volume                      1535.83358546

loop_
_atom_site_label
_atom_site_type_symbol
_atom_type_description
_atom_site_fract_x
_atom_site_fract_y
_atom_site_fract_z
_atom_type_partial_charge
C1    C     C_R   0.545901 0.794841 0.498268 0.948878
C2    C     C_R   0.454035 0.205132 0.501113 0.977699
C3    C     C_R   0.497084 0.403858 0.767007 -0.118958
C4    C     C_R   0.402631 0.664222 0.245447 -0.121639
C5    C     C_R   0.495231 0.380286 0.707527 0.060992
C6    C     C_R   0.399209 0.648114 0.305094 0.057478
C7    C     C_R   0.510799 0.512708 0.671843 -0.025634
C8    C     C_R   0.496118 0.530841 0.327823 -0.065036
C9    C     C_R   0.530667 0.663881 0.695148 -0.263531
C10   C     C_R   0.597468 0.437530 0.290866 -0.258260
C11   C     C_R   0.531017 0.685496 0.754253 -0.093009
C12   C     C_R   0.599635 0.455922 0.231743 -0.093802
C13   C     C_R   0.512779 0.555668 0.790156 0.290608
C14   C     C_R   0.501466 0.568485 0.209113 0.277004
C15   C     C_2   0.570101 0.958286 0.496891 -0.398818
C16   C     C_2   0.429728 0.041609 0.500998 -0.400148
C17   C     C_R   0.502390 0.498553 0.610332 0.865045
C18   C     C_R   0.498322 0.506758 0.389498 0.856358
C19   C     C_R   0.348803 0.539210 0.122660 0.514100
C20   C     C_R   0.652271 0.631419 0.876641 0.510634
C21   C     C_R   0.646109 0.637035 0.117321 0.505844
C22   C     C_R   0.353770 0.537273 0.882251 0.506435
C23   C     C_R   0.648419 0.644251 0.057337 -0.017404
C24   C     C_R   0.347093 0.543800 0.942303 -0.017577
C25   C     C_R   0.496673 0.595733 0.030003 -0.020063
C26   C     C_R   0.498004 0.595001 0.969604 -0.019073
C27   C     C_R   0.344600 0.544770 0.062872 -0.013429
C28   C     C_R   0.651287 0.642151 0.936634 -0.017038
C29   C     C_R   0.798824 0.695933 0.024177 -0.181120
C30   C     C_R   0.195058 0.496874 0.975475 -0.182583
C31   C     C_R   0.800353 0.694622 0.964299 -0.167043
C32   C     C_R   0.193850 0.497224 0.035287 -0.166137
H1    H     H_    0.916411 0.735157 0.044306 0.196628
H2    H     H_    0.077574 0.457245 0.955360 0.198309
H3    H     H_    0.919219 0.732513 0.939821 0.200301
H4    H     H_    0.075293 0.458278 0.059733 0.200478
H5    H     H_    0.483331 0.304739 0.795715 0.139683
H6    H     H_    0.329125 0.752137 0.226909 0.151015
H7    H     H_    0.543832 0.765116 0.667445 0.142804
H8    H     H_    0.673145 0.348788 0.307827 0.162979
H9    H     H_    0.542984 0.802802 0.772259 0.143890
H10   H     H_    0.675932 0.381631 0.203375 0.159613
H11   H     H_    0.702629 0.009502 0.492949 0.184726
H12   H     H_    0.297200 0.990336 0.504813 0.180838
H13   H     H_    0.013767 0.382512 0.456877 0.188878
H14   H     H_    0.986288 0.617770 0.543022 0.196166
N1    N     N_R   0.498536 0.583171 0.148335 -0.356469
N2    N     N_R   0.505688 0.577431 0.851022 -0.358019
N3    N     N_2   0.950330 0.457950 0.484560 -0.176015
N4    N     N_2   0.049670 0.542050 0.515440 -0.175312
O1    O     O_R   0.389250 0.738570 0.503790 -0.617619
O2    O     O_R   0.610750 0.261430 0.496210 -0.611625
O3    O     O_R   0.678390 0.711620 0.493890 -0.633063
O4    O     O_R   0.321610 0.288380 0.506110 -0.630780
O5    O     O_R   0.355400 0.513520 0.588790 -0.612213
O6    O     O_R   0.644600 0.486480 0.411210 -0.617879
O7    O     O_R   0.644550 0.486570 0.578900 -0.620017
O8    O     O_R   0.355450 0.513430 0.421100 -0.626230
O9    O     O_2   0.205675 0.487603 0.154946 -0.545230
O10   O     O_2   0.799024 0.671208 0.844132 -0.532182
O11   O     O_2   0.789838 0.682644 0.144558 -0.544859
O12   O     O_2   0.210371 0.489991 0.855089 -0.535261
Zn1   Zn    Zn3+2 0.306930 0.518000 0.506610 0.929916
Zn2   Zn    Zn3+2 0.693070 0.482000 0.493390 0.930531
C33   C     C_3   0.473388 0.215015 0.683801 -0.458466
C34   C     C_3   0.283164 0.171201 0.672616 -0.325170
C35   C     C_3   0.255339 0.997987 0.657079 -0.856532
H15   H     H_    0.344115 0.967026 0.619807 0.262152
H16   H     H_    0.279120 0.924967 0.694416 0.269939
H17   H     H_    0.119457 0.972113 0.645563 0.253708
H18   H     H_    0.198583 0.196284 0.711755 0.247146
H19   H     H_    0.243472 0.241795 0.636702 0.240006
H20   H     H_    0.556813 0.202606 0.643425 0.202118
H21   H     H_    0.517606 0.131422 0.715015 0.209908
C36   C     C_3   0.298100 0.762520 0.342140 -0.429272
C37   C     C_3   0.104630 0.709493 0.348085 -0.280439
C38   C     C_3   0.003177 0.819562 0.387732 -0.838927
H22   H     H_    0.049501 0.818497 0.431887 0.262141
H23   H     H_    0.018583 0.940834 0.371040 0.248574
H24   H     H_    0.863300 0.780655 0.389793 0.263097
H25   H     H_    0.050554 0.707255 0.304974 0.235205
H26   H     H_    0.086980 0.589360 0.365805 0.237790
H27   H     H_    0.350903 0.778998 0.385111 0.218975
H28   H     H_    0.313766 0.880089 0.322052 0.193289

loop_
_geom_bond_atom_site_label_1
_geom_bond_atom_site_label_2
_ccdc_geom_bond_type
C22   N2    A    
C6    C36   S    
C38   H22   S    
C23   C29   A    
C24   C26   A    
O3    Zn2   S    
C19   N1    A    
C36   H28   S    
O4    Zn1   S    
C15   C16   D    
C29   H1    S    
C9    H7    S    
C33   H20   S    
C10   H8    S    
C1    O3    A    
C12   H10   S    
C18   O8    A    
C34   H19   S    
C7    C17   S    
O5    Zn1   S    
O6    Zn2   S    
C1    C15   S    
C20   O10   S    
C2    C16   S    
C16   H12   S    
C21   O11   S    
C3    C13   A    
C18   O6    A    
C34   C35   S    
N3    Zn2   S    
N4    Zn1   S    
C10   C12   A    
C38   H23   S    
C30   H2    S    
C35   H15   S    
O1    Zn1   S    
C37   C38   S    
C5    C33   S    
O2    Zn2   S    
C37   H26   S    
C5    C7    A    
C6    C8    A    
C20   C28   A    
C19   O9    S    
C25   C26   A    
C8    C18   S    
C33   H21   S    
C35   H16   S    
C36   C37   S    
C22   O12   S    
C1    O1    A    
C34   H18   S    
H13   N3    S    
C9    C11   A    
C20   N2    A    
C2    O2    A    
C4    C6    A    
C4    H6    S    
N3    N4    D    
C21   C23   A    
C2    O4    A    
C22   C24   A    
C32   H4    S    
C19   C27   A    
O7    Zn2   S    
C38   H24   S    
O8    Zn1   S    
C7    C9    A    
C17   O5    A    
C27   C32   A    
C28   C31   A    
C12   C14   A    
C3    C5    A    
C37   H25   S    
C13   N2    S    
C14   N1    S    
C25   C27   A    
H14   N4    S    
C26   C28   A    
C35   H17   S    
C15   H11   S    
C29   C31   A    
C30   C32   A    
C11   C13   A    
C36   H27   S    
C11   H9    S    
C31   H3    S    
C23   C25   A    
C4    C14   A    
C24   C30   A    
C3    H5    S    
C8    C10   A    
C33   C34   S    
C17   O7    A    
C21   N1    A    
