data_mof_unit_17714.cif
_audit_creation_date              2012-12-10T18:09:56-0500
_audit_creation_method            fapswitch 2.2
_symmetry_space_group_name_H-M    P1
_symmetry_Int_Tables_number       1
_space_group_crystal_system       triclinic
_cell_length_a                    10.845163
_cell_length_b                    12.589187
_cell_length_c                    13.199471
_cell_angle_alpha                 81.478265
_cell_angle_beta                  93.697521
_cell_angle_gamma                 100.628119
_cell_volume                      1750.39602206

loop_
_atom_site_label
_atom_site_type_symbol
_atom_type_description
_atom_site_fract_x
_atom_site_fract_y
_atom_site_fract_z
_atom_type_partial_charge
C1    C     C_R   0.485886 0.439082 0.691319 0.874218
C2    C     C_R   0.496804 0.453844 0.973400 0.050054
C3    C     C_R   0.541276 0.471909 0.873004 -0.023734
C4    C     C_R   0.741640 0.496978 0.505148 0.843426
C5    C     C_R   0.532265 0.537794 0.036372 0.078704
C6    C     C_R   0.618256 0.634151 0.001816 0.013932
C7    C     C_R   0.673024 0.642414 0.907987 -0.207994
C8    C     C_R   0.641432 0.560836 0.847053 0.440122
C9    C     C_R   0.484823 0.528118 0.133264 -0.206468
C10   C     C_R   0.614450 0.699786 0.165679 -0.054474
C11   C     C_R   0.482996 0.401767 0.801953 -0.129773
C12   C     C_3   0.123169 0.502094 0.494120 -0.122154
C13   C     C_R   0.325970 0.100278 0.331887 0.362208
C14   C     C_R   0.662679 0.802246 0.622455 -0.075650
C15   C     C_R   0.721853 0.910050 0.622301 -0.169811
C16   C     C_R   0.514397 0.561620 0.309082 0.865907
C17   C     C_R   0.674407 0.991843 0.555053 0.405858
C18   C     C_R   0.557103 0.965971 0.504554 -0.015794
C19   C     C_R   0.513808 0.856066 0.494125 0.161385
C20   C     C_R   0.488312 0.045754 0.456173 -0.049009
C21   C     C_R   0.395407 0.019478 0.378323 0.067230
C22   C     C_R   0.374746 0.912592 0.351773 -0.054992
C23   C     C_3   0.082539 0.601566 0.418766 -0.046384
C24   C     C_R   0.426545 0.831033 0.414550 -0.222755
C25   C     C_R   0.504002 0.148932 0.488407 0.006728
C26   C     C_R   0.348194 0.201771 0.367363 -0.119240
C27   C     C_R   0.259255 0.501875 0.495539 0.905044
C28   C     C_3   0.905248 0.377878 0.480765 -0.082076
C29   C     C_3   0.048508 0.390302 0.461534 -0.305913
C30   C     C_3   0.934927 0.585048 0.414096 -0.243394
C31   C     C_3   0.950582 0.521384 0.610282 -0.132231
C32   C     C_3   0.879034 0.493710 0.503489 -0.153364
C33   C     C_1   0.827439 0.332633 0.394420 0.325963
C34   C     C_3   0.088027 0.502489 0.607256 0.173112
C35   C     C_1   0.129621 0.708148 0.454284 0.128950
C36   C     C_1   0.662577 0.780257 0.233309 0.219458
C37   C     C_1   0.734847 0.819508 0.027018 0.167010
C38   C     C_1   0.300460 0.173439 0.975293 0.185257
C39   C     C_1   0.874216 0.294174 0.570987 0.172016
C40   C     C_1   0.299395 0.882708 0.262591 0.316395
C41   C     C_1   0.833411 0.934736 0.686332 0.213360
C42   C     C_1   0.075902 0.374864 0.355993 0.230930
C43   C     C_1   0.877368 0.565806 0.311750 0.198875
C44   C     C_1   0.137050 0.611696 0.316686 0.153785
C45   C     C_R   0.653601 0.717697 0.064384 -0.012323
C46   C     C_1   0.946138 0.634157 0.627390 0.309690
C47   C     C_1   0.901338 0.451429 0.704225 0.190295
C48   C     C_R   0.534572 0.600885 0.200826 -0.108468
C49   C     C_R   0.405646 0.302825 0.836655 -0.201443
C50   C     C_R   0.378329 0.276234 0.939695 0.048351
C51   C     C_R   0.420530 0.351779 0.007202 -0.174087
H1    H     H_    0.905466 0.662757 0.425024 0.165871
H2    H     H_    0.084407 0.321540 0.510570 0.158432
H3    H     H_    0.094123 0.418281 0.645841 0.155500
H4    H     H_    0.183238 0.645530 0.636580 0.368666
H5    H     H_    0.701890 0.497985 0.740580 0.323641
H6    H     H_    0.197688 0.144825 0.232345 0.340221
H7    H     H_    0.838400 0.079047 0.528481 0.344025
H8    H     H_    0.746428 0.710277 0.882660 0.180300
H9    H     H_    0.412804 0.460942 0.160834 0.154976
H10   H     H_    0.363101 0.247978 0.783007 0.162280
H11   H     H_    0.394334 0.327132 0.085752 0.133130
H12   H     H_    0.298914 0.265917 0.332505 0.147587
H13   H     H_    0.570170 0.171525 0.549723 0.181850
H14   H     H_    0.702309 0.737955 0.667722 0.219922
H15   H     H_    0.398140 0.748770 0.399181 0.199738
N1    N     N_R   0.433240 0.222190 0.444680 -0.136585
N2    N     N_1   0.922825 0.954564 0.737756 -0.156797
N3    N     N_1   0.096495 0.362202 0.274061 -0.205646
N4    N     N_1   0.833086 0.551290 0.231712 -0.175286
N5    N     N_1   0.179784 0.618742 0.237309 -0.184267
N6    N     N_1   0.943525 0.722371 0.641103 -0.182714
N7    N     N_1   0.868610 0.395619 0.779104 -0.163819
N8    N     N_R   0.566070 0.776970 0.554790 -0.128131
N9    N     N_1   0.767007 0.296933 0.327693 -0.151034
N10   N     N_1   0.162368 0.792027 0.482406 -0.190378
N11   N     N_1   0.701311 0.844546 0.287004 -0.171429
N12   N     N_1   0.799497 0.900561 0.997301 -0.153239
N13   N     N_1   0.237912 0.090877 0.003828 -0.127909
N14   N     N_1   0.852251 0.230598 0.643337 -0.161352
N15   N     N_1   0.239565 0.859780 0.190631 -0.136499
O1    O     O_R   0.468120 0.366740 0.627160 -0.623182
O2    O     O_3   0.718273 0.568125 0.766965 -0.782858
O3    O     O_3   0.235903 0.079069 0.255090 -0.756430
O4    O     O_3   0.749533 0.088997 0.520265 -0.781069
O5    O     O_R   0.510770 0.544830 0.662520 -0.567652
O6    O     O_R   0.663880 0.410950 0.482330 -0.611981
O7    O     O_R   0.706530 0.589040 0.517700 -0.607027
O8    O     O_R   0.489230 0.455170 0.337480 -0.606506
O9    O     O_R   0.531880 0.633260 0.372840 -0.639439
O10   O     O_R   0.293470 0.410960 0.482300 -0.636497
O11   O     O_R   0.336120 0.589050 0.517670 -0.606718
O12   O     O_3   0.175159 0.568287 0.666616 -0.733423
Zn1   Zn    Zn3+2 0.471520 0.381090 0.476390 0.962105
Zn2   Zn    Zn3+2 0.528480 0.618910 0.523610 0.982893

loop_
_geom_bond_atom_site_label_1
_geom_bond_atom_site_label_2
_ccdc_geom_bond_type
C16   O9    A    
O1    Zn1   S    
C6    C45   A    
C29   C42   S    
C8    O2    S    
C25   N1    A    
C34   O12   S    
H4    O12   S    
C16   C48   S    
C7    C8    A    
C4    O6    A    
C13   O3    S    
C17   O4    S    
C26   N1    A    
C14   N8    A    
C28   C29   S    
C36   N11   T    
C5    C6    A    
C12   C29   S    
C38   N13   T    
O6    Zn1   S    
C44   N5    T    
C18   C19   A    
O8    Zn1   S    
C33   N9    T    
C31   C46   S    
C1    C11   S    
N1    Zn1   S    
C27   O10   A    
C46   N6    T    
C24   H15   S    
O7    Zn2   S    
C16   O8    A    
C31   C47   S    
C21   C22   A    
C51   H11   S    
N8    Zn2   S    
C7    H8    S    
C50   C51   A    
C41   N2    T    
C35   N10   T    
C31   C34   S    
C49   H10   S    
C12   C27   S    
C23   C30   S    
C28   C32   S    
C15   C41   S    
C3    C8    A    
O5    Zn2   S    
C28   C39   S    
C1    O1    A    
C42   N3    T    
C23   C44   S    
C25   H13   S    
C26   H12   S    
C5    C9    A    
C11   C49   A    
C31   C32   S    
C12   C23   S    
C22   C40   S    
C10   C45   A    
C17   C18   A    
H6    O3    S    
C13   C21   A    
C27   O11   A    
C47   N7    T    
C4    C32   S    
C4    O7    A    
C28   C33   S    
C34   H3    S    
C43   N4    T    
C23   C35   S    
C10   C48   A    
C22   C24   A    
C30   C43   S    
C2    C5    A    
C12   C34   S    
H7    O4    S    
H5    O2    S    
C1    O5    A    
C15   C17   A    
C30   H1    S    
C40   N15   T    
C19   N8    A    
O9    Zn2   S    
C6    C7    A    
C38   C50   S    
C37   N12   T    
C9    H9    S    
C39   N14   T    
C2    C3    A    
O10   Zn1   S    
C30   C32   S    
C29   H2    S    
C14   H14   S    
C19   C24   A    
C18   C20   A    
O11   Zn2   S    
C13   C26   A    
C3    C11   A    
C2    C51   A    
C20   C21   A    
C9    C48   A    
C49   C50   A    
C20   C25   A    
C14   C15   A    
C10   C36   S    
C37   C45   S    
