data_mof_unit_26389.cif
_audit_creation_date              2013-03-05T15:51:06-0500
_audit_creation_method            fapswitch 2.2
_symmetry_space_group_name_H-M    P1
_symmetry_Int_Tables_number       1
_space_group_crystal_system       triclinic
_cell_length_a                    10.492295
_cell_length_b                    12.175091
_cell_length_c                    12.706968
_cell_angle_alpha                 96.979306
_cell_angle_beta                  92.778719
_cell_angle_gamma                 85.028125
_cell_volume                      1603.97422769

loop_
_atom_site_label
_atom_site_type_symbol
_atom_site_description
_atom_site_fract_x
_atom_site_fract_y
_atom_site_fract_z
_atom_type_partial_charge
O1    O     O_R   0.506270 0.421700 0.658830 -0.606944
O2    O     O_R   0.493730 0.578300 0.341170 -0.608804
O3    O     O_R   0.491200 0.609310 0.646410 -0.645643
O4    O     O_R   0.508800 0.390690 0.353590 -0.638669
C1    C     C_R   0.498452 0.524450 0.700614 0.868756
C2    C     C_R   0.500278 0.475351 0.299444 0.869653
O5    O     O_R   0.693580 0.406210 0.506230 -0.628930
O6    O     O_R   0.306420 0.593790 0.493770 -0.627934
O7    O     O_R   0.678510 0.593830 0.493810 -0.629533
O8    O     O_R   0.321490 0.406170 0.506190 -0.626145
C3    C     C_R   0.742123 0.499347 0.503265 0.860773
C4    C     C_R   0.257706 0.500808 0.496979 0.846603
Zn1   Zn    Zn3+2 0.510060 0.374730 0.508290 0.920889
Zn2   Zn    Zn3+2 0.489940 0.625270 0.491710 0.915425
C5    C     C_3   0.976255 0.406072 0.535878 0.173244
C6    C     C_3   0.023189 0.594771 0.464279 0.171006
C7    C     C_3   0.053137 0.496424 0.598236 -0.219525
C8    C     C_3   0.946141 0.504487 0.402108 -0.216043
H1    H     H_    0.100448 0.493713 0.678083 0.138478
H2    H     H_    0.898776 0.506507 0.322217 0.136340
C9    C     C_3   0.122178 0.503921 0.496184 -0.035814
C10   C     C_3   0.877316 0.496796 0.504079 -0.040517
C11   C     C_3   0.047009 0.413117 0.434097 -0.219367
C12   C     C_3   0.952072 0.588014 0.566102 -0.211618
H3    H     H_    0.085207 0.342257 0.378609 0.140215
H4    H     H_    0.909677 0.659183 0.619827 0.159697
C13   C     C_R   0.501853 0.456805 0.186519 -0.046645
C14   C     C_R   0.492773 0.541412 0.813541 -0.052677
C15   C     C_R   0.376535 0.613222 0.968777 -0.192785
C16   C     C_R   0.612710 0.380629 0.029961 -0.207048
C17   C     C_R   0.397768 0.615140 0.862247 -0.239776
C18   C     C_R   0.591728 0.378764 0.136565 -0.229958
C19   C     C_R   0.567272 0.466231 0.869971 -0.264466
C20   C     C_R   0.426664 0.531595 0.130298 -0.270303
C21   C     C_R   0.543502 0.460511 0.974740 0.184144
C22   C     C_R   0.447830 0.535132 0.024686 0.183325
H5    H     H_    0.356308 0.590785 0.170470 0.145551
H6    H     H_    0.639428 0.408387 0.830443 0.144611
H7    H     H_    0.650367 0.321489 0.181175 0.154686
H8    H     H_    0.336207 0.669705 0.816966 0.150400
H9    H     H_    0.302458 0.670074 0.006475 0.157118
H10   H     H_    0.685034 0.322322 0.991682 0.157569
N1    N     N_R   0.523490 0.207800 0.519350 -0.132064
N2    N     N_R   0.476510 0.792200 0.480650 -0.146066
C23   C     C_R   0.379826 0.946323 0.398624 0.259115
C24   C     C_R   0.628182 0.053587 0.597696 0.250298
C25   C     C_R   0.396522 0.832472 0.405819 -0.091943
C26   C     C_R   0.604074 0.168111 0.594386 -0.106930
C27   C     C_R   0.544489 0.863172 0.552014 0.244259
C28   C     C_R   0.462975 0.134901 0.444119 0.186706
C29   C     C_R   0.546808 0.978200 0.537303 -0.095858
C30   C     C_R   0.460215 0.020771 0.460621 -0.151826
H11   H     H_    0.661330 0.225518 0.643662 0.169302
H12   H     H_    0.337598 0.776264 0.356731 0.162747
C31   C     C_3   0.954944 0.296619 0.577302 -0.402270
C32   C     C_3   0.084054 0.233611 0.602193 -0.372914
C33   C     C_3   0.066564 0.122100 0.640019 -0.690096
H13   H     H_    0.014787 0.134691 0.715197 0.282314
H14   H     H_    0.012404 0.070120 0.578722 0.300257
H15   H     H_    0.161750 0.077907 0.654406 0.230945
H16   H     H_    0.141846 0.218911 0.530088 0.257060
H17   H     H_    0.138516 0.283876 0.664983 0.222423
H18   H     H_    0.898812 0.314526 0.650232 0.199336
H19   H     H_    0.899422 0.245429 0.516025 0.224038
C34   C     C_3   0.045959 0.703469 0.422073 -0.393067
C35   C     C_3   0.918784 0.760374 0.383535 -0.369592
C36   C     C_3   0.936095 0.874587 0.351718 -0.694902
H20   H     H_    0.969266 0.929878 0.421633 0.302047
H21   H     H_    0.006555 0.867890 0.288328 0.286369
H22   H     H_    0.843064 0.911666 0.321518 0.228484
H23   H     H_    0.878818 0.708566 0.313704 0.215049
H24   H     H_    0.848281 0.769620 0.447169 0.268373
H25   H     H_    0.091737 0.758594 0.486487 0.229106
H26   H     H_    0.111784 0.685353 0.355106 0.193162
C37   C     C_3   0.443437 0.161721 0.329890 -0.333174
C38   C     C_3   0.314867 0.225397 0.303087 -0.286194
C39   C     C_3   0.287014 0.217642 0.183445 -0.856973
H27   H     H_    0.365363 0.250390 0.143957 0.264586
H28   H     H_    0.277145 0.130249 0.149618 0.303922
H29   H     H_    0.196123 0.267536 0.166962 0.241737
H30   H     H_    0.235227 0.194163 0.340613 0.255980
H31   H     H_    0.313582 0.313791 0.332597 0.235865
H32   H     H_    0.525961 0.203537 0.308365 0.200387
H33   H     H_    0.453261 0.083543 0.274828 0.195052
C40   C     C_3   0.589803 0.823860 0.657309 -0.335447
C41   C     C_3   0.480641 0.837466 0.735617 -0.364383
C42   C     C_3   0.446072 0.958518 0.779245 -0.836904
H34   H     H_    0.532469 0.998055 0.814077 0.282432
H35   H     H_    0.401653 0.005975 0.715775 0.256978
H36   H     H_    0.375709 0.961834 0.842314 0.251771
H37   H     H_    0.393283 0.802229 0.697274 0.244943
H38   H     H_    0.512627 0.791538 0.803751 0.228314
H39   H     H_    0.632527 0.738079 0.643348 0.208923
H40   H     H_    0.670016 0.863935 0.698950 0.230820
N3    N     N_R   0.269755 0.984722 0.338896 0.186982
O9    O     O_R   0.169963 0.027922 0.390470 -0.469945
O10   O     O_R   0.254163 0.944404 0.239934 -0.445317
N4    N     N_R   0.746378 0.017469 0.648921 0.175758
O11   O     O_R   0.783172 0.068762 0.739714 -0.449014
O12   O     O_R   0.824738 0.942326 0.599095 -0.470301

loop_
_geom_bond_atom_site_label_1
_geom_bond_atom_site_label_2
_geom_bond_distance
_ccdc_geom_bond_type
N2    C27   1.389751 A    
C31   C32   1.536528 S    
C6    C9    1.528263 S    
C20   H5    1.086171 S    
N3    O9    1.299891 A    
C42   H34   1.111004 S    
C40   C41   1.538492 S    
C32   C33   1.522579 S    
O5    C3    1.288036 A    
C15   C22   1.399121 A    
C16   C21   1.399854 A    
O1    C1    1.295620 A    
C12   H4    1.110672 S    
C41   H37   1.111596 S    
C37   H33   1.110974 S    
C33   H14   1.108939 S    
C34   H25   1.111477 S    
C17   H8    1.082633 S    
C23   C25   1.395573 A    
O4    Zn1   1.998008 S    
C7    H1    1.110592 S    
C40   H39   1.097592 S    
C5    C10   1.526444 S    
C35   H24   1.111380 S    
C2    C13   1.425907 S    
C27   C29   1.437644 A    
C31   H18   1.111203 S    
C28   C30   1.433176 A    
N1    C26   1.349254 A    
C20   C22   1.377235 A    
N2    C25   1.346671 A    
C32   H17   1.111485 S    
C5    C11   1.536967 S    
C35   C36   1.522369 S    
C24   N4    1.432417 S    
C6    C12   1.538745 S    
O2    C2    1.297687 A    
C39   H28   1.109620 S    
C13   C20   1.393121 A    
C26   H11   1.082327 S    
C24   C26   1.400721 A    
C7    C12   1.548673 S    
C36   H20   1.108537 S    
C27   C40   1.516528 S    
C38   C39   1.527235 S    
O4    C2    1.301632 A    
C38   H31   1.094955 S    
O7    Zn2   1.981897 S    
C41   C42   1.529482 S    
C33   H15   1.110599 S    
C23   C30   1.431147 A    
C39   H27   1.109932 S    
C4    C9    1.418795 S    
C7    C9    1.531656 S    
C34   H26   1.111180 S    
C8    C11   1.544966 S    
C36   H21   1.110550 S    
C21   C22   1.414011 A    
C5    C31   1.528540 S    
C37   C38   1.541156 S    
C1    C14   1.428087 S    
C40   H40   1.091607 S    
C35   H23   1.111219 S    
O6    C4    1.287633 A    
C31   H19   1.111356 S    
O7    C3    1.294572 A    
O3    Zn2   1.998010 S    
O8    C4    1.296434 A    
C25   H12   1.082513 S    
C14   C19   1.394327 A    
C34   C35   1.535966 S    
N4    O12   1.301207 A    
C9    C11   1.531519 S    
C10   C12   1.532360 S    
O1    Zn1   1.930133 S    
C23   N3    1.426892 S    
Zn1   N1    2.046475 S    
Zn2   N2    2.046475 S    
C39   H29   1.110619 S    
C5    C7    1.539049 S    
O6    Zn2   1.997639 S    
C15   H9    1.083951 S    
C13   C18   1.396828 A    
C8    C10   1.530078 S    
C14   C17   1.397196 A    
O3    C1    1.304565 A    
O8    Zn1   1.981897 S    
C38   H30   1.099087 S    
N3    O10   1.301155 A    
N1    C28   1.391903 A    
C3    C10   1.415696 S    
C19   H6    1.086244 S    
C36   H22   1.110514 S    
C42   H35   1.109802 S    
C29   C30   1.413812 A    
C15   C17   1.385805 A    
C41   H38   1.109882 S    
C28   C37   1.526515 S    
C16   C18   1.386073 A    
C37   H32   1.103154 S    
C33   H13   1.109720 S    
C24   C29   1.435774 A    
C19   C21   1.377365 A    
C8    H2    1.110487 S    
C11   H3    1.105312 S    
O2    Zn2   1.930131 S    
O5    Zn1   1.997637 S    
C6    C8    1.538500 S    
N4    O11   1.301369 A    
C42   H36   1.110523 S    
C18   H7    1.083530 S    
C32   H16   1.111039 S    
C16   H10   1.083922 S    
C6    C34   1.528342 S    
