data_mof_unit_37906.cif
_audit_creation_date              2012-12-10T17:18:58-0500
_audit_creation_method            fapswitch 2.2
_symmetry_space_group_name_H-M    P1
_symmetry_Int_Tables_number       1
_space_group_crystal_system       triclinic
_cell_length_a                    10.159649
_cell_length_b                    10.464261
_cell_length_c                    13.902959
_cell_angle_alpha                 90.801495
_cell_angle_beta                  102.327627
_cell_angle_gamma                 95.798523
_cell_volume                      1435.63795106

loop_
_atom_site_label
_atom_site_type_symbol
_atom_type_description
_atom_site_fract_x
_atom_site_fract_y
_atom_site_fract_z
_atom_type_partial_charge
C1    C     C_R   0.052031 0.734419 0.491122 0.828444
C2    C     C_R   0.943873 0.264717 0.499849 0.761966
C3    C     C_R   0.411091 0.445360 0.131995 0.373553
C4    C     C_R   0.486158 0.311215 0.906548 0.339067
C5    C     C_R   0.283382 0.487542 0.098131 0.425870
C6    C     C_R   0.615776 0.272167 0.943484 0.448040
C7    C     C_2   0.076367 0.870089 0.473197 0.272963
C8    C     C_2   0.903253 0.126782 0.476019 0.327425
C9    C     C_2   0.971359 0.926969 0.422851 -0.229489
C10   C     C_2   0.977834 0.065783 0.424857 -0.149423
C11   C     C_2   0.431324 0.514637 0.505799 -0.065393
C12   C     C_2   0.569125 0.480892 0.499349 -0.060166
C13   C     C_R   0.096966 0.516552 0.685191 0.949311
C14   C     C_R   0.902741 0.482226 0.315177 0.892837
C15   C     C_R   0.147047 0.518846 0.792019 -0.243959
C16   C     C_R   0.839716 0.437236 0.214521 -0.204798
C17   C     C_R   0.101483 0.532637 0.955948 0.458793
C18   C     C_R   0.817701 0.277031 0.082296 0.477567
C19   C     C_R   0.059662 0.540615 0.854471 -0.355609
C20   C     C_R   0.890834 0.337475 0.170528 -0.230184
C21   C     C_R   0.278613 0.491169 0.832445 0.531659
C22   C     C_R   0.712407 0.473466 0.171766 0.529377
C23   C     C_R   0.308993 0.451176 0.930054 -0.104025
C24   C     C_R   0.628650 0.397375 0.094186 -0.095910
C25   C     C_R   0.229441 0.489843 0.995874 -0.179798
C26   C     C_R   0.687887 0.313518 0.039177 -0.159617
C27   C     C_R   0.427511 0.391141 0.965676 -0.115001
C28   C     C_R   0.490035 0.412656 0.064976 -0.110286
H1    H     H_    0.986050 0.303826 0.206217 0.211707
H2    H     H_    0.958363 0.565532 0.824559 0.215198
H3    H     H_    0.063167 0.116452 0.400810 0.152678
H4    H     H_    0.875480 0.871520 0.390080 0.172283
H5    H     H_    0.578588 0.393899 0.459222 0.202776
H6    H     H_    0.421764 0.598670 0.548926 0.155815
H7    H     H_    0.664898 0.637502 0.574300 0.162444
H8    H     H_    0.334319 0.364704 0.422597 0.208282
N1    N     N_2   0.322180 0.446120 0.460900 -0.169093
N2    N     N_2   0.677820 0.553880 0.539100 -0.201777
O1    O     O_R   0.935190 0.693030 0.507870 -0.609406
O2    O     O_R   0.064810 0.306970 0.492130 -0.611398
O3    O     O_R   0.142080 0.658430 0.482770 -0.631347
O4    O     O_R   0.857920 0.341570 0.517230 -0.603905
O5    O     O_R   0.969700 0.527180 0.651960 -0.629575
O6    O     O_R   0.030300 0.472820 0.348040 -0.590062
O7    O     O_R   0.176600 0.492580 0.626860 -0.526819
O8    O     O_R   0.823400 0.507420 0.373140 -0.540773
Zn1   Zn    Zn3+2 0.861850 0.523100 0.516760 0.960349
Zn2   Zn    Zn3+2 0.138150 0.476900 0.483240 0.987902
O9    O     O_3   0.218288 0.535991 0.166068 -0.532615
C29   C     C_3   0.268088 0.667135 0.185345 0.163537
H9    H     H_    0.246897 0.722803 0.116981 0.149278
H10   H     H_    0.379193 0.678644 0.216944 0.159445
C30   C     C_3   0.199075 0.724057 0.259774 -0.753734
H11   H     H_    0.232549 0.680270 0.331694 0.265598
H12   H     H_    0.228057 0.829307 0.267814 0.176322
H13   H     H_    0.087316 0.705473 0.235355 0.263819
O10   O     O_3   0.675658 0.202097 0.882822 -0.543159
C31   C     C_3   0.728373 0.285300 0.817218 0.151735
H14   H     H_    0.735557 0.389995 0.837445 0.122914
H15   H     H_    0.661946 0.269148 0.742615 0.170884
C32   C     C_3   0.869962 0.253901 0.812771 -0.759679
H16   H     H_    0.871785 0.148434 0.805855 0.274725
H17   H     H_    0.901866 0.300127 0.748878 0.191398
H18   H     H_    0.943084 0.290176 0.881011 0.293814
O11   O     O_3   0.669005 0.583834 0.205390 -0.587914
C33   C     C_3   0.727576 0.691125 0.163030 0.099565
H19   H     H_    0.714836 0.676575 0.081726 0.167876
H20   H     H_    0.837296 0.710366 0.197620 0.150222
C34   C     C_3   0.658517 0.808768 0.181149 -0.797456
H21   H     H_    0.662422 0.822848 0.261057 0.263040
H22   H     H_    0.710505 0.895475 0.154651 0.251025
H23   H     H_    0.551076 0.796230 0.140615 0.228169
O12   O     O_3   0.379708 0.515115 0.779664 -0.569401
C35   C     C_3   0.464733 0.626697 0.821656 0.098949
H24   H     H_    0.519861 0.610476 0.897908 0.136754
H25   H     H_    0.405073 0.710182 0.823338 0.150630
C36   C     C_3   0.570880 0.661587 0.761534 -0.813313
H26   H     H_    0.523725 0.705020 0.692105 0.230586
H27   H     H_    0.651168 0.733484 0.803611 0.231095
H28   H     H_    0.617998 0.574892 0.745063 0.251067
Cl1   Cl    Cl    0.983206 0.569548 0.025443 -0.675217
Cl2   Cl    Cl    0.885519 0.144107 0.039576 -0.586942
Cl3   Cl    Cl    0.457857 0.411652 0.257783 -0.625663
Cl4   Cl    Cl    0.391312 0.238522 0.793785 -0.563543
O13   O     O_3   0.789177 0.060626 0.498984 -0.611925
C37   C     C_3   0.795625 0.069643 0.601177 0.111201
H29   H     H_    0.734926 0.147032 0.616275 0.163150
H30   H     H_    0.901203 0.089236 0.646030 0.140111
C38   C     C_3   0.735221 0.942628 0.633694 -0.813830
H31   H     H_    0.800911 0.866097 0.626095 0.262385
H32   H     H_    0.727698 0.951794 0.711945 0.234548
H33   H     H_    0.632637 0.914359 0.587638 0.249520
O14   O     O_3   0.190304 0.942011 0.528230 -0.582821
C39   C     C_3   0.290451 0.958700 0.471896 0.083016
H34   H     H_    0.248691 0.988628 0.395786 0.135531
H35   H     H_    0.338026 0.868015 0.468275 0.148526
C40   C     C_3   0.398954 0.064306 0.521177 -0.743168
H36   H     H_    0.442893 0.039210 0.597864 0.277073
H37   H     H_    0.480728 0.076647 0.479280 0.222106
H38   H     H_    0.354007 0.156506 0.523114 0.262274

loop_
_geom_bond_atom_site_label_1
_geom_bond_atom_site_label_2
_ccdc_geom_bond_type
C33   H20   S    
O14   C39   S    
C32   H18   S    
O12   C35   S    
C18   C26   A    
C40   H38   S    
C40   H36   S    
C14   O8    A    
C36   H26   S    
C15   C19   A    
C35   H25   S    
C22   C24   A    
O1    Zn1   S    
H8    N1    S    
C24   C26   A    
C37   H30   S    
C30   H13   S    
C33   C34   S    
C31   H15   S    
C21   O12   S    
C34   H22   S    
C8    O13   S    
C11   N1    D    
O2    Zn2   S    
C9    H4    S    
C18   Cl2   S    
C10   H3    S    
C35   C36   S    
C29   H10   S    
C23   C27   A    
C38   H32   S    
C9    C10   S    
C18   C20   A    
C32   H16   S    
C31   C32   S    
C36   H27   S    
C33   H19   S    
C6    O10   S    
C5    O9    S    
C34   H21   S    
C40   H37   S    
C20   H1    S    
C30   H12   S    
C7    O14   S    
C29   C30   S    
C35   H24   S    
H7    N2    S    
C4    C6    A    
C37   H29   S    
C39   C40   S    
C31   H14   S    
O13   C37   S    
C38   H33   S    
C34   H23   S    
C22   O11   S    
C4    Cl4   S    
C16   C20   A    
C32   H17   S    
C29   H9    S    
N1    Zn2   S    
C39   H35   S    
N2    Zn1   S    
C5    C25   A    
C1    O3    A    
O9    C29   S    
C13   C15   S    
C3    Cl3   S    
C14   C16   S    
C13   O5    A    
C4    C27   A    
C14   O6    A    
O7    Zn2   S    
C7    C9    D    
O8    Zn1   S    
C3    C28   A    
C16   C22   A    
C1    C7    S    
C11   H6    S    
C2    C8    S    
C24   C28   A    
C3    C5    A    
C37   C38   S    
C11   C12   S    
C30   H11   S    
C17   C25   A    
C21   C23   A    
C12   H5    S    
C13   O7    A    
C36   H28   S    
O10   C31   S    
C6    C26   A    
C2    O4    A    
C17   C19   A    
O3    Zn2   S    
C17   Cl1   S    
O4    Zn1   S    
C23   C25   A    
C12   N2    D    
C39   H34   S    
C1    O1    A    
C2    O2    A    
C15   C21   A    
C8    C10   D    
O11   C33   S    
C27   C28   A    
C38   H31   S    
C19   H2    S    
O5    Zn1   S    
O6    Zn2   S    
