data_mof_unit_32372.cif
_audit_creation_date              2013-03-05T15:40:48-0500
_audit_creation_method            fapswitch 2.2
_symmetry_space_group_name_H-M    P1
_symmetry_Int_Tables_number       1
_space_group_crystal_system       triclinic
_cell_length_a                    7.76335
_cell_length_b                    8.594307
_cell_length_c                    14.880475
_cell_angle_alpha                 91.09092
_cell_angle_beta                  86.280812
_cell_angle_gamma                 93.317913
_cell_volume                      988.966324521

loop_
_atom_site_label
_atom_site_type_symbol
_atom_site_description
_atom_site_fract_x
_atom_site_fract_y
_atom_site_fract_z
_atom_type_partial_charge
O1    O     O_R   0.389250 0.738570 0.505970 -0.592633
O2    O     O_R   0.610750 0.261430 0.494030 -0.592578
O3    O     O_R   0.678390 0.711620 0.490370 -0.587311
O4    O     O_R   0.321610 0.288380 0.509630 -0.587389
C1    C     C_R   0.544749 0.794399 0.497901 0.964282
C2    C     C_R   0.455252 0.205600 0.502097 0.963970
O5    O     O_R   0.355420 0.513510 0.639950 -0.599181
O6    O     O_R   0.644580 0.486490 0.360050 -0.599147
O7    O     O_R   0.644560 0.486560 0.624350 -0.611931
O8    O     O_R   0.355440 0.513440 0.375650 -0.611965
C3    C     C_R   0.503178 0.501637 0.672641 0.951035
C4    C     C_R   0.496827 0.498389 0.327359 0.950710
Zn1   Zn    Zn3+2 0.306940 0.517990 0.510420 1.073707
Zn2   Zn    Zn3+2 0.693060 0.482010 0.489580 1.073755
C5    C     C_R   0.449503 0.356297 0.186618 0.260693
C6    C     C_R   0.550489 0.643796 0.813380 0.260603
C7    C     C_R   0.489592 0.496351 0.232427 -0.164516
C8    C     C_R   0.510436 0.503717 0.767573 -0.164580
C9    C     C_R   0.533093 0.635090 0.188064 -0.257699
C10   C     C_R   0.467013 0.364968 0.811941 -0.257765
C11   C     C_R   0.537931 0.637462 0.095236 0.126402
C12   C     C_R   0.462189 0.362600 0.904767 0.126403
C13   C     C_R   0.497704 0.498572 0.046950 0.040335
C14   C     C_R   0.502403 0.501496 0.953051 0.040351
C15   C     C_R   0.452884 0.356977 0.092522 0.008207
C16   C     C_R   0.547190 0.643098 0.907477 0.008191
C17   C     C_R   0.583975 0.776369 0.050246 -0.184207
C18   C     C_R   0.416172 0.223688 0.949758 -0.184194
C19   C     C_R   0.589506 0.779233 0.956992 -0.161462
C20   C     C_R   0.410622 0.220830 0.043012 -0.161503
H1    H     H_    0.565029 0.740655 0.226247 0.202353
H2    H     H_    0.435105 0.259393 0.773761 0.202387
H3    H     H_    0.616628 0.882749 0.087198 0.196209
H4    H     H_    0.383541 0.117303 0.912808 0.196352
H5    H     H_    0.628238 0.888296 0.924378 0.199187
H6    H     H_    0.371932 0.111763 0.075634 0.199173
C21   C     C_2   0.562891 0.954799 0.482685 0.120941
C22   C     C_2   0.437117 0.045200 0.517318 0.120939
N1    N     N_2   0.950330 0.457950 0.475660 -0.150543
N2    N     N_2   0.049670 0.542050 0.524340 -0.150567
H7    H     H_    0.013840 0.382638 0.432220 0.240980
H8    H     H_    0.986159 0.617361 0.567780 0.240935
N3    N     N_R   0.410882 0.214667 0.235637 0.188930
O9    O     O_R   0.281155 0.204369 0.295529 -0.376162
O10   O     O_R   0.511423 0.099033 0.224127 -0.392615
N4    N     N_R   0.588879 0.785477 0.764367 0.189104
O11   O     O_R   0.717984 0.795658 0.704087 -0.376476
O12   O     O_R   0.488464 0.901175 0.776143 -0.392800
Cl1   Cl    Cl    0.730818 0.013121 0.400818 -0.494434
Cl2   Cl    Cl    0.269216 0.986880 0.599197 -0.494478

loop_
_geom_bond_atom_site_label_1
_geom_bond_atom_site_label_2
_geom_bond_distance
_ccdc_geom_bond_type
C4    C7    1.417122 S    
O7    Zn2   2.016396 S    
C2    C22   1.398832 S    
C3    C8    1.417142 S    
C21   C22   1.352745 D    
C22   Cl2   1.782227 S    
C1    C21   1.398826 S    
C17   C19   1.386190 A    
O7    C3    1.283931 A    
C19   H5    1.081798 S    
O6    C4    1.284792 A    
N3    O9    1.301020 A    
C9    H1    1.086289 S    
C18   C20   1.386184 A    
C11   C17   1.396824 A    
C18   H4    1.083775 S    
N1    H7    1.029336 S    
C12   C18   1.396835 A    
C17   H3    1.083792 S    
O5    C3    1.284800 A    
N3    O10   1.300834 A    
O2    C2    1.272118 A    
O3    Zn2   1.982960 S    
O8    C4    1.283932 A    
O1    C1    1.272122 A    
O4    C2    1.289358 A    
C7    C9    1.387810 A    
C10   C12   1.379888 A    
C8    C10   1.387809 A    
C11   C13   1.411363 A    
C6    C16   1.398910 A    
O2    Zn2   1.966108 S    
C12   C14   1.411359 A    
C5    C15   1.398840 A    
O1    Zn1   1.966107 S    
C13   C14   1.396037 A    
C5    N3    1.437619 S    
N4    O12   1.300958 A    
O5    Zn1   1.989192 S    
C13   C15   1.419022 A    
C21   Cl1   1.782251 S    
C16   C19   1.404903 A    
C6    C8    1.401262 A    
C10   H2    1.086292 S    
C6    N4    1.437723 S    
N1    N2    1.276684 D    
C5    C7    1.401168 A    
N4    O11   1.301166 A    
C15   C20   1.404860 A    
Zn1   N2    2.016751 S    
O6    Zn2   1.989193 S    
C9    C11   1.379912 A    
Zn2   N1    2.016750 S    
O4    Zn1   1.982961 S    
C14   C16   1.419037 A    
N2    H8    1.029337 S    
O3    C1    1.289351 A    
O8    Zn1   2.016397 S    
C20   H6    1.081803 S    
