data_mof_unit_38056.cif
_audit_creation_date              2012-12-10T18:51:30-0500
_audit_creation_method            fapswitch 2.2
_symmetry_space_group_name_H-M    P1
_symmetry_Int_Tables_number       1
_space_group_crystal_system       triclinic
_cell_length_a                    10.720047
_cell_length_b                    9.897244
_cell_length_c                    10.533587
_cell_angle_alpha                 90.076122
_cell_angle_beta                  90.763326
_cell_angle_gamma                 89.997626
_cell_volume                      1117.50204644

loop_
_atom_site_label
_atom_site_type_symbol
_atom_type_description
_atom_site_fract_x
_atom_site_fract_y
_atom_site_fract_z
_atom_type_partial_charge
C1    C     C_R   0.872516 0.499997 0.500189 -0.003372
C2    C     C_R   0.127484 0.500003 0.499811 -0.003377
C3    C     C_R   0.260034 0.500002 0.499804 0.884028
C4    C     C_R   0.739966 0.499998 0.500196 0.884033
C5    C     C_R   0.501295 0.499755 0.257798 0.989467
C6    C     C_R   0.498705 0.500245 0.742202 0.989474
C7    C     C_3   0.387099 0.528380 0.041544 0.377039
C8    C     C_3   0.612901 0.471620 0.958456 0.377025
C9    C     C_3   0.466252 0.621880 0.960646 0.409702
C10   C     C_3   0.533748 0.378119 0.039354 0.409622
C11   C     C_3   0.416286 0.405134 0.957067 -0.424595
C12   C     C_3   0.583714 0.594865 0.042933 -0.424495
C13   C     C_3   0.497438 0.500695 0.876462 -0.172194
C14   C     C_3   0.502561 0.499305 0.123538 -0.172203
C15   C     C_R   0.577807 0.072078 0.579932 -0.017958
C16   C     C_R   0.422193 0.927922 0.420068 -0.017967
C17   C     C_R   0.422373 0.072086 0.419881 -0.005471
C18   C     C_R   0.577627 0.927914 0.580119 -0.005472
C19   C     C_R   0.063845 0.376776 0.498454 -0.175606
C20   C     C_R   0.936155 0.623224 0.501546 -0.175593
C21   C     C_R   0.936123 0.376773 0.498618 -0.160846
C22   C     C_R   0.063877 0.623227 0.501382 -0.160837
H1    H     H_    0.348836 0.329200 0.919924 0.194390
H2    H     H_    0.651164 0.670799 0.080076 0.194396
H3    H     H_    0.112198 0.280659 0.497285 0.161866
H4    H     H_    0.887802 0.719341 0.502715 0.161864
H5    H     H_    0.887742 0.280658 0.497400 0.164209
H6    H     H_    0.112257 0.719342 0.502600 0.164208
N1    N     N_R   0.500000 0.857200 0.500000 -0.124144
N2    N     N_R   0.500000 0.142800 0.500000 -0.124145
O1    O     O_R   0.316770 0.614620 0.499990 -0.626100
O2    O     O_R   0.683230 0.385380 0.500010 -0.626101
O3    O     O_R   0.683230 0.614620 0.500010 -0.641462
O4    O     O_R   0.316770 0.385380 0.499990 -0.641463
O5    O     O_R   0.499970 0.614650 0.313950 -0.628952
O6    O     O_R   0.500030 0.385350 0.686050 -0.628950
O7    O     O_R   0.500030 0.614650 0.686050 -0.579727
O8    O     O_R   0.499970 0.385350 0.313950 -0.579724
Zn1   Zn    Zn3+2 0.500000 0.653120 0.500000 0.990393
Zn2   Zn    Zn3+2 0.500000 0.346880 0.500000 0.990390
C23   C     C_1   0.661116 0.144903 0.664042 0.219560
N3    N     N_1   0.728534 0.202247 0.731784 -0.147105
C24   C     C_1   0.338884 0.855097 0.335958 0.219555
N4    N     N_1   0.271466 0.797753 0.268217 -0.147046
C25   C     C_1   0.340643 0.145169 0.334362 0.258591
N5    N     N_1   0.274920 0.203062 0.265386 -0.170309
C26   C     C_1   0.659357 0.854831 0.665638 0.258579
N6    N     N_1   0.725080 0.796938 0.734614 -0.170286
O9    O     O_3   0.270068 0.559848 0.090428 -0.735335
H7    H     H_    0.215043 0.573618 0.015203 0.350310
O10   O     O_3   0.729933 0.440159 0.909571 -0.735349
H8    H     H_    0.784910 0.426182 0.984796 0.350323
O11   O     O_3   0.427817 0.748027 0.915135 -0.734051
H9    H     H_    0.417151 0.804903 0.991745 0.347654
O12   O     O_3   0.572181 0.251972 0.084866 -0.734087
H10   H     H_    0.582864 0.195100 0.008254 0.347642

loop_
_geom_bond_atom_site_label_1
_geom_bond_atom_site_label_2
_ccdc_geom_bond_type
C2    C22   A    
C15   C18   A    
O5    Zn1   S    
C24   N4    T    
C1    C21   A    
C8    C13   S    
C10   O12   S    
C23   N3    T    
C12   H2    S    
C26   N6    T    
C16   C24   S    
C8    C12   S    
C1    C4    S    
C18   C26   S    
N1    Zn1   S    
O12   H10   S    
C2    C3    S    
C21   H5    S    
C6    O7    A    
N2    Zn2   S    
O7    Zn1   S    
C18   N1    A    
C22   H6    S    
C25   N5    T    
C6    C13   S    
O8    Zn2   S    
C17   N2    A    
C11   C13   S    
C8    O10   S    
C7    O9    S    
C5    C14   S    
C4    O2    A    
C20   H4    S    
O4    Zn2   S    
C3    O1    A    
C5    O5    A    
C11   H1    S    
C19   C21   A    
C12   C14   S    
C7    C11   S    
O2    Zn2   S    
C19   H3    S    
C9    C12   S    
C16   N1    A    
C9    O11   S    
C10   C11   S    
C20   C22   A    
O10   H8    S    
C7    C9    S    
O6    Zn2   S    
C15   C23   S    
C15   N2    A    
C8    C10   S    
O9    H7    S    
C10   C14   S    
O1    Zn1   S    
C9    C13   S    
C4    O3    A    
C1    C20   A    
C3    O4    A    
C2    C19   A    
C5    O8    A    
O3    Zn1   S    
C7    C14   S    
C17   C25   S    
O11   H9    S    
C6    O6    A    
C16   C17   A    
