data_mof_unit_66889.cif
_audit_creation_date              2013-03-05T15:57:24-0500
_audit_creation_method            fapswitch 2.2
_symmetry_space_group_name_H-M    P1
_symmetry_Int_Tables_number       1
_space_group_crystal_system       triclinic
_cell_length_a                    17.165376
_cell_length_b                    18.548387
_cell_length_c                    8.48979
_cell_angle_alpha                 89.762451
_cell_angle_beta                  102.269761
_cell_angle_gamma                 90.154424
_cell_volume                      2641.29354588

loop_
_atom_site_label
_atom_site_type_symbol
_atom_site_description
_atom_site_fract_x
_atom_site_fract_y
_atom_site_fract_z
_atom_type_partial_charge
P1    P     P_3+3 0.834140 0.419320 0.003900 0.450063
P2    P     P_3+3 0.834140 0.580680 0.503900 0.450914
P3    P     P_3+3 0.334140 0.919320 0.003900 0.450889
P4    P     P_3+3 0.334140 0.080680 0.503900 0.452787
O1    O     O_2   0.841960 0.394640 0.833410 -0.372342
O2    O     O_2   0.841960 0.605360 0.333410 -0.374017
O3    O     O_2   0.341960 0.894640 0.833410 -0.371935
O4    O     O_2   0.341960 0.105360 0.333410 -0.375008
O5    O     O_3   0.907950 0.463080 0.102990 -0.397882
O6    O     O_3   0.907950 0.536920 0.602990 -0.394773
O7    O     O_3   0.407950 0.963080 0.102990 -0.397452
O8    O     O_3   0.407950 0.036920 0.602990 -0.394742
O9    O     O_3   0.972780 0.329600 0.629720 -0.379158
O10   O     O_3   0.972780 0.670400 0.129720 -0.377648
O11   O     O_3   0.472780 0.829600 0.629720 -0.379174
O12   O     O_3   0.472780 0.170400 0.129720 -0.376686
O13   O     O_2   0.841262 0.272684 0.694835 -0.398303
O14   O     O_2   0.841891 0.728573 0.194023 -0.395927
O15   O     O_2   0.341354 0.772651 0.694663 -0.398326
O16   O     O_2   0.341807 0.228492 0.193876 -0.398490
O17   O     O_3   0.750176 0.474000 0.961228 -0.615980
O18   O     O_3   0.750186 0.525777 0.462494 -0.616209
O19   O     O_3   0.249673 0.973309 0.961501 -0.617166
O20   O     O_3   0.250179 0.025784 0.462518 -0.614977
O21   O     O_3   0.944795 0.181224 0.631672 -0.552079
O22   O     O_3   0.945587 0.819327 0.125193 -0.554122
O23   O     O_3   0.445152 0.681130 0.632622 -0.550865
O24   O     O_3   0.445565 0.319301 0.125418 -0.553172
H1    H     H_    0.066701 0.192299 0.683225 0.169688
H2    H     H_    0.067331 0.806873 0.172783 0.169823
H3    H     H_    0.567131 0.692369 0.686213 0.166531
H4    H     H_    0.567320 0.306904 0.173135 0.169537
C1    C     C_3   0.029089 0.102601 0.523453 -1.059670
C2    C     C_3   0.030401 0.897253 0.013185 -1.046563
C3    C     C_3   0.530267 0.602647 0.526041 -1.065793
C4    C     C_3   0.530375 0.397266 0.013498 -1.046780
H5    H     H_    0.583537 0.600847 0.471383 0.250742
H6    H     H_    0.583435 0.398678 0.958088 0.250074
H7    H     H_    0.082878 0.100386 0.470473 0.251136
H8    H     H_    0.083516 0.898662 0.957948 0.250414
H9    H     H_    0.036186 0.064825 0.626583 0.250738
H10   H     H_    0.039580 0.934991 0.115781 0.247780
H11   H     H_    0.538576 0.565009 0.629605 0.250639
H12   H     H_    0.539640 0.434980 0.116143 0.247788
P5    P     P_3+3 0.165830 0.418670 0.685610 0.453392
P6    P     P_3+3 0.165830 0.581330 0.185610 0.450713
P7    P     P_3+3 0.665830 0.918670 0.685610 0.453252
P8    P     P_3+3 0.665830 0.081330 0.185610 0.450721
P9    P     P_3+3 0.103707 0.266683 0.117494 0.447796
P10   P     P_3+3 0.105051 0.732274 0.618239 0.445033
P11   P     P_3+3 0.603574 0.766594 0.117446 0.450157
P12   P     P_3+3 0.605000 0.232321 0.618146 0.445321
O25   O     O_2   0.157990 0.394030 0.856030 -0.373719
O26   O     O_2   0.157990 0.605970 0.356030 -0.359876
O27   O     O_2   0.657990 0.894030 0.856030 -0.374485
O28   O     O_2   0.657990 0.105970 0.356030 -0.359976
O29   O     O_3   0.027110 0.329490 0.059550 -0.389223
O30   O     O_3   0.027110 0.670510 0.559550 -0.387318
O31   O     O_3   0.527110 0.829490 0.059550 -0.389715
O32   O     O_3   0.527110 0.170510 0.559550 -0.387691
O33   O     O_2   0.170794 0.287442 0.030744 -0.364272
O34   O     O_2   0.172895 0.709627 0.536005 -0.368985
O35   O     O_2   0.670606 0.787186 0.030383 -0.357583
O36   O     O_2   0.672836 0.209708 0.535856 -0.368537
O37   O     O_3   0.256326 0.466002 0.718987 -0.600530
O38   O     O_3   0.254840 0.531882 0.229888 -0.597334
O39   O     O_3   0.756327 0.966008 0.718933 -0.600404
O40   O     O_3   0.754843 0.031873 0.229789 -0.597198
O41   O     O_3   0.074108 0.180918 0.041765 -0.527577
O42   O     O_3   0.079117 0.817854 0.537323 -0.527083
O43   O     O_3   0.573658 0.680902 0.041669 -0.525532
O44   O     O_3   0.578993 0.317901 0.537269 -0.526676
C5    C     C_3   0.992191 0.168295 0.032168 0.559761
C6    C     C_3   0.997866 0.834054 0.524833 0.566730
C7    C     C_3   0.491898 0.668210 0.033601 0.557959
C8    C     C_3   0.497764 0.334104 0.525045 0.565956
H13   H     H_    0.955668 0.204263 0.940261 0.146870
H14   H     H_    0.960105 0.800379 0.430305 0.146540
H15   H     H_    0.454968 0.704295 0.942523 0.145602
H16   H     H_    0.459941 0.300436 0.430586 0.146389
C9    C     C_3   0.976339 0.090137 0.980676 -0.995532
C10   C     C_3   0.988581 0.913192 0.476006 -1.014354
C11   C     C_3   0.475883 0.590129 0.981633 -0.992326
C12   C     C_3   0.488432 0.413250 0.476269 -1.013439
H17   H     H_    0.412100 0.576530 0.970743 0.240828
H18   H     H_    0.428039 0.433071 0.476860 0.224383
H19   H     H_    0.912560 0.076471 0.969556 0.241534
H20   H     H_    0.928230 0.933086 0.476729 0.224682
H21   H     H_    0.993692 0.080589 0.864367 0.271703
H22   H     H_    0.000587 0.920965 0.354302 0.270081
H23   H     H_    0.493107 0.580710 0.865133 0.272318
H24   H     H_    0.500502 0.421062 0.354625 0.269896
C13   C     C_3   0.244220 0.457237 0.209765 0.456703
C14   C     C_3   0.246686 0.540761 0.709212 0.459958
C15   C     C_3   0.744207 0.957212 0.209941 0.456259
C16   C     C_3   0.746693 0.040775 0.709358 0.459704
H25   H     H_    0.186623 0.441831 0.131330 0.163352
H26   H     H_    0.189048 0.558391 0.633142 0.153118
H27   H     H_    0.686569 0.941766 0.131692 0.162908
H28   H     H_    0.688993 0.058442 0.633569 0.152882
C17   C     C_3   0.311249 0.429528 0.133568 -0.900868
C18   C     C_3   0.313581 0.571951 0.637692 -0.885648
C19   C     C_3   0.811163 0.929421 0.133629 -0.900847
C20   C     C_3   0.813466 0.072009 0.637547 -0.885246
H29   H     H_    0.369835 0.448468 0.202068 0.262237
H30   H     H_    0.371687 0.548241 0.696210 0.262873
H31   H     H_    0.869784 0.948370 0.201953 0.262360
H32   H     H_    0.871625 0.048307 0.695766 0.262696
H33   H     H_    0.310248 0.370017 0.131636 0.268999
H34   H     H_    0.315075 0.631122 0.652058 0.272127
H35   H     H_    0.810141 0.869907 0.131859 0.268701
H36   H     H_    0.814945 0.131175 0.652002 0.272144
H37   H     H_    0.304406 0.449421 0.009269 0.273761
H38   H     H_    0.303834 0.560211 0.508517 0.261579
H39   H     H_    0.804249 0.949236 0.009257 0.273785
H40   H     H_    0.803571 0.060312 0.508345 0.261813
Ba1   Ba    Ba6+2 0.000000 0.447380 0.844850 1.536631
Ba2   Ba    Ba6+2 0.000000 0.552620 0.344850 1.533933
Ba3   Ba    Ba6+2 0.500000 0.947380 0.844850 1.537061
Ba4   Ba    Ba6+2 0.500000 0.052620 0.344850 1.533795
C21   C     C_3   0.771517 0.542366 0.916819 0.251806
C22   C     C_3   0.770794 0.457856 0.415580 0.250694
C23   C     C_3   0.270111 0.042226 0.919082 0.248737
C24   C     C_3   0.270784 0.957819 0.415817 0.249964
H41   H     H_    0.806617 0.539019 0.821420 0.099232
H42   H     H_    0.807305 0.461811 0.322538 0.101638
H43   H     H_    0.306066 0.040150 0.824934 0.101285
H44   H     H_    0.307377 0.961677 0.322898 0.101360
H45   H     H_    0.807447 0.570164 0.023793 0.134431
H46   H     H_    0.804709 0.428375 0.522465 0.130951
H47   H     H_    0.304438 0.070184 0.027411 0.131993
H48   H     H_    0.304585 0.928352 0.522833 0.131251
C25   C     C_3   0.694543 0.583428 0.850977 -0.119415
C26   C     C_3   0.693190 0.418829 0.343973 -0.116732
C27   C     C_3   0.192402 0.081741 0.851799 -0.116014
C28   C     C_3   0.193175 0.918837 0.344114 -0.116948
H49   H     H_    0.679565 0.577549 0.718248 0.165677
H50   H     H_    0.677129 0.430860 0.213242 0.170832
H51   H     H_    0.175049 0.070832 0.720863 0.169185
H52   H     H_    0.176936 0.931197 0.213556 0.171185
H53   H     H_    0.644174 0.561165 0.899946 0.187551
H54   H     H_    0.644118 0.438122 0.399846 0.190363
H55   H     H_    0.143807 0.062003 0.909536 0.188176
H56   H     H_    0.144209 0.937896 0.400558 0.190055
O45   O     O_3   0.092100 0.536880 0.086720 -0.407547
O46   O     O_3   0.092100 0.463120 0.586720 -0.398078
O47   O     O_3   0.592100 0.036880 0.086720 -0.407425
O48   O     O_3   0.592100 0.963120 0.586720 -0.398034
P13   P     P_3+3 0.899272 0.735933 0.076856 0.426891
P14   P     P_3+3 0.898898 0.264329 0.578736 0.423164
P15   P     P_3+3 0.399259 0.235920 0.076870 0.424459
P16   P     P_3+3 0.399113 0.764147 0.578857 0.423439
C29   C     C_3   0.017390 0.178554 0.580415 0.459468
C30   C     C_3   0.017589 0.821387 0.071332 0.452705
C31   C     C_3   0.518127 0.678577 0.582753 0.459770
C32   C     C_3   0.517590 0.321395 0.071640 0.453731
H57   H     H_    0.020612 0.216197 0.480434 0.050274
H58   H     H_    0.019120 0.783892 0.970828 0.050198
H59   H     H_    0.521648 0.716234 0.482978 0.051280
H60   H     H_    0.519180 0.283900 0.971162 0.050484
H61   H     H_    0.477285 0.584917 0.435210 0.286027
H62   H     H_    0.477309 0.415344 0.923239 0.282669
H63   H     H_    0.976351 0.085408 0.431368 0.284330
H64   H     H_    0.977379 0.915310 0.922790 0.282523
H65   H     H_    0.511889 0.554210 0.073539 0.258049
H66   H     H_    0.531776 0.445743 0.563125 0.265207
H67   H     H_    0.012292 0.054354 0.072969 0.258066
H68   H     H_    0.032021 0.945636 0.562771 0.264591
C33   C     C_R   0.131177 0.681345 0.933796 -0.522844
C34   C     C_R   0.130734 0.318912 0.432351 -0.497170
C35   C     C_R   0.631185 0.181294 0.933630 -0.522754
C36   C     C_R   0.630740 0.818931 0.432270 -0.496908
C37   C     C_R   0.860496 0.324822 0.268516 -0.475347
C38   C     C_R   0.860555 0.675511 0.767359 -0.481499
C39   C     C_R   0.360764 0.824656 0.268467 -0.474814
C40   C     C_R   0.360556 0.175488 0.767401 -0.476571
C41   C     C_R   0.789392 0.215004 0.303129 -0.147166
C42   C     C_R   0.789447 0.785058 0.801071 -0.133287
C43   C     C_R   0.289559 0.714887 0.303135 -0.148491
C44   C     C_R   0.289595 0.285154 0.800961 -0.140555
C45   C     C_R   0.845905 0.267649 0.365599 0.243506
C46   C     C_R   0.845986 0.732491 0.863889 0.258696
C47   C     C_R   0.346156 0.767471 0.365593 0.242367
C48   C     C_R   0.346044 0.232519 0.863870 0.249191
C49   C     C_R   0.815636 0.333908 0.111583 0.296246
C50   C     C_R   0.815360 0.666186 0.610889 0.289422
C51   C     C_R   0.315895 0.833767 0.111506 0.297633
C52   C     C_R   0.315398 0.166195 0.610880 0.295018
C53   C     C_R   0.753952 0.282359 0.050418 -0.032301
C54   C     C_R   0.753267 0.717542 0.549962 -0.041971
C55   C     C_R   0.254157 0.782250 0.050401 -0.032036
C56   C     C_R   0.253374 0.217606 0.549874 -0.035014
C57   C     C_R   0.241123 0.721520 0.147582 -0.026709
C58   C     C_R   0.240462 0.278316 0.646413 -0.041456
C59   C     C_R   0.740969 0.221603 0.147569 -0.027181
C60   C     C_R   0.740329 0.778229 0.646520 -0.046963
C61   C     C_R   0.178947 0.670284 0.086875 0.282915
C62   C     C_R   0.178107 0.329632 0.586010 0.300483
C63   C     C_R   0.678895 0.170287 0.086794 0.282573
C64   C     C_R   0.678053 0.829607 0.586016 0.301041
C65   C     C_R   0.148331 0.736333 0.834743 0.215731
C66   C     C_R   0.147680 0.263687 0.334004 0.208890
C67   C     C_R   0.648278 0.236341 0.834642 0.216211
C68   C     C_R   0.647637 0.763658 0.333973 0.207357
C69   C     C_R   0.206628 0.788023 0.893865 -0.220577
C70   C     C_R   0.205688 0.211886 0.393802 -0.224971
C71   C     C_R   0.706474 0.288103 0.893847 -0.221304
C72   C     C_R   0.705591 0.711820 0.393882 -0.223504
H69   H     H_    0.282611 0.670323 0.379499 0.178173
H70   H     H_    0.283186 0.330059 0.876017 0.176651
H71   H     H_    0.782519 0.170410 0.379465 0.178029
H72   H     H_    0.783029 0.829949 0.876153 0.175126
H73   H     H_    0.715443 0.331118 0.813677 0.190469
H74   H     H_    0.714490 0.668802 0.314478 0.187242
H75   H     H_    0.215629 0.830995 0.813627 0.190828
H76   H     H_    0.214621 0.168920 0.314266 0.188960
H77   H     H_    0.086036 0.642011 0.883954 0.176297
H78   H     H_    0.086063 0.358496 0.381821 0.178834
H79   H     H_    0.586123 0.141902 0.883718 0.176309
H80   H     H_    0.586124 0.858552 0.381684 0.178648
H81   H     H_    0.905522 0.364203 0.318481 0.159322
H82   H     H_    0.905796 0.636377 0.817499 0.159098
H83   H     H_    0.405775 0.864047 0.318443 0.159303
H84   H     H_    0.405724 0.136301 0.817616 0.158902
O49   O     O_3   0.703302 0.656404 0.888749 -0.705065
H85   H     H_    0.715195 0.659215 0.008082 0.376686
O50   O     O_3   0.700981 0.344528 0.365774 -0.716639
H86   H     H_    0.715516 0.336181 0.483763 0.379803
O51   O     O_3   0.201322 0.155823 0.875431 -0.714241
H87   H     H_    0.215463 0.162986 0.993780 0.377731
O52   O     O_3   0.201061 0.844498 0.364950 -0.717003
H88   H     H_    0.215635 0.835858 0.482828 0.379889
N1    N     N_3   0.970349 0.177670 0.188027 -0.214611
H89   H     H_    0.912746 0.157507 0.180544 0.084325
H90   H     H_    0.965703 0.232607 0.208138 0.067349
N2    N     N_3   0.973093 0.824679 0.678172 -0.214436
H91   H     H_    0.964579 0.769884 0.695465 0.069730
H92   H     H_    0.916363 0.847057 0.668090 0.078816
N3    N     N_3   0.470941 0.677257 0.190363 -0.214376
H93   H     H_    0.413456 0.657011 0.183954 0.084996
H94   H     H_    0.466434 0.732161 0.211070 0.066119
N4    N     N_3   0.473125 0.324708 0.678509 -0.214404
H95   H     H_    0.464618 0.269910 0.695781 0.069497
H96   H     H_    0.416417 0.347102 0.668630 0.079275
N5    N     N_3   0.249833 0.423451 0.366903 -0.207863
H97   H     H_    0.299336 0.443697 0.447068 0.140087
H98   H     H_    0.261465 0.368580 0.357667 0.081387
N6    N     N_3   0.254335 0.567711 0.871185 -0.199363
H99   H     H_    0.258640 0.623794 0.869576 0.076293
H100  H     H_    0.201115 0.553443 0.902801 0.111949
N7    N     N_3   0.749941 0.923535 0.367228 -0.207732
H101  H     H_    0.799533 0.943781 0.447145 0.140235
H102  H     H_    0.761510 0.868645 0.358104 0.081574
N8    N     N_3   0.754551 0.067657 0.871439 -0.199297
H103  H     H_    0.758808 0.123744 0.869933 0.076229
H104  H     H_    0.701413 0.053332 0.903315 0.112163

loop_
_geom_bond_atom_site_label_1
_geom_bond_atom_site_label_2
_geom_bond_distance
_ccdc_geom_bond_type
C33   H77   1.082556 S    
P1    O17   1.737830 S    
O23   P16   1.746821 S    
P4    Ba4   3.442045 S    
C17   H37   1.099020 S    
C7    N3    1.460982 S    
O13   P14   1.546256 D    
C38   H82   1.082192 S    
P3    O7    1.587091 S    
O20   C24   1.392002 S    
C25   H49   1.107016 S    
C60   C64   1.443193 A    
C37   H81   1.082142 S    
C8    C12   1.523259 S    
P2    C50   1.893018 S    
P2    Ba2   3.442045 S    
N7    H101  1.039663 S    
P8    Ba4   3.440277 S    
C10   H68   1.108413 S    
P11   C68   1.833776 S    
C27   H51   1.107323 S    
C11   H65   1.107988 S    
H1    C29   1.109053 S    
P6    Ba2   3.440277 S    
C3    H61   1.110103 S    
C16   H28   1.109731 S    
C57   C61   1.439682 A    
C59   C63   1.439615 A    
P1    O1    1.552746 D    
P7    O27   1.548305 D    
C1    H63   1.110012 S    
C12   H18   1.101875 S    
O9    P14   1.739016 S    
C30   H58   1.107688 S    
C2    H64   1.110014 S    
O12   Ba4   2.817162 S    
C29   H57   1.107196 S    
P4    O20   1.737002 S    
C4    H12   1.104348 S    
C41   C45   1.398685 A    
O9    Ba1   2.826936 S    
N7    H102  1.044177 S    
P6    O45   1.592129 S    
C14   H26   1.109640 S    
P7    Ba3   3.444384 S    
C17   H33   1.104071 S    
N2    H92   1.046109 S    
P8    O47   1.592129 S    
C41   C59   1.408078 A    
C14   N6    1.444535 S    
O30   Ba2   2.826228 S    
P9    O29   1.748287 S    
N2    H91   1.040664 S    
C24   H48   1.111017 S    
C19   H35   1.104098 S    
C55   C69   1.407719 A    
C58   C62   1.443173 A    
P7    O39   1.752718 S    
P4    O4    1.548991 D    
C36   C68   1.393990 A    
O42   C6    1.409214 S    
C22   C26   1.523920 S    
N8    H104  1.038674 S    
P12   O32   1.750221 S    
C20   H40   1.096218 S    
P3    O19   1.737137 S    
C28   H52   1.107134 S    
C7    C11   1.522924 S    
N3    H93   1.045469 S    
N6    H100  1.038738 S    
C16   C20   1.520382 S    
O10   Ba2   2.817162 S    
C2    H10   1.104349 S    
P2    O18   1.736997 S    
N4    H96   1.046087 S    
C27   O51   1.392822 S    
O41   C5    1.410092 S    
C8    N4    1.462414 S    
C65   C69   1.399230 A    
P4    O8    1.587016 S    
O14   P13   1.546884 D    
C3    H11   1.105857 S    
N1    H89   1.045513 S    
C51   C55   1.438852 A    
C36   H80   1.082442 S    
O31   Ba3   2.816458 S    
O44   C8    1.409174 S    
C24   H44   1.109902 S    
C9    H21   1.105377 S    
C23   H47   1.110830 S    
C20   H32   1.106836 S    
C27   H55   1.113886 S    
C37   C45   1.394895 A    
P9    O41   1.751404 S    
N5    H97   1.039644 S    
C4    H62   1.110034 S    
O5    Ba2   2.847160 S    
O28   Ba4   2.867027 S    
C38   C46   1.395305 A    
P2    O2    1.548991 D    
P11   O43   1.751463 S    
C6    C10   1.523165 S    
O7    Ba4   2.847160 S    
C5    C9    1.522952 S    
O11   P16   1.738778 S    
C15   C19   1.526049 S    
O18   C22   1.391906 S    
P14   C45   1.845345 S    
C35   C63   1.396172 A    
C2    C30   1.520179 S    
C17   H29   1.106424 S    
C28   O52   1.392750 S    
O40   C15   1.402492 S    
P9    O33   1.540294 D    
C24   C28   1.523758 S    
P8    C63   1.882312 S    
C31   H59   1.107101 S    
P5    O46   1.592057 S    
P10   O30   1.750376 S    
C43   C47   1.398755 A    
C68   C72   1.399586 A    
Ba2   O46   2.842157 S    
P11   O35   1.540435 D    
P12   O36   1.539719 D    
C21   H45   1.111363 S    
C20   H36   1.104405 S    
P6    C61   1.882127 S    
O19   C23   1.390782 S    
C33   C65   1.389487 A    
P5    C62   1.891061 S    
C25   H53   1.113702 S    
O21   C29   1.405564 S    
C1    C29   1.518994 S    
P5    O25   1.548305 D    
O1    Ba1   2.863610 S    
O21   P14   1.746163 S    
C56   C58   1.440524 A    
C22   H42   1.109860 S    
C19   H39   1.099010 S    
C55   C57   1.438406 A    
C21   H41   1.109439 S    
O51   H87   0.991662 S    
C18   H38   1.096306 S    
O3    Ba3   2.863610 S    
C26   H54   1.111514 S    
O8    Ba3   2.842192 S    
C53   C59   1.438395 A    
C23   H43   1.109647 S    
O50   H86   0.991124 S    
P7    O48   1.592057 S    
H4    C32   1.109101 S    
C37   C49   1.399728 A    
P12   O44   1.747850 S    
P6    O26   1.552056 D    
O15   P16   1.546264 D    
C9    H67   1.108026 S    
P1    O5    1.587091 S    
N3    H94   1.040046 S    
C1    H7    1.110560 S    
P8    O40   1.754398 S    
P16   C47   1.846111 S    
C44   H70   1.070786 S    
N1    H90   1.039981 S    
C14   C18   1.520440 S    
C42   C46   1.399217 A    
P8    O28   1.552056 D    
P3    Ba3   3.438029 S    
C49   C53   1.438721 A    
Ba4   O47   2.977826 S    
O38   C13   1.402409 S    
C67   C71   1.399206 A    
C6    N2    1.462469 S    
C54   C72   1.405937 A    
O37   C14   1.396966 S    
C11   H17   1.107491 S    
Ba4   O48   2.842157 S    
H2    C30   1.109093 S    
N5    H98   1.044175 S    
O22   C30   1.406392 S    
P5    O37   1.752633 S    
O39   C16   1.397059 S    
P10   O34   1.539718 D    
Ba1   O45   2.847120 S    
C2    H8    1.110577 S    
P7    C64   1.891244 S    
C18   H34   1.104405 S    
P11   O31   1.747749 S    
C15   N7    1.456214 S    
O29   Ba1   2.816458 S    
C13   C17   1.526019 S    
P2    O6    1.587016 S    
C13   H25   1.105799 S    
C34   C62   1.397492 A    
C44   C58   1.406915 A    
N6    H99   1.042894 S    
C4    C32   1.520152 S    
C33   C61   1.396146 A    
C43   C57   1.408171 A    
P10   C65   1.832093 S    
C70   H76   1.078769 S    
C40   C48   1.395397 A    
O4    Ba4   2.868326 S    
P9    C66   1.833357 S    
C40   C52   1.399915 A    
C39   H83   1.082129 S    
C40   H84   1.082192 S    
O49   H85   0.991592 S    
C39   C47   1.395374 A    
C5    N1    1.461103 S    
Ba2   O45   2.977826 S    
C15   H27   1.105879 S    
C8    H16   1.111426 S    
C25   O49   1.392704 S    
P3    C51   1.886191 S    
C26   H50   1.107187 S    
H3    C31   1.109586 S    
Ba3   Ba4   4.664852 S    
C72   H74   1.078582 S    
P6    O38   1.754298 S    
C32   H60   1.107707 S    
P1    C49   1.885541 S    
C56   C70   1.405939 A    
C11   H23   1.105521 S    
C43   H69   1.070374 S    
P3    O3    1.552746 D    
C10   H22   1.104513 S    
O16   P15   1.546876 D    
C13   N5    1.456196 S    
C52   C56   1.441560 A    
P12   C67   1.831989 S    
C1    H9    1.105637 S    
C26   O50   1.392779 S    
C41   H71   1.070339 S    
N8    H103  1.042915 S    
O26   Ba2   2.867027 S    
P10   O42   1.747734 S    
Ba3   O47   2.847120 S    
C16   N8    1.444546 S    
C3    H5    1.110499 S    
O22   P13   1.747303 S    
O6    Ba1   2.842192 S    
Ba1   Ba2   4.664852 S    
C42   H72   1.070758 S    
O43   C7    1.409710 S    
C54   C60   1.440412 A    
C9    H19   1.107477 S    
P4    C52   1.892932 S    
P13   C46   1.845934 S    
Ba3   O48   2.975207 S    
C42   C60   1.406818 A    
C53   C71   1.407590 A    
C10   H20   1.101897 S    
C71   H73   1.078390 S    
N4    H95   1.040672 S    
O10   P13   1.741878 S    
C4    H6    1.110588 S    
O11   Ba3   2.826936 S    
C36   C64   1.397578 A    
O12   P15   1.741841 S    
O25   Ba1   2.871799 S    
C35   C67   1.389586 A    
C35   H79   1.082550 S    
P5    Ba1   3.444384 S    
C34   C66   1.393896 A    
C12   H66   1.108430 S    
O32   Ba4   2.826228 S    
C39   C51   1.400029 A    
C44   C48   1.399337 A    
O27   Ba3   2.871799 S    
C69   H75   1.078335 S    
O24   P15   1.747288 S    
C28   H56   1.111431 S    
C66   C70   1.399522 A    
C18   H30   1.106800 S    
C23   C27   1.523402 S    
O52   H88   0.991093 S    
O24   C32   1.406423 S    
C5    H13   1.112200 S    
Ba1   O46   2.975207 S    
O17   C21   1.391618 S    
C19   H31   1.106456 S    
C50   C54   1.441535 A    
C12   H24   1.104535 S    
C21   C25   1.525234 S    
P1    Ba1   3.438029 S    
C7    H15   1.112385 S    
C22   H46   1.111053 S    
C38   C50   1.399851 A    
C3    C31   1.519420 S    
O2    Ba2   2.868326 S    
C6    H14   1.111402 S    
C34   H78   1.082445 S    
O23   C31   1.405878 S    
P15   C48   1.845802 S    
