data_mof_unit_51513.cif
_audit_creation_date              2012-12-11T15:06:42-0500
_audit_creation_method            fapswitch 2.2
_symmetry_space_group_name_H-M    P1
_symmetry_Int_Tables_number       1
_space_group_crystal_system       triclinic
_cell_length_a                    7.233663
_cell_length_b                    15.108041
_cell_length_c                    22.320214
_cell_angle_alpha                 90.0
_cell_angle_beta                  90.000035
_cell_angle_gamma                 89.999982
_cell_volume                      2439.29755806

loop_
_atom_site_label
_atom_site_type_symbol
_atom_type_description
_atom_site_fract_x
_atom_site_fract_y
_atom_site_fract_z
_atom_type_partial_charge
O1    O     O_R   0.390810 0.844810 0.447340 -0.533451
O2    O     O_R   0.109190 0.155190 0.947340 -0.533451
O3    O     O_R   0.890810 0.655190 0.552660 -0.533451
O4    O     O_R   0.609190 0.344810 0.052660 -0.533451
O5    O     O_R   0.720550 0.655820 0.440420 -0.535015
O6    O     O_R   0.779450 0.344180 0.940420 -0.535015
O7    O     O_R   0.220550 0.844180 0.559580 -0.535015
O8    O     O_R   0.279450 0.155820 0.059580 -0.535015
C1    C     C_R   0.551501 0.626731 0.426431 0.684626
C2    C     C_R   0.948499 0.373269 0.926430 0.684626
C3    C     C_R   0.051501 0.873269 0.573569 0.684626
C4    C     C_R   0.448499 0.126731 0.073569 0.684626
O9    O     O_R   0.720530 0.844130 0.440420 -0.535532
O10   O     O_R   0.779470 0.155870 0.940420 -0.535532
O11   O     O_R   0.220530 0.655870 0.559580 -0.535532
O12   O     O_R   0.279470 0.344130 0.059580 -0.535532
O13   O     O_R   0.890830 0.844810 0.552660 -0.534148
O14   O     O_R   0.609170 0.155190 0.052660 -0.534148
O15   O     O_R   0.390830 0.655190 0.447340 -0.534148
O16   O     O_R   0.109170 0.344810 0.947340 -0.534148
C5    C     C_R   0.552015 0.873212 0.426399 0.679634
C6    C     C_R   0.947985 0.126788 0.926400 0.679634
C7    C     C_R   0.052015 0.626788 0.573600 0.679634
C8    C     C_R   0.447985 0.373212 0.073600 0.679634
O17   O     O_3   0.557310 0.749980 0.536820 -0.375990
O18   O     O_3   0.942690 0.250020 0.036820 -0.375990
O19   O     O_3   0.057310 0.750020 0.463180 -0.375991
O20   O     O_3   0.442690 0.249980 0.963180 -0.375991
V1    V     V_3+5 0.832160 0.749980 0.493170 1.477712
V2    V     V_3+5 0.667840 0.250020 0.993170 1.477712
V3    V     V_3+5 0.332160 0.750020 0.506830 1.477712
V4    V     V_3+5 0.167840 0.249980 0.006830 1.477712
C9    C     C_R   0.061986 0.599763 0.866002 -0.170092
C10   C     C_R   0.438013 0.400237 0.366002 -0.170092
C11   C     C_R   0.561988 0.900237 0.133998 -0.170093
C12   C     C_R   0.938011 0.099763 0.633998 -0.170092
H1    H     H_    0.161374 0.714994 0.783196 0.120666
H2    H     H_    0.338625 0.285006 0.283196 0.120666
H3    H     H_    0.661376 0.785006 0.216804 0.120666
H4    H     H_    0.838623 0.214994 0.716804 0.120666
H5    H     H_    0.101118 0.664204 0.883283 0.118095
H6    H     H_    0.398881 0.335796 0.383283 0.118095
H7    H     H_    0.601121 0.835797 0.116717 0.118095
H8    H     H_    0.898878 0.164203 0.616717 0.118095
C13   C     C_R   0.964813 0.448557 0.884520 -0.072083
C14   C     C_R   0.535186 0.551442 0.384520 -0.072084
C15   C     C_R   0.464814 0.051442 0.115480 -0.072084
C16   C     C_R   0.035186 0.948558 0.615480 -0.072084
C17   C     C_R   0.002383 0.465945 0.590859 -0.025029
C18   C     C_R   0.497619 0.534055 0.090859 -0.025029
C19   C     C_R   0.502380 0.034055 0.409141 -0.025029
C20   C     C_R   0.997620 0.965945 0.909141 -0.025029
C21   C     C_R   0.978726 0.393658 0.628809 -0.125012
C22   C     C_R   0.521277 0.606341 0.128809 -0.125012
C23   C     C_R   0.478723 0.106341 0.371191 -0.125013
C24   C     C_R   0.021279 0.893659 0.871191 -0.125012
C25   C     C_R   0.984785 0.404136 0.690725 -0.168560
C26   C     C_R   0.515218 0.595863 0.190725 -0.168560
C27   C     C_R   0.484783 0.095864 0.309275 -0.168561
C28   C     C_R   0.015219 0.904137 0.809275 -0.168560
C29   C     C_R   0.015347 0.487549 0.717094 0.084822
C30   C     C_R   0.484654 0.512450 0.217094 0.084822
C31   C     C_R   0.515346 0.012450 0.282906 0.084822
C32   C     C_R   0.984654 0.987550 0.782906 0.084822
C33   C     C_R   0.052618 0.560728 0.678273 0.063890
C34   C     C_R   0.447382 0.439271 0.178273 0.063890
C35   C     C_R   0.552618 0.939271 0.321727 0.063891
C36   C     C_R   0.947381 0.060728 0.821727 0.063890
C37   C     C_R   0.011928 0.500412 0.780780 0.080234
C38   C     C_R   0.488072 0.499587 0.280780 0.080234
C39   C     C_R   0.511928 0.999587 0.219220 0.080234
C40   C     C_R   0.988072 0.000413 0.719220 0.080234
C41   C     C_R   0.061784 0.584422 0.804014 0.126363
C42   C     C_R   0.438215 0.415577 0.304014 0.126363
C43   C     C_R   0.561786 0.915577 0.195986 0.126363
C44   C     C_R   0.938214 0.084423 0.695986 0.126363
C45   C     C_R   0.112760 0.652835 0.765324 -0.188832
C46   C     C_R   0.387239 0.347165 0.265324 -0.188833
C47   C     C_R   0.612761 0.847165 0.234675 -0.188833
C48   C     C_R   0.887238 0.152835 0.734675 -0.188833
C49   C     C_R   0.102516 0.642433 0.703563 -0.188390
C50   C     C_R   0.397483 0.357567 0.203563 -0.188391
C51   C     C_R   0.602517 0.857567 0.296437 -0.188391
C52   C     C_R   0.897482 0.142433 0.796437 -0.188391
C53   C     C_R   0.961818 0.433092 0.822366 -0.220523
C54   C     C_R   0.538182 0.566908 0.322366 -0.220523
C55   C     C_R   0.461818 0.066907 0.177634 -0.220523
C56   C     C_R   0.038183 0.933093 0.677633 -0.220522
C57   C     C_R   0.014581 0.532683 0.906145 -0.027516
C58   C     C_R   0.485419 0.467317 0.406145 -0.027516
C59   C     C_R   0.514583 0.967317 0.093855 -0.027516
C60   C     C_R   0.985417 0.032683 0.593855 -0.027516
C61   C     C_R   0.040629 0.550223 0.614954 -0.120440
C62   C     C_R   0.459371 0.449776 0.114954 -0.120440
C63   C     C_R   0.540629 0.949776 0.385045 -0.120440
C64   C     C_R   0.959371 0.050224 0.885046 -0.120440
H9    H     H_    0.923227 0.367499 0.808101 0.097607
H10   H     H_    0.576773 0.632501 0.308101 0.097607
H11   H     H_    0.423225 0.132501 0.191898 0.097607
H12   H     H_    0.076775 0.867499 0.691898 0.097607
H13   H     H_    0.969700 0.345429 0.717117 0.110906
H14   H     H_    0.530305 0.654570 0.217117 0.110905
H15   H     H_    0.469697 0.154570 0.282882 0.110906
H16   H     H_    0.030307 0.845430 0.782882 0.110905
H17   H     H_    0.953789 0.328406 0.610357 0.122703
H18   H     H_    0.546215 0.671593 0.110357 0.122703
H19   H     H_    0.453785 0.171593 0.389643 0.122703
H20   H     H_    0.046219 0.828407 0.889643 0.122703
H21   H     H_    0.138201 0.698590 0.675767 0.108381
H22   H     H_    0.361798 0.301410 0.175766 0.108382
H23   H     H_    0.638202 0.801410 0.324233 0.108382
H24   H     H_    0.861797 0.198590 0.824233 0.108382
C65   C     C_1   0.020684 0.551107 0.969660 0.323279
N1    N     N_1   0.025393 0.565773 0.020532 -0.351086
C66   C     C_1   0.479316 0.448893 0.469660 0.323279
N2    N     N_1   0.474606 0.434227 0.520532 -0.351086
C67   C     C_1   0.520687 0.948893 0.030340 0.323280
N3    N     N_1   0.525397 0.934228 0.979468 -0.351086
C68   C     C_1   0.979313 0.051106 0.530339 0.323279
N4    N     N_1   0.974603 0.065772 0.479468 -0.351086
C69   C     C_1   0.988812 0.451898 0.526918 0.324498
N5    N     N_1   0.977969 0.440743 0.475736 -0.351714
C70   C     C_1   0.511190 0.548102 0.026918 0.324498
N6    N     N_1   0.522032 0.559257 0.975737 -0.351714
C71   C     C_1   0.488809 0.048102 0.473082 0.324498
N7    N     N_1   0.477966 0.059256 0.524263 -0.351714
C72   C     C_1   0.011192 0.951898 0.973082 0.324498
N8    N     N_1   0.022035 0.940743 0.024263 -0.351714

loop_
_geom_bond_atom_site_label_1
_geom_bond_atom_site_label_2
_ccdc_geom_bond_type
O17   V3    S    
C39   C43   A    
C26   C30   A    
O1    C5    A    
C23   C27   A    
O19   V1    S    
O13   V1    S    
O3    C7    A    
C10   H6    S    
C21   H17   S    
C48   C52   A    
O15   V3    S    
C70   N6    T    
C11   C59   A    
C35   C51   A    
C11   C43   A    
C52   H24   S    
C50   H22   S    
O9    V1    S    
C60   C68   S    
C9    C57   A    
O16   V4    S    
O4    C8    A    
C25   H13   S    
C66   N2    T    
O1    V3    S    
C30   C38   A    
O2    V4    S    
O3    V1    S    
C38   C42   A    
C24   H20   S    
C12   C44   A    
C1    O15   A    
C2    O16   A    
C19   C63   A    
O2    C6    A    
H4    C48   S    
C37   C41   A    
C26   H14   S    
C11   H7    S    
O5    V1    S    
C40   C44   A    
C34   C62   A    
C12   C60   A    
O11   C7    A    
C1    C14   S    
O12   C8    A    
C35   C63   A    
C3    C16   S    
C6    C64   S    
O10   V2    S    
C4    C15   S    
C40   C56   A    
C20   C72   S    
C55   H11   S    
C57   C65   S    
O7    V3    S    
C22   H18   S    
C36   C52   A    
C30   C34   A    
O18   V4    S    
C18   C62   A    
H2    C46   S    
C19   C71   S    
H1    C45   S    
C7    C61   S    
C23   H19   S    
O8    V4    S    
O7    C3    A    
C10   C58   A    
C31   C35   A    
O5    C1    A    
C8    C62   S    
C34   C50   A    
C46   C50   A    
C33   C49   A    
C45   C49   A    
O8    C4    A    
C17   C69   S    
C2    C13   S    
C16   C56   A    
O9    C5    A    
C36   C64   A    
C58   C66   S    
C25   C29   A    
C69   N5    T    
C56   H12   S    
C10   C42   A    
C39   C55   A    
C9    C41   A    
O6    V2    S    
C31   C39   A    
C59   C67   S    
C16   C60   A    
C71   N7    T    
C51   H23   S    
C12   H8    S    
C72   N8    T    
C38   C54   A    
C32   C36   A    
C37   C53   A    
C65   N1    T    
C22   C26   A    
C29   C37   A    
C3    O13   A    
C21   C25   A    
C13   C57   A    
C15   C59   A    
C18   C70   S    
C44   C48   A    
C49   H21   S    
O6    C2    A    
C68   N4    T    
O11   V3    S    
C14   C58   A    
O12   V4    S    
C5    C63   S    
C27   C31   A    
C13   C53   A    
C28   C32   A    
C9    H5    S    
O10   C6    A    
O20   V2    S    
C27   H15   S    
C18   C22   A    
C67   N3    T    
C47   C51   A    
C17   C21   A    
C33   C61   A    
C20   C64   A    
C19   C23   A    
C32   C40   A    
C54   H10   S    
C53   H9    S    
O14   V2    S    
C29   C33   A    
C24   C28   A    
C42   C46   A    
C4    O14   A    
C41   C45   A    
C17   C61   A    
C28   H16   S    
C43   C47   A    
O4    V2    S    
C20   C24   A    
H3    C47   S    
C14   C54   A    
C15   C55   A    
