data_mof_unit_32315.cif
_audit_creation_date              2013-03-05T15:43:32-0500
_audit_creation_method            fapswitch 2.2
_symmetry_space_group_name_H-M    P1
_symmetry_Int_Tables_number       1
_space_group_crystal_system       triclinic
_cell_length_a                    10.034347
_cell_length_b                    10.73186
_cell_length_c                    13.076675
_cell_angle_alpha                 90.252996
_cell_angle_beta                  69.756558
_cell_angle_gamma                 89.800089
_cell_volume                      1321.17623906

loop_
_atom_site_label
_atom_site_type_symbol
_atom_site_description
_atom_site_fract_x
_atom_site_fract_y
_atom_site_fract_z
_atom_type_partial_charge
O1    O     O_R   0.386950 0.680940 0.500020 -0.600062
O2    O     O_R   0.613110 0.680900 0.499980 -0.598454
C1    C     C_R   0.501818 0.737229 0.495631 0.990184
O3    O     O_R   0.330780 0.500000 0.653640 -0.540547
O4    O     O_R   0.556930 0.499960 0.653610 -0.606829
C2    C     C_R   0.420473 0.498154 0.704692 0.941729
Zn1   Zn    Zn3+2 0.349000 0.500030 0.500020 1.047142
Zn2   Zn    Zn3+2 0.651000 0.499970 0.499980 1.000265
O5    O     O_R   0.386890 0.319100 0.500020 -0.598021
O6    O     O_R   0.613050 0.319060 0.499980 -0.614989
O7    O     O_R   0.443070 0.500040 0.346390 -0.622875
O8    O     O_R   0.669220 0.500000 0.346360 -0.616671
C3    C     C_R   0.499750 0.262653 0.501248 0.926680
C4    C     C_R   0.579235 0.500772 0.295601 0.876155
C5    C     C_R   0.770210 0.623563 0.016250 0.363401
H1    H     H_    0.820182 0.613103 0.163735 0.192145
C6    C     C_R   0.629592 0.512458 0.177971 -0.116104
C7    C     C_R   0.275910 0.380041 0.866814 0.230662
C8    C     C_R   0.292642 0.310482 0.951225 -0.231943
C9    C     C_R   0.399834 0.338638 0.992680 0.256540
C10   C     C_R   0.475005 0.453438 0.963587 -0.044701
C11   C     C_R   0.457507 0.525333 0.879160 -0.123626
C12   C     C_R   0.566017 0.499469 0.016279 0.065405
C13   C     C_R   0.666487 0.594208 0.968075 -0.116887
C14   C     C_R   0.646709 0.666869 0.884380 0.199230
C15   C     C_R   0.533263 0.638921 0.847742 0.229167
C16   C     C_R   0.544069 0.466244 0.123559 -0.114675
C17   C     C_R   0.748934 0.583090 0.122433 -0.246381
C18   C     C_R   0.370617 0.478981 0.822779 -0.127493
H2    H     H_    0.450881 0.413820 0.169624 0.165530
H3    H     H_    0.230224 0.226930 0.977844 0.236774
C19   C     C_2   0.620144 0.066978 0.477570 -0.130910
C20   C     C_2   0.498086 0.130807 0.507230 -0.265615
H4    H     H_    0.722409 0.113505 0.451734 0.180507
H5    H     H_    0.394409 0.087669 0.538530 0.180479
C21   C     C_2   0.619905 0.932832 0.482819 -0.064730
C22   C     C_2   0.507503 0.868355 0.480549 -0.281429
H6    H     H_    0.713201 0.887420 0.490001 0.202532
H7    H     H_    0.418255 0.910845 0.464987 0.158070
C23   C     C_2   0.104027 0.429631 0.435949 -0.086933
N1    N     N_2   0.148270 0.498670 0.498870 -0.172765
H8    H     H_    0.180272 0.369590 0.377110 0.173335
H9    H     H_    0.075590 0.550844 0.558453 0.206618
C24   C     C_2   0.952155 0.424873 0.440191 -0.103680
N2    N     N_2   0.852610 0.498640 0.498840 -0.184065
H10   H     H_    0.925836 0.356127 0.389209 0.166984
H11   H     H_    0.878015 0.567931 0.543122 0.197181
N3    N     N_R   0.720883 0.782259 0.852827 0.262396
O9    O     O_R   0.814817 0.794718 0.755681 -0.288606
O10   O     O_R   0.692747 0.875807 0.920762 -0.275282
N4    N     N_R   0.895974 0.693254 0.959769 0.244344
O11   O     O_R   0.971334 0.664415 0.859616 -0.275781
O12   O     O_R   0.948620 0.769795 0.013166 -0.313670
N5    N     N_R   0.175184 0.339269 0.818102 0.220227
O13   O     O_R   0.153936 0.220876 0.808647 -0.329138
O14   O     O_R   0.089150 0.419300 0.799011 -0.305920
N6    N     N_R   0.441467 0.243291 0.052785 0.206067
O15   O     O_R   0.575337 0.216778 0.030122 -0.303757
O16   O     O_R   0.346415 0.170825 0.118296 -0.371795
N7    N     N_R   0.484413 0.730947 0.788443 0.210017
O17   O     O_R   0.348993 0.752275 0.813735 -0.313459
O18   O     O_R   0.573529 0.796776 0.712065 -0.341974

loop_
_geom_bond_atom_site_label_1
_geom_bond_atom_site_label_2
_geom_bond_distance
_ccdc_geom_bond_type
H1    C17   1.083446 S    
O4    Zn2   1.901229 S    
C12   C13   1.421438 A    
C3    C20   1.417295 S    
C11   C18   1.412739 A    
C5    N4    1.436623 S    
C8    C9    1.395137 A    
C4    C6    1.449623 S    
Zn2   O8    1.953128 S    
C14   C15   1.412049 A    
C8    H3    1.083169 S    
C19   C20   1.335207 D    
C23   H8    1.085052 S    
O2    C1    1.286595 A    
C5    C17   1.401100 A    
C22   H7    1.084170 S    
C7    C18   1.412759 A    
O1    Zn1   1.979797 S    
C10   C11   1.409165 A    
C13   C14   1.414936 A    
C16   H2    1.081954 S    
Zn1   O7    1.901229 S    
N1    H9    1.025926 S    
C14   N3    1.433925 S    
N6    O15   1.301660 A    
C21   C22   1.334260 D    
O3    Zn1   1.953128 S    
C19   C21   1.441544 S    
N3    O10   1.301299 A    
C5    C13   1.426052 A    
C20   H5    1.083747 S    
O8    C4    1.292552 A    
C12   C16   1.390985 A    
N2    H11   1.026130 S    
C10   C12   1.410115 A    
N7    O18   1.299564 A    
O4    C2    1.299532 A    
O7    C4    1.296213 A    
N5    O14   1.300437 A    
N6    O16   1.301541 A    
C7    N5    1.436978 S    
C21   H6    1.086651 S    
C6    C16   1.382426 A    
C23   C24   1.506695 S    
C2    C18   1.464936 S    
C9    C10   1.429541 A    
C1    C22   1.420438 S    
O3    C2    1.293016 A    
C7    C8    1.392309 A    
C11   C15   1.423871 A    
Zn1   O5    1.977287 S    
O5    C3    1.287484 A    
N5    O13   1.301485 A    
N3    O9    1.301480 A    
C23   N1    1.293344 D    
O1    C1    1.286919 A    
C9    N6    1.438986 S    
Zn2   N2    2.017915 S    
C6    C17   1.394788 A    
C15   N7    1.443380 S    
Zn2   O6    1.979797 S    
O2    Zn2   1.977285 S    
C24   N2    1.292922 D    
N4    O11   1.300878 A    
Zn1   N1    2.019550 S    
C24   H10   1.085069 S    
N7    O17   1.301697 A    
N4    O12   1.301759 A    
O6    C3    1.284948 A    
C19   H4    1.087029 S    
