data_mof_unit_54610.cif
_audit_creation_date              2012-12-11T14:17:43-0500
_audit_creation_method            fapswitch 2.2
_symmetry_space_group_name_H-M    P1
_symmetry_Int_Tables_number       1
_space_group_crystal_system       triclinic
_cell_length_a                    11.161717
_cell_length_b                    11.161656
_cell_length_c                    18.762408
_cell_angle_alpha                 90.004533
_cell_angle_beta                  89.993485
_cell_angle_gamma                 119.995475
_cell_volume                      2024.41080048

loop_
_atom_site_label
_atom_site_type_symbol
_atom_type_description
_atom_site_fract_x
_atom_site_fract_y
_atom_site_fract_z
_atom_type_partial_charge
C1    C     C_R   0.520697 0.459406 0.147608 0.543126
C2    C     C_R   0.540577 0.061263 0.147615 0.543126
C3    C     C_R   0.938704 0.479285 0.147606 0.543132
C4    C     C_R   0.453067 0.521459 0.854285 0.525229
C5    C     C_R   0.068402 0.546934 0.854288 0.525320
C6    C     C_R   0.478544 0.931666 0.854277 0.525271
C7    C     C_R   0.397031 0.007948 0.462971 0.363333
C8    C     C_R   0.991732 0.388950 0.463033 0.363109
C9    C     C_R   0.610990 0.602882 0.462994 0.363088
C10   C     C_R   0.007888 0.396988 0.537056 0.363077
C11   C     C_R   0.388982 0.991809 0.536994 0.362895
C12   C     C_R   0.602881 0.610988 0.537012 0.362773
C13   C     C_R   0.745779 0.062140 0.567007 0.481835
C14   C     C_R   0.937193 0.683165 0.567297 0.481509
C15   C     C_R   0.316593 0.254162 0.567107 0.481670
C16   C     C_R   0.061919 0.745714 0.433096 0.480171
C17   C     C_R   0.683345 0.937432 0.432805 0.479867
C18   C     C_R   0.254191 0.316569 0.432931 0.479900
C19   C     C_R   0.837882 0.033573 0.532691 -0.020837
C20   C     C_R   0.966063 0.804071 0.533162 -0.020580
C21   C     C_R   0.195836 0.162114 0.532865 -0.020705
C22   C     C_R   0.033474 0.837847 0.467473 -0.023147
C23   C     C_R   0.804158 0.966182 0.466999 -0.022894
C24   C     C_R   0.162115 0.195843 0.467188 -0.022990
C25   C     C_R   0.518420 0.458045 0.353465 0.617204
C26   C     C_R   0.541933 0.060340 0.353452 0.617076
C27   C     C_R   0.939578 0.481566 0.353484 0.617282
C28   C     C_R   0.458056 0.518413 0.646543 0.611617
C29   C     C_R   0.060306 0.541910 0.646564 0.611470
C30   C     C_R   0.481579 0.939615 0.646531 0.611623
C31   C     C_R   0.491313 0.969340 0.929330 0.012602
C32   C     C_R   0.030582 0.521989 0.929309 0.012600
C33   C     C_R   0.477995 0.508543 0.929310 0.012550
C34   C     C_R   0.003833 0.494404 0.077492 0.003823
C35   C     C_R   0.490529 0.996034 0.077516 0.003717
C36   C     C_R   0.505511 0.509371 0.077490 0.003767
C37   C     C_R   0.416955 0.028030 0.959364 -0.080457
C38   C     C_R   0.971750 0.388914 0.959312 -0.080312
C39   C     C_R   0.611041 0.582849 0.959318 -0.080350
C40   C     C_R   0.972193 0.376411 0.034290 -0.074384
C41   C     C_R   0.404084 0.027582 0.034344 -0.074443
C42   C     C_R   0.623489 0.595751 0.034293 -0.074434
C43   C     C_R   0.555547 0.930327 0.046850 -0.139302
C44   C     C_R   0.069613 0.625163 0.046853 -0.139204
C45   C     C_R   0.374787 0.444277 0.046841 -0.139291
C46   C     C_R   0.086219 0.638965 0.973911 -0.115130
C47   C     C_R   0.552715 0.913743 0.973911 -0.114968
C48   C     C_R   0.361012 0.447058 0.973903 -0.115247
C49   C     C_R   0.351115 0.082527 0.916599 -0.111065
C50   C     C_R   0.917023 0.268599 0.916520 -0.111014
C51   C     C_R   0.731352 0.648629 0.916526 -0.111051
C52   C     C_R   0.941627 0.246723 0.062669 -0.079412
C53   C     C_R   0.304921 0.058021 0.062780 -0.079346
C54   C     C_R   0.753104 0.694899 0.062696 -0.079348
C55   C     C_R   0.259615 0.118412 0.946525 0.455374
C56   C     C_R   0.881052 0.141173 0.946397 0.455142
C57   C     C_R   0.858753 0.740117 0.946417 0.455338
C58   C     C_R   0.894341 0.130827 0.019304 0.476965
C59   C     C_R   0.236261 0.105338 0.019479 0.476956
C60   C     C_R   0.869059 0.763515 0.019367 0.476928
C61   C     C_R   0.501842 0.000759 0.574896 0.003658
C62   C     C_R   0.998849 0.500816 0.575004 0.003828
C63   C     C_R   0.499029 0.498119 0.574934 0.003821
C64   C     C_R   0.000618 0.501796 0.425145 0.004908
C65   C     C_R   0.500914 0.998983 0.425038 0.005011
C66   C     C_R   0.498138 0.499000 0.425080 0.005073
C67   C     C_R   0.616770 0.019659 0.535818 -0.119696
C68   C     C_R   0.979613 0.596671 0.535988 -0.119764
C69   C     C_R   0.403091 0.383136 0.535879 -0.119772
C70   C     C_R   0.019394 0.616661 0.464243 -0.118388
C71   C     C_R   0.596839 0.979881 0.464073 -0.118429
C72   C     C_R   0.383177 0.403041 0.464144 -0.118481
Cr1   Cr    Cr6+3 0.768550 0.541320 0.250660 1.134417
Cr2   Cr    Cr6+3 0.458680 0.227230 0.250660 1.134306
Cr3   Cr    Cr6+3 0.772770 0.231450 0.250660 1.134236
Cr4   Cr    Cr6+3 0.541320 0.768550 0.749340 1.172058
Cr5   Cr    Cr6+3 0.227230 0.458680 0.749340 1.171864
Cr6   Cr    Cr6+3 0.231450 0.772770 0.749340 1.171842
O1    O     O_R   0.910960 0.572410 0.171010 -0.495469
O2    O     O_R   0.427590 0.338550 0.171010 -0.495454
O3    O     O_R   0.661450 0.089040 0.171010 -0.495551
O4    O     O_R   0.572410 0.910960 0.828990 -0.455116
O5    O     O_R   0.338550 0.427590 0.828990 -0.455580
O6    O     O_R   0.089040 0.661450 0.828990 -0.455332
O7    O     O_R   0.639750 0.528530 0.175600 -0.526070
O8    O     O_R   0.471470 0.111220 0.175600 -0.526073
O9    O     O_R   0.888780 0.360250 0.175600 -0.526130
O10   O     O_R   0.528530 0.639750 0.824400 -0.512974
O11   O     O_R   0.111220 0.471470 0.824400 -0.512957
O12   O     O_R   0.360250 0.888780 0.824400 -0.513117
O13   O     O_R   0.909330 0.572400 0.331540 -0.446626
O14   O     O_R   0.427600 0.336930 0.331540 -0.446837
O15   O     O_R   0.663070 0.090670 0.331540 -0.446888
O16   O     O_R   0.572400 0.909330 0.668460 -0.443491
O17   O     O_R   0.336930 0.427600 0.668460 -0.443672
O18   O     O_R   0.090670 0.663070 0.668460 -0.443771
O19   O     O_R   0.638240 0.528520 0.324410 -0.435092
O20   O     O_R   0.471480 0.109720 0.324410 -0.435205
O21   O     O_R   0.890280 0.361760 0.324410 -0.435129
O22   O     O_R   0.528520 0.638240 0.675590 -0.435515
O23   O     O_R   0.109720 0.471480 0.675590 -0.435638
O24   O     O_R   0.361760 0.890280 0.675590 -0.435600
O25   O     O_3   0.666667 0.333333 0.250630 -0.328972
O26   O     O_3   0.333333 0.666667 0.749370 -0.351131
H1    H     H_    0.612329 0.895481 0.079375 0.191893
H2    H     H_    0.104534 0.716794 0.079400 0.191821
H3    H     H_    0.283163 0.387514 0.079383 0.191957
H4    H     H_    0.142934 0.742775 0.952368 0.202436
H5    H     H_    0.599838 0.857075 0.952348 0.202686
H6    H     H_    0.257216 0.399906 0.952353 0.202575
H7    H     H_    0.368465 0.096769 0.859784 0.181658
H8    H     H_    0.902661 0.271729 0.859707 0.181528
H9    H     H_    0.728209 0.631234 0.859711 0.181670
H10   H     H_    0.961371 0.233278 0.117527 0.202265
H11   H     H_    0.271726 0.038034 0.117611 0.202072
H12   H     H_    0.766350 0.728125 0.117519 0.202141
F1    F     F_    0.188831 0.159826 0.904088 -0.557217
F2    F     F_    0.839373 0.028995 0.903918 -0.557473
F3    F     F_    0.970930 0.810806 0.903940 -0.557209
F4    F     F_    0.863319 0.008312 0.048766 -0.577857
F5    F     F_    0.144837 0.136384 0.049018 -0.577780
F6    F     F_    0.991529 0.854926 0.048874 -0.577928
F7    F     F_    0.307584 0.036592 0.428973 -0.612596
F8    F     F_    0.963223 0.270940 0.428989 -0.612865
F9    F     F_    0.729099 0.692257 0.428990 -0.612967
F10   F     F_    0.036682 0.307627 0.571032 -0.611206
F11   F     F_    0.270926 0.963203 0.571023 -0.611352
F12   F     F_    0.692197 0.729128 0.571006 -0.611610
F13   F     F_    0.782302 0.130949 0.630197 -0.562616
F14   F     F_    0.868484 0.650791 0.630521 -0.562917
F15   F     F_    0.348912 0.217692 0.630301 -0.562708
F16   F     F_    0.130777 0.782312 0.369919 -0.567973
F17   F     F_    0.651004 0.868686 0.369596 -0.568270
F18   F     F_    0.217716 0.348909 0.369746 -0.568125
H13   H     H_    0.932825 0.061335 0.559019 0.162298
H14   H     H_    0.938613 0.871378 0.559657 0.162860
H15   H     H_    0.128609 0.067238 0.559253 0.162471
H16   H     H_    0.061359 0.932865 0.441196 0.159955
H17   H     H_    0.871428 0.938637 0.440551 0.160462
H18   H     H_    0.067220 0.128646 0.440810 0.160267

loop_
_geom_bond_atom_site_label_1
_geom_bond_atom_site_label_2
_ccdc_geom_bond_type
C2    C35   S    
C59   F5    S    
C48   H6    S    
Cr4   O26   S    
C6    O4    A    
C55   C59   A    
Cr6   O24   S    
C36   C42   A    
C21   H15   S    
C3    O1    A    
C12   F12   S    
C53   C59   A    
Cr2   O20   S    
C54   C60   A    
Cr6   O12   S    
Cr1   O19   S    
Cr5   O11   S    
C17   C23   A    
C28   O17   A    
C34   C40   A    
C23   H17   S    
Cr5   O26   S    
C14   F14   S    
C15   F15   S    
C9    F9    S    
Cr5   O5    S    
C19   H13   S    
C43   H1    S    
Cr2   O14   S    
C9    C66   A    
Cr4   O16   S    
C39   C51   A    
C4    C33   S    
Cr5   O23   S    
C66   C72   A    
C63   C69   A    
Cr6   O18   S    
C18   C72   A    
C54   H12   S    
C27   O13   A    
C51   C57   A    
C32   C38   A    
C35   C43   A    
Cr4   O10   S    
C49   H7    S    
C5    C32   S    
C68   C70   A    
C28   O22   A    
C26   O15   A    
C6    C31   S    
C41   C53   A    
Cr2   O2    S    
Cr3   O25   S    
C10   C62   A    
C32   C46   A    
C35   C41   A    
C50   H8    S    
C44   C46   A    
C7    C11   A    
C39   C42   A    
C1    O7    A    
C15   C69   A    
C13   C19   A    
Cr6   O26   S    
C14   C20   A    
C16   C70   A    
Cr1   O13   S    
Cr4   O4    S    
C12   C63   A    
C19   C23   A    
Cr3   O3    S    
C57   C60   A    
C3    C34   S    
C55   F1    S    
C40   C52   A    
C3    O9    A    
Cr5   O17   S    
C20   H14   S    
C31   C37   A    
C46   H4    S    
C69   C72   A    
C11   F11   S    
C7    C65   A    
C37   C49   A    
C61   C67   A    
C15   C21   A    
C27   O21   A    
C30   O24   A    
Cr3   O21   S    
Cr1   O1    S    
C29   O23   A    
C36   C45   A    
C33   C39   A    
Cr2   O8    S    
C60   F6    S    
Cr1   O7    S    
C52   C58   A    
C8    C64   A    
C38   C50   A    
Cr3   O9    S    
C26   O20   A    
C17   C71   A    
C64   C70   A    
C47   H5    S    
C17   F17   S    
C18   C24   A    
C21   C24   A    
C58   F4    S    
C24   H18   S    
Cr3   O15   S    
C13   C67   A    
C45   C48   A    
C25   O19   A    
C5    O6    A    
C34   C44   A    
C29   C62   S    
C25   O14   A    
C16   C22   A    
C26   C65   S    
C56   F2    S    
C51   H9    S    
C8    F8    S    
C25   C66   S    
C14   C68   A    
C20   C22   A    
C44   H2    S    
C11   C61   A    
C49   C55   A    
C29   O18   A    
C4    O10   A    
C52   H10   S    
Cr4   O22   S    
C22   H16   S    
C57   F3    S    
C30   O16   A    
C65   C71   A    
C42   C54   A    
C38   C40   A    
C4    O5    A    
C56   C58   A    
C2    O8    A    
C18   F18   S    
C67   C71   A    
C62   C68   A    
C37   C41   A    
C16   F16   S    
C9    C12   A    
C50   C56   A    
C27   C64   S    
C45   H3    S    
C28   C63   S    
Cr6   O6    S    
Cr1   O25   S    
C6    O12   A    
C8    C10   A    
C30   C61   S    
C33   C48   A    
C13   F13   S    
C1    O2    A    
C2    O3    A    
C31   C47   A    
C10   F10   S    
C43   C47   A    
C5    O11   A    
C53   H11   S    
C1    C36   S    
C7    F7    S    
Cr2   O25   S    
