data_mof_unit_13804.cif
_audit_creation_date              2012-12-10T18:43:10-0500
_audit_creation_method            fapswitch 2.2
_symmetry_space_group_name_H-M    P1
_symmetry_Int_Tables_number       1
_space_group_crystal_system       triclinic
_cell_length_a                    10.746732
_cell_length_b                    9.831468
_cell_length_c                    10.781811
_cell_angle_alpha                 89.767038
_cell_angle_beta                  91.147651
_cell_angle_gamma                 91.263086
_cell_volume                      1138.65191743

loop_
_atom_site_label
_atom_site_type_symbol
_atom_type_description
_atom_site_fract_x
_atom_site_fract_y
_atom_site_fract_z
_atom_type_partial_charge
C1    C     C_R   0.260095 0.498860 0.503709 1.022781
C2    C     C_R   0.933264 0.395865 0.442845 0.523796
C3    C     C_R   0.872971 0.507919 0.491137 -0.470517
C4    C     C_R   0.127672 0.498793 0.505413 -0.446505
C5    C     C_R   0.940833 0.621697 0.538786 0.379294
C6    C     C_R   0.068719 0.611246 0.556261 0.360721
C7    C     C_R   0.578161 0.074578 0.578888 0.366793
C8    C     C_R   0.422493 0.072339 0.419037 0.337703
C9    C     C_R   0.576892 0.928992 0.578889 0.426121
C10   C     C_R   0.424563 0.925336 0.419158 0.372470
C11   C     C_3   0.318494 0.268887 0.912015 -0.294223
C12   C     C_R   0.740210 0.502092 0.496870 1.018476
C13   C     C_3   0.583010 0.171711 0.111738 -0.091326
C14   C     C_3   0.875134 0.831238 0.479087 -0.126148
C15   C     C_3   0.155536 0.825096 0.593408 -0.114195
C16   C     C_3   0.675794 0.108077 0.770817 -0.093209
C17   C     C_3   0.260826 0.080403 0.265929 -0.070698
C18   C     C_R   0.498574 0.499855 0.262674 0.872474
C19   C     C_R   0.504053 0.499483 0.737576 0.837760
C20   C     C_2   0.501444 0.386921 0.936450 0.288618
C21   C     C_2   0.528891 0.392559 0.068607 0.301639
C22   C     C_2   0.528184 0.497862 0.868124 0.427108
C23   C     C_2   0.481825 0.495861 0.131832 0.405663
C24   C     C_R   0.060476 0.392886 0.447633 0.495655
F1    F     F_    0.585187 0.610212 0.919291 -0.615296
F2    F     F_    0.402964 0.586637 0.078076 -0.634123
F3    F     F_    0.117536 0.285742 0.396717 -0.623733
F4    F     F_    0.869329 0.290391 0.388427 -0.599310
F5    F     F_    0.654481 0.858831 0.654761 -0.593557
F6    F     F_    0.354576 0.848470 0.339202 -0.645418
H1    H     H_    0.302944 0.262547 0.013587 0.159190
H2    H     H_    0.166160 0.827019 0.490932 0.157783
H3    H     H_    0.244248 0.865173 0.634769 0.159123
H4    H     H_    0.081551 0.894701 0.621749 0.178896
H5    H     H_    0.752398 0.034825 0.781689 0.209221
H6    H     H_    0.701780 0.197948 0.828333 0.165505
H7    H     H_    0.587255 0.063927 0.807136 0.175612
H8    H     H_    0.305525 0.017790 0.194586 0.173428
H9    H     H_    0.204407 0.155498 0.213974 0.191845
H10   H     H_    0.195691 0.020348 0.324721 0.191738
H11   H     H_    0.274221 0.177213 0.868893 0.200142
H12   H     H_    0.271934 0.359543 0.871843 0.184129
H13   H     H_    0.482064 0.153372 0.126793 0.158886
H14   H     H_    0.634203 0.112945 0.183640 0.184097
H15   H     H_    0.609365 0.132221 0.020332 0.156285
H16   H     H_    0.858889 0.933819 0.517269 0.210002
H17   H     H_    0.796162 0.805689 0.415015 0.171321
H18   H     H_    0.961304 0.838592 0.423793 0.089067
N1    N     N_R   0.500000 0.857200 0.500000 -0.199833
N2    N     N_R   0.500000 0.142810 0.500000 -0.177439
O1    O     O_R   0.316770 0.614620 0.499990 -0.577655
O2    O     O_3   0.618450 0.309982 0.123221 -0.613707
O3    O     O_3   0.882628 0.737209 0.579025 -0.509204
O4    O     O_3   0.132635 0.693541 0.641885 -0.563201
O5    O     O_3   0.665498 0.151388 0.646364 -0.559156
O6    O     O_3   0.350581 0.151897 0.338639 -0.555086
O7    O     O_R   0.683230 0.614620 0.500010 -0.579981
O8    O     O_R   0.316800 0.385290 0.500000 -0.548880
O9    O     O_R   0.683200 0.385290 0.500000 -0.525286
O10   O     O_R   0.500000 0.614630 0.319080 -0.556527
O11   O     O_R   0.500000 0.614630 0.680920 -0.535213
O12   O     O_R   0.500030 0.385300 0.319080 -0.581686
O13   O     O_R   0.499970 0.385300 0.680920 -0.598402
O14   O     O_3   0.446392 0.270583 0.885324 -0.647937
Zn1   Zn    Zn3+2 0.500000 0.653120 0.500000 1.095656
Zn2   Zn    Zn3+2 0.500000 0.346880 0.500000 1.098454

loop_
_geom_bond_atom_site_label_1
_geom_bond_atom_site_label_2
_ccdc_geom_bond_type
C20   O14   S    
C14   H18   S    
C8    C10   A    
C11   H11   S    
C14   H17   S    
C7    O5    S    
C13   O2    S    
C1    O1    A    
C10   F6    S    
C15   H4    S    
C24   F3    S    
C9    F5    S    
C16   H7    S    
C1    C4    S    
O7    Zn1   S    
C8    O6    S    
C21   C23   D    
C2    C3    A    
O13   Zn2   S    
C11   H1    S    
C15   H2    S    
O9    Zn2   S    
C1    O8    A    
C16   H6    S    
C13   H15   S    
N2    Zn2   S    
C17   O6    S    
O8    Zn2   S    
C10   N1    A    
N1    Zn1   S    
C19   O11   A    
C12   O7    A    
C5    O3    S    
C20   C22   D    
O10   Zn1   S    
C6    O4    S    
C8    N2    A    
C17   H8    S    
C21   O2    S    
C16   H5    S    
C2    C24   A    
C5    C6    A    
C4    C24   A    
C16   O5    S    
O1    Zn1   S    
O12   Zn2   S    
C18   C23   S    
C15   O4    S    
O11   Zn1   S    
C13   H13   S    
C14   O3    S    
C9    N1    A    
C20   C21   S    
C22   F1    S    
C11   H12   S    
C4    C6    A    
C19   C22   S    
C17   H9    S    
C23   F2    S    
C18   O10   A    
C7    C9    A    
C18   O12   A    
C2    F4    S    
C3    C12   S    
C14   H16   S    
C3    C5    A    
C12   O9    A    
C15   H3    S    
C13   H14   S    
C7    N2    A    
C19   O13   A    
C11   O14   S    
C17   H10   S    
