data_mof_unit_52906.cif
_audit_creation_date              2012-10-26T18:59:35-0400
_audit_creation_method            fapswitch 2.2
_symmetry_space_group_name_H-M    P1
_symmetry_Int_Tables_number       1
_space_group_crystal_system       triclinic
_cell_length_a                    23.522585
_cell_length_b                    10.777668
_cell_length_c                    9.572804
_cell_angle_alpha                 89.661703
_cell_angle_beta                  89.961561
_cell_angle_gamma                 90.661263
_cell_volume                      2426.67938847

loop_
_atom_site_label
_atom_site_type_symbol
_atom_type_description
_atom_site_fract_x
_atom_site_fract_y
_atom_site_fract_z
_atom_type_partial_charge
C1    C     C_R   0.498935 0.262575 0.500451 0.550351
C2    C     C_R   0.120589 0.608326 0.485671 0.398184
C3    C     C_R   0.238860 0.511931 0.374840 -0.056631
C4    C     C_R   0.390970 0.499698 0.500074 0.552415
C5    C     C_R   0.298149 0.512269 0.374394 -0.144824
C6    C     C_R   0.328352 0.499002 0.500222 0.006319
C7    C     C_R   0.298135 0.484919 0.626230 -0.140705
C8    C     C_R   0.238859 0.483942 0.626233 -0.056127
C9    C     C_R   0.209107 0.497656 0.500670 0.245051
C10   C     C_R   0.760614 0.472620 0.626806 -0.060578
C11   C     C_R   0.701330 0.472826 0.625635 -0.153372
C12   C     C_R   0.969511 0.276055 0.535939 -0.137727
C13   C     C_R   0.671674 0.494638 0.500555 0.001455
C14   C     C_R   0.702499 0.512463 0.376164 -0.148277
C15   C     C_R   0.761752 0.512669 0.377530 -0.062074
C16   C     C_R   0.499792 0.737567 0.499994 0.546151
C17   C     C_R   0.790970 0.493610 0.502962 0.250625
C18   C     C_R   0.519273 0.064430 0.613778 0.023210
C19   C     C_R   0.494991 0.129348 0.503259 0.014198
C20   C     C_R   0.464836 0.064242 0.400035 -0.158404
C21   C     C_R   0.465066 0.934658 0.400495 -0.162555
C22   C     C_R   0.496333 0.870866 0.502286 0.009226
C23   C     C_R   0.028614 0.275833 0.535273 -0.129413
C24   C     C_R   0.520116 0.936702 0.613386 0.020456
C25   C     C_3   0.579630 0.934440 0.668338 -0.280573
C26   C     C_3   0.578359 0.074953 0.669213 -0.268263
C27   C     C_R   0.548523 0.525351 0.071790 0.177034
C28   C     C_R   0.609039 0.498339 0.500023 0.544574
C29   C     C_R   0.452938 0.465430 0.074630 -0.027202
C30   C     C_R   0.452698 0.467028 0.926137 -0.018780
C31   C     C_R   0.549461 0.516506 0.925453 0.142364
C32   C     C_3   0.590626 0.620712 0.908131 -0.254746
C33   C     C_3   0.585876 0.640516 0.065123 -0.143139
C34   C     C_R   0.059349 0.387165 0.518889 0.032092
C35   C     C_R   0.879765 0.608194 0.490307 0.387247
C36   C     C_R   0.880414 0.387771 0.519486 0.394555
C37   C     C_R   0.939791 0.387568 0.520010 0.030468
C38   C     C_R   0.969894 0.501006 0.503830 -0.039401
C39   C     C_R   0.940148 0.614460 0.488608 0.029500
C40   C     C_3   0.559965 0.768220 0.099678 -0.238553
C41   C     C_3   0.498370 0.788416 0.049181 -0.279351
C42   C     C_3   0.485576 0.926359 0.032437 -0.465065
C43   C     C_3   0.946530 0.855524 0.456144 -0.216854
C44   C     C_3   0.927352 0.878289 0.304950 -0.278202
C45   C     C_R   0.030010 0.499985 0.503174 -0.032925
C46   C     C_3   0.898860 0.004112 0.289439 -0.420888
C47   C     C_R   0.060891 0.611311 0.486718 0.012605
C48   C     C_R   0.031931 0.723157 0.471998 -0.115686
C49   C     C_R   0.972295 0.727585 0.473113 -0.012806
C50   C     C_R   0.119006 0.388605 0.517752 0.399801
Cu1   Cu    Cu3+1 0.500000 0.499980 0.640670 0.932820
Cu2   Cu    Cu3+1 0.500000 0.500020 0.359330 0.926809
H1    H     H_    0.947180 0.188305 0.549170 0.152633
H2    H     H_    0.608426 0.118855 0.593465 0.142008
H3    H     H_    0.414592 0.438365 0.129562 0.118866
H4    H     H_    0.050089 0.188075 0.547598 0.163595
H5    H     H_    0.414056 0.441938 0.871850 0.119687
H6    H     H_    0.633253 0.587931 0.876587 0.104415
H7    H     H_    0.574017 0.695438 0.840360 0.156207
H8    H     H_    0.627337 0.626883 0.117596 0.110419
H9    H     H_    0.056089 0.808674 0.458688 0.165252
H10   H     H_    0.215966 0.522617 0.277489 0.125679
H11   H     H_    0.320253 0.523511 0.275775 0.119198
H12   H     H_    0.678825 0.454989 0.722323 0.118967
H13   H     H_    0.320205 0.474284 0.724719 0.118362
H14   H     H_    0.215970 0.473129 0.723812 0.125600
H15   H     H_    0.783020 0.456843 0.723963 0.123391
H16   H     H_    0.439277 0.939014 0.016048 0.150949
H17   H     H_    0.499037 0.978782 0.126234 0.160403
H18   H     H_    0.508611 0.965159 0.940611 0.159451
H19   H     H_    0.490296 0.743960 0.946919 0.182560
H20   H     H_    0.468193 0.746494 0.125575 0.187665
H21   H     H_    0.562607 0.784091 0.213668 0.174497
H22   H     H_    0.588276 0.839908 0.051333 0.133382
H23   H     H_    0.680979 0.526760 0.277989 0.114127
H24   H     H_    0.861063 0.009123 0.358730 0.197545
H25   H     H_    0.929212 0.079956 0.316280 0.159455
H26   H     H_    0.884878 0.017306 0.179647 0.148962
H27   H     H_    0.965002 0.875956 0.234752 0.158774
H28   H     H_    0.897226 0.804644 0.270416 0.205702
H29   H     H_    0.912004 0.870381 0.532863 0.203223
H30   H     H_    0.978511 0.928666 0.482336 0.114717
H31   H     H_    0.785050 0.527859 0.281215 0.117955
H32   H     H_    0.442599 0.113148 0.317771 0.130328
H33   H     H_    0.442223 0.884709 0.320024 0.131839
H34   H     H_    0.582197 0.894971 0.775225 0.127245
H35   H     H_    0.610426 0.896061 0.592172 0.139348
H36   H     H_    0.579392 0.114764 0.776072 0.140516
N1    N     N_R   0.851932 0.496536 0.504539 -0.394927
N2    N     N_R   0.148213 0.498135 0.501151 -0.398937
N3    N     N_R   0.500360 0.500930 0.147930 -0.233592
N4    N     N_R   0.500360 0.500890 0.852020 -0.238831
O1    O     O_R   0.500000 0.319640 0.618810 -0.491429
O2    O     O_R   0.582120 0.500020 0.618760 -0.505918
O3    O     O_R   0.582120 0.500060 0.381180 -0.501126
O4    O     O_2   0.848452 0.711501 0.478809 -0.528198
O5    O     O_2   0.851126 0.279869 0.532797 -0.515423
O6    O     O_2   0.147644 0.281526 0.532380 -0.491206
O7    O     O_2   0.150865 0.714674 0.470207 -0.491888
O8    O     O_R   0.500010 0.319680 0.381230 -0.499664
O9    O     O_R   0.417880 0.499940 0.618820 -0.508745
O10   O     O_R   0.417880 0.499980 0.381240 -0.514286
O11   O     O_R   0.499990 0.680320 0.618770 -0.497678
O12   O     O_R   0.500000 0.680360 0.381190 -0.515462

loop_
_geom_bond_atom_site_label_1
_geom_bond_atom_site_label_2
_ccdc_geom_bond_type
C36   N1    A    
C8    H14   S    
C41   C42   S    
C19   C20   A    
C18   C26   S    
C32   H6    S    
C46   H24   S    
C23   H4    S    
C10   H15   S    
C27   C33   S    
C12   C23   A    
Cu2   O10   S    
C29   C30   A    
C28   O3    A    
C18   C24   A    
C36   C37   A    
C38   C39   A    
C10   C17   A    
Cu1   O11   S    
C30   H5    S    
C25   H35   S    
C40   H21   S    
C5    H11   S    
Cu2   O3    S    
C28   O2    A    
C18   C19   A    
C12   C37   A    
C2    N2    A    
C38   C45   A    
C50   N2    A    
C31   C32   S    
C44   C46   S    
C8    C9    A    
C4    O10   A    
C13   C28   S    
C27   N3    A    
C36   O5    S    
C12   H1    S    
C41   H19   S    
C21   C22   A    
C42   H16   S    
C26   H2    S    
C1    O8    A    
C16   O12   A    
C45   C47   A    
C21   H33   S    
C1    C19   S    
C33   C40   S    
C34   C50   A    
C27   C31   A    
Cu1   Cu2   S    
C44   H28   S    
C17   N1    S    
C24   C25   S    
C4    C6    S    
C11   H12   S    
C50   O6    S    
C46   H26   S    
C43   C49   S    
C15   H31   S    
C29   H3    S    
C25   C26   S    
C35   O4    S    
Cu2   O8    S    
C42   H17   S    
C35   C39   A    
C43   C44   S    
C42   H18   S    
C37   C38   A    
C3    C9    A    
Cu1   N4    S    
C7    H13   S    
C16   O11   A    
C47   C48   A    
C23   C34   A    
C4    O9    A    
C34   C45   A    
Cu1   O1    S    
C41   H20   S    
C35   N1    A    
C26   H36   S    
C40   C41   S    
C39   C49   A    
C2    O7    S    
C33   H8    S    
C20   H32   S    
C43   H29   S    
C22   C24   A    
C29   N3    A    
C3    H10   S    
C15   C17   A    
Cu2   O12   S    
C16   C22   S    
C44   H27   S    
C3    C5    A    
C9    N2    S    
C46   H25   S    
C6    C7    A    
C2    C47   A    
Cu1   O9    S    
C14   H23   S    
C32   C33   S    
C11   C13   A    
C48   H9    S    
C5    C6    A    
C48   C49   A    
C25   H34   S    
C40   H22   S    
C7    C8    A    
C10   C11   A    
Cu1   O2    S    
C20   C21   A    
C1    O1    A    
C31   N4    A    
C43   H30   S    
C14   C15   A    
Cu2   N3    S    
C32   H7    S    
C13   C14   A    
C30   N4    A    
