data_mof_unit_36471.cif
_audit_creation_date              2012-10-26T20:06:11-0400
_audit_creation_method            fapswitch 2.2
_symmetry_space_group_name_H-M    P1
_symmetry_Int_Tables_number       1
_space_group_crystal_system       triclinic
_cell_length_a                    9.54717
_cell_length_b                    10.81689
_cell_length_c                    13.459276
_cell_angle_alpha                 91.143698
_cell_angle_beta                  72.973902
_cell_angle_gamma                 90.472847
_cell_volume                      1328.76031283

loop_
_atom_site_label
_atom_site_type_symbol
_atom_type_description
_atom_site_fract_x
_atom_site_fract_y
_atom_site_fract_z
_atom_type_partial_charge
C1    C     C_R   0.500179 0.737815 0.500608 0.535643
C2    C     C_R   0.370506 0.509515 0.815574 -0.004847
C3    C     C_R   0.632906 0.936500 0.478622 -0.102600
C4    C     C_R   0.420767 0.505120 0.700324 0.517605
C5    C     C_R   0.632572 0.064409 0.478177 -0.115923
C6    C     C_R   0.499334 0.128298 0.501847 0.021405
C7    C     C_R   0.366524 0.063501 0.527491 -0.128326
C8    C     C_R   0.366829 0.935569 0.526897 -0.128619
C9    C     C_R   0.500078 0.871687 0.502059 0.028885
C10   C     C_R   0.908172 0.594492 0.545825 0.015404
C11   C     C_R   0.056205 0.594095 0.546657 0.038810
C12   C     C_R   0.442827 0.507614 0.975179 0.015983
C13   C     C_R   0.090173 0.405207 0.452357 0.199473
C14   C     C_R   0.941686 0.406122 0.453787 0.038081
C15   C     C_R   0.499478 0.262182 0.500575 0.558903
C16   C     C_R   0.577367 0.507618 0.300321 0.562518
C17   C     C_R   0.797692 0.575332 0.023469 -0.125307
C18   C     C_R   0.617639 0.526823 0.187237 -0.013801
C19   C     C_R   0.235026 0.452192 0.869890 0.012279
C20   C     C_R   0.215193 0.410564 0.970204 -0.157485
C21   C     C_R   0.320765 0.432417 0.020014 -0.098939
C22   C     C_2   0.174971 0.297560 0.397797 0.585749
C23   C     C_R   0.468839 0.548320 0.872153 -0.025391
C24   C     C_2   0.365955 0.601003 0.194041 0.597097
C25   C     C_2   0.111907 0.428843 0.825875 0.234690
C26   C     C_2   0.591272 0.723928 0.755167 0.246727
C27   C     C_R   0.544840 0.536477 0.029553 0.005380
C28   C     C_R   0.686721 0.575024 0.974301 0.016937
C29   C     C_R   0.709179 0.623946 0.875477 -0.059363
C30   C     C_R   0.593019 0.625912 0.830735 0.024848
C31   C     C_R   0.505986 0.537933 0.138287 0.055216
C32   C     C_R   0.764578 0.542443 0.127955 -0.154696
Cu1   Cu    Cu3+1 0.359340 0.499980 0.500000 1.054498
Cu2   Cu    Cu3+1 0.640660 0.500020 0.500000 0.967310
H1    H     H_    0.851967 0.539005 0.164090 0.151253
H2    H     H_    0.306744 0.388693 0.093808 0.179663
H3    H     H_    0.117727 0.358970 0.010007 0.115418
H4    H     H_    0.736865 0.888548 0.459361 0.144619
H5    H     H_    0.180856 0.112288 0.375978 0.338248
H6    H     H_    0.264406 0.763276 0.243230 0.336332
H7    H     H_    0.054156 0.341031 0.838896 0.106293
H8    H     H_    0.497710 0.734358 0.725952 0.109730
H9    H     H_    0.736471 0.113025 0.458454 0.148637
H10   H     H_    0.262690 0.111523 0.548978 0.168705
H11   H     H_    0.262969 0.886903 0.546722 0.133895
H12   H     H_    0.839165 0.671070 0.581262 0.169263
H13   H     H_    0.096766 0.669499 0.584543 0.135513
H14   H     H_    0.898400 0.332267 0.415813 0.137239
H15   H     H_    0.811076 0.671445 0.838706 0.177914
H16   H     H_    0.908875 0.601082 0.981645 0.154424
N1    N     N_R   0.147940 0.499970 0.499970 -0.238966
N2    N     N_R   0.852060 0.500060 0.499990 -0.254768
O1    O     O_R   0.381250 0.680340 0.500010 -0.520869
O2    O     O_R   0.116621 0.178877 0.420449 -0.755152
O3    O     O_2   0.254335 0.541783 0.232602 -0.517315
O4    O     O_R   0.364310 0.729923 0.203076 -0.689234
O5    O     O_2   0.066199 0.510518 0.782393 -0.518013
O6    O     O_2   0.690627 0.799338 0.729327 -0.538353
O7    O     O_R   0.618820 0.680370 0.500010 -0.517215
O8    O     O_R   0.323240 0.499950 0.650980 -0.457889
O9    O     O_R   0.560810 0.499980 0.650980 -0.504182
O10   O     O_R   0.381180 0.319630 0.499990 -0.486830
O11   O     O_R   0.618750 0.319660 0.499990 -0.515335
O12   O     O_R   0.439190 0.500020 0.349020 -0.428897
O13   O     O_R   0.676760 0.500050 0.349020 -0.511226
O14   O     O_2   0.288439 0.311339 0.327893 -0.471050

loop_
_geom_bond_atom_site_label_1
_geom_bond_atom_site_label_2
_ccdc_geom_bond_type
C17   H16   S    
C10   H12   S    
C2    C4    S    
C32   H1    S    
C6    C7    A    
C3    C9    A    
C13   C14   A    
C14   H14   S    
C24   O4    S    
Cu2   N2    S    
C19   C20   A    
C10   N2    A    
C4    O8    A    
Cu1   Cu2   S    
C5    H9    S    
C24   C31   S    
C1    C9    S    
C7    C8    A    
C22   O2    S    
C21   H2    S    
C29   H15   S    
C7    H10   S    
C24   O3    D    
C20   H3    S    
C26   O6    D    
C12   C23   A    
C29   C30   A    
C25   O5    D    
Cu1   O12   S    
C5    C6    A    
C4    O9    A    
Cu2   O13   S    
C28   C29   A    
C16   O13   A    
C15   O10   A    
C13   C22   S    
C26   C30   S    
Cu1   O8    S    
C1    O7    A    
Cu1   O1    S    
Cu2   O7    S    
C19   C25   S    
C14   N2    A    
H5    O2    S    
C18   C32   A    
C10   C11   A    
C12   C27   A    
C27   C31   A    
C23   C30   A    
C2    C23   A    
C11   N1    A    
C20   C21   A    
C26   H8    S    
C8    C9    A    
C16   C18   S    
C25   H7    S    
C27   C28   A    
C17   C32   A    
C1    O1    A    
C8    H11   S    
Cu2   O11   S    
C15   O11   A    
C18   C31   A    
C16   O12   A    
H6    O4    S    
C6    C15   S    
C13   N1    A    
C17   C28   A    
C11   H13   S    
C12   C21   A    
Cu2   O9    S    
C22   O14   D    
Cu1   N1    S    
C2    C19   A    
C3    H4    S    
Cu1   O10   S    
C3    C5    A    
