data_mof_unit_21290.cif
_audit_creation_date              2012-12-10T18:13:29-0500
_audit_creation_method            fapswitch 2.2
_symmetry_space_group_name_H-M    P1
_symmetry_Int_Tables_number       1
_space_group_crystal_system       triclinic
_cell_length_a                    12.610632
_cell_length_b                    13.111086
_cell_length_c                    16.631947
_cell_angle_alpha                 91.024086
_cell_angle_beta                  97.924614
_cell_angle_gamma                 95.837934
_cell_volume                      2708.104039

loop_
_atom_site_label
_atom_site_type_symbol
_atom_type_description
_atom_site_fract_x
_atom_site_fract_y
_atom_site_fract_z
_atom_type_partial_charge
C1    C     C_R   0.557216 0.690388 0.518322 0.850180
C2    C     C_R   0.629484 0.526791 0.240336 -0.198206
C3    C     C_R   0.590633 0.640299 0.851294 -0.223259
C4    C     C_R   0.587945 0.595924 0.774698 -0.103237
C5    C     C_R   0.397164 0.541510 0.770071 -0.201646
C6    C     C_R   0.400099 0.585365 0.847183 -0.161641
C7    C     C_R   0.497294 0.633069 0.888431 0.050013
C8    C     C_2   0.566153 0.592839 0.022670 -0.327508
C9    C     C_2   0.505545 0.653714 0.976119 0.441953
C10   C     C_R   0.491839 0.544241 0.734521 -0.032698
C11   C     C_R   0.270177 0.065053 0.530623 -0.200687
C12   C     C_R   0.514061 0.499321 0.348838 0.865062
C13   C     C_R   0.406004 0.200701 0.505547 -0.054602
C14   C     C_R   0.697747 0.833560 0.562904 -0.211001
C15   C     C_R   0.728578 0.936048 0.584732 -0.129398
C16   C     C_R   0.651073 0.004534 0.583016 -0.170162
C17   C     C_R   0.540733 0.969151 0.564463 0.067835
C18   C     C_R   0.509769 0.863084 0.561433 0.092816
C19   C     C_R   0.459967 0.035491 0.547538 0.068912
C20   C     C_R   0.350496 0.998965 0.548209 0.179009
C21   C     C_R   0.323480 0.896578 0.565079 -0.260420
C22   C     C_R   0.402106 0.828796 0.570870 -0.196082
C23   C     C_R   0.440878 0.308334 0.493507 0.890377
C24   C     C_R   0.485235 0.134573 0.522630 -0.194013
C25   C     C_R   0.297936 0.165948 0.509822 -0.220487
C26   C     C_R   0.588118 0.796427 0.548606 -0.116376
C27   C     C_R   0.896725 0.322746 0.581876 0.338253
C28   C     C_R   0.209419 0.632509 0.408403 0.007829
C29   C     C_R   0.106524 0.662293 0.388469 -0.261492
C30   C     C_R   0.020594 0.610644 0.420496 -0.204362
C31   C     C_R   0.037784 0.528697 0.472877 0.078414
C32   C     C_R   0.144925 0.502449 0.492078 0.237548
C33   C     C_R   0.953890 0.471786 0.507192 -0.064162
C34   C     C_R   0.488276 0.508057 0.651072 0.847965
C35   C     C_R   0.978577 0.385285 0.553128 -0.011636
C36   C     C_R   0.084987 0.365209 0.574424 -0.249523
C37   C     C_R   0.166827 0.424069 0.545321 -0.235210
C38   C     C_R   0.846362 0.496156 0.498444 -0.186738
C39   C     C_R   0.800628 0.364074 0.588364 0.457169
C40   C     C_R   0.526270 0.514455 0.263871 -0.037245
C41   C     C_R   0.435743 0.526337 0.207149 -0.239968
C42   C     C_R   0.448426 0.553313 0.128581 -0.076881
C43   C     C_R   0.551940 0.570606 0.106334 0.228687
C44   C     C_R   0.642032 0.554316 0.161661 -0.189807
H1    H     H_    0.355263 0.515699 0.223601 0.161603
H2    H     H_    0.328058 0.577973 0.876277 0.149498
H3    H     H_    0.235323 0.216580 0.497816 0.158774
H4    H     H_    0.240982 0.867841 0.569864 0.152454
H5    H     H_    0.186275 0.038574 0.532340 0.130321
H6    H     H_    0.567082 0.160585 0.514641 0.164480
H7    H     H_    0.759816 0.783393 0.557868 0.162279
H8    H     H_    0.677896 0.084218 0.598664 0.194514
H9    H     H_    0.812856 0.962804 0.600020 0.152681
H10   H     H_    0.377590 0.750490 0.584717 0.188032
H11   H     H_    0.660622 0.603477 0.746443 0.179542
H12   H     H_    0.105695 0.304752 0.615499 0.186550
H13   H     H_    0.819302 0.557319 0.461081 0.163214
H14   H     H_    0.276197 0.672305 0.383374 0.149286
H15   H     H_    0.942012 0.635382 0.402689 0.136953
H16   H     H_    0.093354 0.724965 0.348030 0.154708
H17   H     H_    0.246656 0.406214 0.565453 0.214239
H18   H     H_    0.321719 0.504378 0.738710 0.154739
H19   H     H_    0.722001 0.564058 0.144151 0.138086
H20   H     H_    0.666177 0.676553 0.883153 0.136834
H21   H     H_    0.700674 0.517951 0.283106 0.155664
H22   H     H_    0.621988 0.548727 0.996094 0.138885
H23   H     H_    0.377186 0.558825 0.085071 0.165874
N1    N     N_R   0.774070 0.445420 0.541180 -0.173686
N2    N     N_R   0.226730 0.554050 0.459240 -0.135069
O1    O     O_R   0.631480 0.627510 0.519670 -0.619627
O2    O     O_R   0.455770 0.662400 0.493360 -0.628059
O3    O     O_R   0.598240 0.480510 0.398910 -0.624959
O4    O     O_R   0.422540 0.515400 0.372600 -0.612975
O5    O     O_R   0.544230 0.337600 0.506640 -0.567572
O6    O     O_R   0.368520 0.372490 0.480330 -0.642527
O7    O     O_R   0.577460 0.484600 0.627400 -0.524833
O8    O     O_R   0.401760 0.519490 0.601090 -0.655181
Zn1   Zn    Zn3+2 0.617320 0.476700 0.517570 0.994993
Zn2   Zn    Zn3+2 0.382680 0.523300 0.482430 0.920631
S1    S     S_3+6 0.737258 0.330668 0.675046 0.049031
O9    O     O_2   0.796125 0.253118 0.723834 -0.261373
O10   O     O_2   0.742758 0.425724 0.727836 -0.325008
O11   O     O_3   0.608493 0.281540 0.651506 -0.571485
H24   H     H_    0.580492 0.275095 0.704177 0.368946
O12   O     O_3   0.910305 0.223932 0.607203 -0.599101
C45   C     C_3   0.930324 0.160221 0.541832 0.073951
H25   H     H_    0.939074 0.082812 0.565830 0.163199
H26   H     H_    0.008371 0.184501 0.520639 0.131914
C46   C     C_3   0.839696 0.152281 0.468866 -0.401418
H27   H     H_    0.760089 0.140539 0.490010 0.225691
H28   H     H_    0.843150 0.224899 0.435398 0.207190
C47   C     C_3   0.850528 0.064354 0.410210 -0.923616
H29   H     H_    0.929360 0.075810 0.387189 0.260652
H30   H     H_    0.785220 0.061763 0.357867 0.268314
H31   H     H_    0.843962 0.989924 0.440936 0.262427
O13   O     O_3   0.436087 0.712652 0.010259 -0.653974
C48   C     C_3   0.419643 0.803211 0.967141 0.084757
H32   H     H_    0.352170 0.837274 0.990341 0.169136
H33   H     H_    0.393250 0.787830 0.901069 0.139143
C49   C     C_3   0.519720 0.881916 0.982132 -0.367934
H34   H     H_    0.541876 0.898015 0.048494 0.235117
H35   H     H_    0.588566 0.850633 0.958655 0.214517
C50   C     C_3   0.499227 0.981900 0.939997 -0.917985
H36   H     H_    0.478843 0.967662 0.873337 0.269137
H37   H     H_    0.572806 0.037178 0.951983 0.273355
H38   H     H_    0.432111 0.016290 0.963438 0.261496

loop_
_geom_bond_atom_site_label_1
_geom_bond_atom_site_label_2
_ccdc_geom_bond_type
C8    H22   S    
O1    Zn1   S    
C41   C42   A    
C35   C36   A    
C18   C26   A    
C8    C43   S    
C2    H21   S    
O2    Zn2   S    
C48   H32   S    
C22   H10   S    
C3    H20   S    
C1    O2    A    
C11   H5    S    
C15   H9    S    
C36   C37   A    
O7    Zn1   S    
C3    C7    A    
C34   O8    A    
C30   C31   A    
C45   H26   S    
C42   H23   S    
C11   C25   A    
C15   C16   A    
C13   C23   S    
C39   N1    A    
C27   O12   S    
C47   H29   S    
O3    Zn1   S    
C17   C19   A    
C50   H37   S    
C28   N2    A    
C2    C44   A    
C8    C9    D    
C31   C33   A    
C46   H28   S    
C25   H3    S    
C21   H4    S    
C12   O3    A    
C21   C22   A    
O13   C48   S    
N1    Zn1   S    
C13   C25   A    
S1    O11   S    
C47   H30   S    
C48   H33   S    
O8    Zn2   S    
C44   H19   S    
C24   H6    S    
C11   C20   A    
S1    O10   D    
C27   C39   A    
C45   H25   S    
C16   C17   A    
C27   C35   A    
O12   C45   S    
C47   H31   S    
C13   C24   A    
C12   C40   S    
C43   C44   A    
C29   C30   A    
C36   H12   S    
C38   H13   S    
O11   H24   S    
C29   H16   S    
C30   H15   S    
C49   H35   S    
C17   C18   A    
O4    Zn2   S    
C10   C34   S    
C32   C37   A    
C14   C26   A    
C46   C47   S    
C9    O13   S    
C32   N2    A    
C40   C41   A    
C38   N1    A    
C4    H11   S    
C1    C26   S    
N2    Zn2   S    
C42   C43   A    
C23   O5    A    
C4    C10   A    
C3    C4    A    
C48   C49   S    
C7    C9    S    
C28   C29   A    
C6    H2    S    
C18   C22   A    
C31   C32   A    
C16   H8    S    
C23   O6    A    
S1    O9    D    
C45   C46   S    
C37   H17   S    
C6    C7    A    
C28   H14   S    
C1    O1    A    
C39   S1    S    
C19   C20   A    
C19   C24   A    
C5    C10   A    
C5    C6    A    
C49   H34   S    
C33   C35   A    
C5    H18   S    
C50   H38   S    
C49   C50   S    
C2    C40   A    
C20   C21   A    
C14   H7    S    
O5    Zn1   S    
C50   H36   S    
C41   H1    S    
C14   C15   A    
C33   C38   A    
C46   H27   S    
C12   O4    A    
O6    Zn2   S    
C34   O7    A    
