data_mof_unit_33312.cif
_audit_creation_date              2012-10-26T20:48:45-0400
_audit_creation_method            fapswitch 2.2
_symmetry_space_group_name_H-M    P1
_symmetry_Int_Tables_number       1
_space_group_crystal_system       triclinic
_cell_length_a                    15.2544
_cell_length_b                    13.925231
_cell_length_c                    9.109503
_cell_angle_alpha                 89.999927
_cell_angle_beta                  92.199897
_cell_angle_gamma                 90.000072
_cell_volume                      1933.62397528

loop_
_atom_site_label
_atom_site_type_symbol
_atom_type_description
_atom_site_fract_x
_atom_site_fract_y
_atom_site_fract_z
_atom_type_partial_charge
C1    C     C_R   0.330030 0.499870 0.509488 0.561357
C2    C     C_R   0.575220 0.890806 0.545775 0.212028
C3    C     C_R   0.499846 0.500026 0.220601 0.555842
C4    C     C_R   0.500154 0.500025 0.779399 0.555841
C5    C     C_R   0.499999 0.055010 0.500000 -0.037545
C6    C     C_R   0.499999 0.945071 0.500000 -0.063431
C7    C     C_1   0.499972 0.500112 0.065475 -0.062358
C8    C     C_1   0.500027 0.500112 0.934525 -0.062359
C9    C     C_R   0.091100 0.568562 0.458976 -0.119441
C10   C     C_R   0.902454 0.406441 0.448625 -0.110793
C11   C     C_R   0.908900 0.568561 0.541029 -0.119441
C12   C     C_R   0.669970 0.499870 0.490512 0.561357
C13   C     C_R   0.097546 0.406441 0.551378 -0.110793
C14   C     C_R   0.181026 0.578993 0.481332 0.025805
C15   C     C_R   0.810601 0.411915 0.435477 0.041599
C16   C     C_R   0.818974 0.578993 0.518670 0.025805
C17   C     C_R   0.189399 0.411915 0.564524 0.041599
C18   C     C_R   0.233004 0.498053 0.522818 -0.031079
C19   C     C_R   0.766996 0.498053 0.477183 -0.031079
C20   C     C_R   0.048306 0.484649 0.499412 -0.014180
C21   C     C_R   0.951694 0.484649 0.500592 -0.014181
C22   C     C_3   0.584901 0.255321 0.845569 -0.055208
C23   C     C_R   0.547516 0.210188 0.606661 0.383633
C24   C     C_3   0.381751 0.768292 0.195379 -0.080793
C25   C     C_3   0.415097 0.255322 0.154432 -0.055208
C26   C     C_3   0.618248 0.768289 0.804619 -0.080798
C27   C     C_2   0.213616 0.678697 0.476208 0.632586
C28   C     C_2   0.763869 0.329433 0.364864 0.609407
C29   C     C_2   0.786384 0.678696 0.523793 0.632586
C30   C     C_2   0.236131 0.329432 0.635135 0.609404
C31   C     C_3   0.527888 0.026232 0.827515 -0.139058
C32   C     C_3   0.307073 0.956059 0.562600 -0.068083
C33   C     C_3   0.472105 0.026233 0.172485 -0.139056
C34   C     C_R   0.433708 0.790905 0.429778 0.385681
C35   C     C_3   0.692926 0.956061 0.437403 -0.068093
C36   C     C_R   0.452483 0.210188 0.393340 0.383632
C37   C     C_R   0.566292 0.790906 0.570221 0.385676
C38   C     C_R   0.543561 0.108310 0.614244 0.233584
C39   C     C_R   0.424779 0.890805 0.454224 0.212025
C40   C     C_R   0.456436 0.108310 0.385757 0.233579
Cu1   Cu    Cu3+1 0.500000 0.596430 0.500000 1.102860
Cu2   Cu    Cu3+1 0.500000 0.403570 0.500000 1.098173
H1    H     H_    0.053133 0.629497 0.418404 0.153747
H2    H     H_    0.356421 0.842065 0.174747 0.159672
H3    H     H_    0.391327 0.321308 0.097540 0.142918
H4    H     H_    0.379804 0.194797 0.099672 0.156897
H5    H     H_    0.487060 0.250750 0.138631 0.069226
H6    H     H_    0.658201 0.718593 0.874916 0.157671
H7    H     H_    0.549047 0.762348 0.838709 0.081743
H8    H     H_    0.643565 0.842066 0.825253 0.159663
H9    H     H_    0.206759 0.807330 0.374061 0.371192
H10   H     H_    0.670548 0.283817 0.217841 0.317391
H11   H     H_    0.793242 0.807330 0.625938 0.371192
H12   H     H_    0.935913 0.342669 0.411705 0.152679
H13   H     H_    0.329452 0.283815 0.782158 0.317389
H14   H     H_    0.488488 0.965911 0.780841 0.097014
H15   H     H_    0.483020 0.083292 0.865323 0.069914
H16   H     H_    0.565773 0.997335 0.923816 0.123424
H17   H     H_    0.341820 0.017651 0.616084 0.114608
H18   H     H_    0.306992 0.893482 0.638713 0.134860
H19   H     H_    0.237845 0.977999 0.541437 0.175105
H20   H     H_    0.511504 0.965911 0.219157 0.097016
H21   H     H_    0.516974 0.083292 0.134677 0.069914
H22   H     H_    0.434218 0.997337 0.076185 0.123424
H23   H     H_    0.946867 0.629496 0.581602 0.153748
H24   H     H_    0.658171 0.017639 0.383901 0.114588
H25   H     H_    0.693024 0.893479 0.361305 0.134879
H26   H     H_    0.762148 0.978020 0.458571 0.175112
H27   H     H_    0.064087 0.342668 0.588296 0.152678
H28   H     H_    0.608672 0.321307 0.902461 0.142917
H29   H     H_    0.620193 0.194795 0.900330 0.156898
H30   H     H_    0.512938 0.250750 0.861369 0.069226
H31   H     H_    0.341807 0.718588 0.125080 0.157667
H32   H     H_    0.450954 0.762366 0.161291 0.081727
N1    N     N_R   0.500000 0.258690 0.500000 -0.270792
N2    N     N_R   0.500000 0.741310 0.500000 -0.267620
O1    O     O_R   0.371460 0.581430 0.500010 -0.437273
O2    O     O_3   0.372756 0.741607 0.343440 -0.486944
O3    O     O_3   0.393705 0.261639 0.303719 -0.491047
O4    O     O_3   0.627245 0.741608 0.656557 -0.486945
O5    O     O_2   0.258063 0.710919 0.579354 -0.500933
O6    O     O_R   0.185496 0.738845 0.360740 -0.681514
O7    O     O_2   0.785665 0.247257 0.396611 -0.509395
O8    O     O_R   0.697274 0.345629 0.257824 -0.691682
O9    O     O_2   0.741938 0.710918 0.420647 -0.500935
O10   O     O_R   0.814504 0.738845 0.639260 -0.681514
O11   O     O_2   0.214335 0.247255 0.603386 -0.509393
O12   O     O_R   0.628540 0.418570 0.499990 -0.446186
O13   O     O_R   0.302726 0.345627 0.742177 -0.691682
O14   O     O_3   0.588453 0.062392 0.728447 -0.496449
O15   O     O_3   0.343584 0.932675 0.427177 -0.508421
O16   O     O_3   0.411542 0.062393 0.271556 -0.496448
O17   O     O_3   0.656413 0.932678 0.572825 -0.508417
O18   O     O_R   0.628540 0.581430 0.499990 -0.437272
O19   O     O_R   0.371460 0.418570 0.500010 -0.446186
O20   O     O_R   0.500000 0.581420 0.288390 -0.491818
O21   O     O_R   0.500000 0.418580 0.711610 -0.477724
O22   O     O_R   0.500000 0.581420 0.711610 -0.491822
O23   O     O_R   0.500000 0.418580 0.288390 -0.477724
O24   O     O_3   0.606294 0.261638 0.696283 -0.491048

loop_
_geom_bond_atom_site_label_1
_geom_bond_atom_site_label_2
_ccdc_geom_bond_type
Cu2   O21   S    
C4    O22   A    
C28   O8    S    
C1    O1    A    
Cu1   Cu2   S    
C14   C18   A    
C4    C8    S    
C7    C8    T    
C15   C19   A    
Cu2   N1    S    
C31   H16   S    
C32   H19   S    
C3    C7    S    
C10   C15   A    
C26   H8    S    
Cu1   O1    S    
C5    C6    S    
C24   H31   S    
Cu1   O20   S    
C22   H30   S    
H10   O8    S    
C33   H20   S    
H11   O10   S    
C14   C27   S    
C25   H5    S    
C29   O9    D    
C2    O17   S    
C33   H21   S    
C23   O24   S    
C33   H22   S    
C4    O21   A    
C28   O7    D    
C17   C30   S    
C12   O18   A    
C2    C6    A    
C30   O13   S    
C39   O15   S    
C35   O17   S    
C10   C21   A    
C37   O4    S    
C9    H1    S    
C22   O24   S    
C12   O12   A    
Cu2   O19   S    
C36   C40   A    
C26   H7    S    
C27   O5    D    
C35   H24   S    
C16   C29   S    
C11   C21   A    
C26   O4    S    
C34   C39   A    
C9    C14   A    
C36   N1    A    
C11   C16   A    
C9    C20   A    
Cu1   O18   S    
C35   H25   S    
C1    O19   A    
C31   O14   S    
C17   C18   A    
C1    C18   S    
C40   O16   S    
H9    O6    S    
C29   O10   S    
C3    O20   A    
C24   O2    S    
C37   N2    A    
C24   H2    S    
C33   O16   S    
Cu2   O12   S    
C32   H18   S    
C25   H3    S    
C22   H29   S    
C13   C20   A    
C25   O3    S    
C27   O6    S    
C23   N1    A    
C36   O3    S    
C26   H6    S    
C23   C38   A    
C38   O14   S    
C13   C17   A    
C31   H15   S    
H13   O13   S    
Cu2   O23   S    
C34   O2    S    
Cu1   N2    S    
C2    C37   A    
C24   H32   S    
C15   C28   S    
C13   H27   S    
C35   H26   S    
C16   C19   A    
C12   C19   S    
C31   H14   S    
C10   H12   S    
C32   O15   S    
C3    O23   A    
C20   C21   S    
C5    C40   A    
C6    C39   A    
C32   H17   S    
C30   O11   D    
C5    C38   A    
C25   H4    S    
C22   H28   S    
Cu1   O22   S    
C11   H23   S    
C34   N2    A    
