data_mof_unit_31774.cif
_audit_creation_date              2012-12-11T18:13:36-0500
_audit_creation_method            fapswitch 2.2
_symmetry_space_group_name_H-M    P1
_symmetry_Int_Tables_number       1
_space_group_crystal_system       triclinic
_cell_length_a                    8.181529
_cell_length_b                    12.755156
_cell_length_c                    18.700766
_cell_angle_alpha                 99.94121
_cell_angle_beta                  91.000911
_cell_angle_gamma                 98.678957
_cell_volume                      1898.33829741

loop_
_atom_site_label
_atom_site_type_symbol
_atom_type_description
_atom_site_fract_x
_atom_site_fract_y
_atom_site_fract_z
_atom_type_partial_charge
Ba1   Ba    Ba6+2 0.852780 0.548340 0.465070 1.636636
Ba2   Ba    Ba6+2 0.337060 0.451750 0.534940 1.633220
C1    C     C_3   0.578289 0.899377 0.257286 -0.392021
C2    C     C_3   0.612647 0.810637 0.297578 0.354259
C3    C     C_3   0.460375 0.270574 0.314882 0.307527
C4    C     C_3   0.432652 0.231305 0.233463 -0.401907
C5    C     C_3   0.059171 0.239090 0.738008 0.361077
C6    C     C_3   0.092855 0.221945 0.815484 -0.242436
C7    C     C_3   0.553909 0.181032 0.703568 0.338363
C8    C     C_3   0.601186 0.103525 0.750739 -0.399884
C9    C     C_R   0.991710 0.448887 0.048057 0.006802
C10   C     C_R   0.890063 0.395744 0.095144 0.031784
C11   C     C_R   0.727033 0.349389 0.071883 -0.083314
C12   C     C_3   0.111300 0.764769 0.266186 0.361107
C13   C     C_R   0.665780 0.354975 0.002578 -0.087402
C14   C     C_R   0.767151 0.405488 0.954623 0.032541
C15   C     C_R   0.930668 0.452914 0.977256 0.014414
C16   C     C_R   0.707810 0.407433 0.884160 -0.112086
C17   C     C_R   0.810891 0.453144 0.834126 -0.044217
C18   C     C_R   0.974149 0.503996 0.857180 -0.004107
C19   C     C_R   0.032986 0.503839 0.929154 -0.007269
C20   C     C_R   0.757080 0.447295 0.761162 -0.008294
C21   C     C_R   0.866109 0.488021 0.712069 -0.296513
C22   C     C_R   0.023787 0.544588 0.734233 0.045054
C23   C     C_3   0.090467 0.793806 0.191396 -0.366926
C24   C     C_R   0.078902 0.554276 0.808468 -0.043877
C25   C     C_R   0.154603 0.496619 0.071333 -0.007424
C26   C     C_R   0.213953 0.495599 0.143089 -0.009163
C27   C     C_R   0.108770 0.446419 0.192034 -0.042580
C28   C     C_R   0.951112 0.391085 0.165121 -0.036589
C29   C     C_R   0.236305 0.609870 0.835460 -0.038360
C30   C     C_R   0.297470 0.604901 0.905392 0.033421
C31   C     C_R   0.195753 0.551800 0.952491 0.005828
C32   C     C_R   0.257052 0.547274 0.023177 0.014276
C33   C     C_R   0.460833 0.650600 0.928536 -0.081206
C34   C     C_3   0.232393 0.786082 0.619429 0.285141
C35   C     C_R   0.522655 0.643856 0.997534 -0.089270
C36   C     C_R   0.421280 0.593323 0.045487 0.030352
C37   C     C_R   0.378520 0.543825 0.165614 -0.043275
C38   C     C_R   0.481623 0.589414 0.115485 -0.105776
C39   C     C_R   0.433771 0.546756 0.238102 0.003508
C40   C     C_R   0.325403 0.506557 0.287358 -0.302125
C41   C     C_R   0.164729 0.455681 0.266143 0.061469
C42   C     C_R   0.763846 0.183264 0.532190 -0.272081
C43   C     C_R   0.432717 0.807854 0.469451 -0.289442
C44   C     C_R   0.402386 0.984507 0.447427 -0.107419
C45   C     C_3   0.249609 0.908096 0.636116 -0.347154
C46   C     C_R   0.341270 0.875580 0.441135 -0.015675
C47   C     C_R   0.579177 0.849298 0.510655 0.068083
C48   C     C_R   0.640961 0.961949 0.520816 -0.050080
C49   C     C_R   0.552240 0.029507 0.486738 -0.062700
C50   C     C_R   0.616300 0.140195 0.492414 0.037624
C51   C     C_R   0.853604 0.118427 0.564902 -0.027233
C52   C     C_R   0.790387 0.008909 0.561349 -0.105173
C53   C     C_3   0.968166 0.204138 0.367204 0.237219
C54   C     C_3   0.985038 0.086906 0.340100 -0.100156
C55   C     C_3   0.728611 0.706756 0.682365 0.309627
C56   C     C_3   0.753646 0.744781 0.764056 -0.392779
H1    H     H_    0.690772 0.844903 0.347436 0.089827
H2    H     H_    0.346268 0.940112 0.679790 0.110515
H3    H     H_    0.285283 0.942562 0.587259 0.084815
H4    H     H_    0.130255 0.932739 0.654121 0.144349
H5    H     H_    0.839542 0.211652 0.381841 0.007669
H6    H     H_    0.053791 0.236294 0.415322 0.062210
H7    H     H_    0.934220 0.060634 0.283251 0.126509
H8    H     H_    0.118030 0.077788 0.340471 0.115123
H9    H     H_    0.843539 0.680675 0.660675 0.009606
H10   H     H_    0.625443 0.638055 0.671959 0.068633
H11   H     H_    0.519511 0.959928 0.293656 0.095755
H12   H     H_    0.865423 0.807188 0.776111 0.151800
H13   H     H_    0.769932 0.676599 0.791624 0.051480
H14   H     H_    0.644064 0.779356 0.785798 0.124712
H15   H     H_    0.492426 0.772658 0.314864 -0.070482
H16   H     H_    0.493297 0.864349 0.209348 0.110520
H17   H     H_    0.343443 0.293976 0.336871 0.018795
H18   H     H_    0.559457 0.341949 0.324009 0.058539
H19   H     H_    0.330520 0.161788 0.222625 0.125954
H20   H     H_    0.399328 0.296939 0.206803 0.056604
H21   H     H_    0.547400 0.205985 0.210102 0.117781
H22   H     H_    0.695144 0.939474 0.238322 0.129034
H23   H     H_    0.113729 0.726030 0.148884 0.073916
H24   H     H_    0.123502 0.320503 0.733011 0.073659
H25   H     H_    0.924237 0.236188 0.729070 -0.095984
H26   H     H_    0.228024 0.232909 0.827884 0.123065
H27   H     H_    0.039631 0.282145 0.854480 0.028960
H28   H     H_    0.667430 0.214261 0.678266 -0.051758
H29   H     H_    0.465166 0.136022 0.659240 0.083012
H30   H     H_    0.690388 0.148013 0.794987 0.119363
H31   H     H_    0.658835 0.039206 0.717447 0.098724
H32   H     H_    0.022547 0.691295 0.269375 0.104939
H33   H     H_    0.489902 0.066473 0.775740 0.132297
H34   H     H_    0.646180 0.309469 0.107550 0.060874
H35   H     H_    0.539284 0.318695 0.986195 0.070999
H36   H     H_    0.824409 0.479922 0.655890 0.069429
H37   H     H_    0.581441 0.370960 0.868720 0.105840
H38   H     H_    0.871661 0.346414 0.198622 0.101706
H39   H     H_    0.315636 0.654527 0.801884 0.097239
H40   H     H_    0.541681 0.690605 0.892930 0.065273
H41   H     H_    0.649643 0.679203 0.013671 0.073155
H42   H     H_    0.609151 0.623639 0.130334 0.110321
H43   H     H_    0.238429 0.747017 0.272203 -0.070443
H44   H     H_    0.368857 0.512059 0.343068 0.071080
H45   H     H_    0.328354 0.033127 0.422982 0.104233
H46   H     H_    0.862973 0.961207 0.587483 0.106846
H47   H     H_    0.814498 0.267138 0.533876 0.066543
H48   H     H_    0.383317 0.723038 0.463644 0.068691
H49   H     H_    0.962837 0.810093 0.182579 0.151115
H50   H     H_    0.179787 0.866741 0.186628 0.105464
H51   H     H_    0.352034 0.762421 0.602708 0.000200
H52   H     H_    0.137522 0.756210 0.574587 0.079589
O1    O     O_2   0.873090 0.425890 0.325140 -0.466034
O2    O     O_3   0.691838 0.792580 0.650768 -0.638259
O3    O     O_3   0.081264 0.850796 0.319636 -0.582521
O4    O     O_2   0.316610 0.574140 0.674900 -0.468316
O5    O     O_3   0.067290 0.565720 0.585630 -0.498909
O6    O     O_3   0.530210 0.372990 0.631200 -0.464956
O7    O     O_3   0.187777 0.746225 0.682552 -0.636253
O8    O     O_3   0.611340 0.366290 0.463630 -0.475743
O9    O     O_3   0.108550 0.314140 0.595200 -0.477573
O10   O     O_2   0.192663 0.121791 0.552135 -0.485265
O11   O     O_3   0.118433 0.159575 0.687862 -0.593457
O12   O     O_3   0.122420 0.434370 0.414380 -0.493396
O13   O     O_3   0.578370 0.633800 0.536380 -0.490317
O14   O     O_2   0.341510 0.231850 0.465510 -0.468176
O15   O     O_3   0.507008 0.187369 0.347106 -0.653929
O16   O     O_2   0.416338 0.455557 0.756448 -0.494384
O17   O     O_3   0.476972 0.259492 0.746777 -0.594920
O18   O     O_3   0.659500 0.627100 0.368810 -0.474993
O19   O     O_2   0.777814 0.546712 0.242873 -0.503651
O20   O     O_3   0.005569 0.256130 0.309150 -0.657156
O21   O     O_3   0.696271 0.738361 0.252324 -0.603851
O22   O     O_2   0.848200 0.768190 0.534530 -0.468773
O23   O     O_3   0.081160 0.685950 0.404810 -0.490873
O24   O     O_2   0.009949 0.876405 0.456677 -0.463915
P1    P     P_3+3 0.041040 0.394770 0.336330 0.970761
P2    P     P_3+3 0.672880 0.754030 0.556100 0.973608
P3    P     P_3+3 0.130239 0.822977 0.405258 0.964083
P4    P     P_3+3 0.148670 0.605320 0.663680 0.972912
P5    P     P_3+3 0.066619 0.176842 0.599867 0.953888
P6    P     P_3+3 0.642324 0.610651 0.274607 0.944831
P7    P     P_3+3 0.523782 0.229724 0.441443 0.927334
P8    P     P_3+3 0.545998 0.386240 0.725112 0.953455
N1    N     N_3   0.897140 0.018236 0.385248 -0.457201
H53   H     H_    0.944467 0.046973 0.438109 0.196240
H54   H     H_    0.772701 0.027244 0.383068 0.141825
C57   C     C_1   0.018769 0.113673 0.825670 0.298272
N2    N     N_1   0.960469 0.028299 0.833741 -0.305905

loop_
_geom_bond_atom_site_label_1
_geom_bond_atom_site_label_2
_ccdc_geom_bond_type
C5    H25   S    
C53   C54   S    
O23   P3    S    
C39   C40   A    
C17   C18   A    
Ba1   O18   S    
Ba1   O22   S    
O1    P1    D    
C45   H4    S    
Ba2   O8    S    
C5    C6    S    
C37   C39   A    
Ba2   O13   S    
C8    H30   S    
C7    O17   S    
C46   P3    S    
C6    H27   S    
C52   H46   S    
C26   C27   A    
C1    H11   S    
C55   H9    S    
Ba1   Ba2   S    
C3    C4    S    
C56   H13   S    
C4    H20   S    
C55   O2    S    
C19   C31   A    
C54   H7    S    
C2    H1    S    
C34   C45   S    
C16   C17   A    
C1    H16   S    
Ba1   O12   S    
C12   H32   S    
C39   P6    S    
C28   H38   S    
O21   P6    S    
C45   H2    S    
C54   N1    S    
Ba2   O6    S    
C42   C51   A    
O20   P1    S    
C8    H31   S    
O15   P7    S    
C14   C15   A    
C53   H5    S    
C21   C22   A    
C43   C47   A    
C33   H40   S    
C7    C8    S    
C10   C28   A    
O8    P7    S    
O4    P4    D    
C24   C29   A    
C6    H26   S    
C27   C41   A    
C23   H23   S    
C16   H37   S    
O24   P3    D    
Ba1   O23   S    
C1    H22   S    
C40   H44   S    
C48   C49   A    
C2    O21   S    
C55   C56   S    
Ba2   O12   S    
C25   C32   A    
C44   C46   A    
C13   C14   A    
O2    P2    S    
C49   C50   A    
Ba2   P4    S    
C30   C33   A    
C45   H3    S    
C17   C20   A    
C37   C38   A    
C56   H12   S    
C12   H43   S    
C26   C37   A    
C22   P4    S    
C42   H47   S    
C44   C49   A    
O16   P8    D    
C15   C19   A    
O17   P8    S    
C3    H17   S    
Ba1   O13   S    
C13   H35   S    
C35   C36   A    
C7    H28   S    
Ba2   O5    S    
C5    O11   S    
C29   C30   A    
O5    P4    S    
C9    C25   A    
O22   P2    D    
C53   O20   S    
C53   H6    S    
C20   P8    S    
C31   C32   A    
O10   P5    D    
C48   C52   A    
C10   C11   A    
C41   P1    S    
C34   O7    S    
C2    H15   S    
O6    P8    S    
C47   P2    S    
C8    H33   S    
C11   C13   A    
C11   H34   S    
C34   H52   S    
O3    P3    S    
O14   P7    D    
C40   C41   A    
C55   H10   S    
C1    C2    S    
Ba1   P2    S    
C35   H41   S    
C43   H48   S    
C23   H49   S    
C57   N2    T    
C43   C46   A    
N1    H54   S    
C9    C15   A    
C33   C35   A    
C32   C36   A    
C6    C57   S    
C22   C24   A    
C4    H19   S    
O7    P4    S    
C42   C50   A    
C38   H42   S    
C9    C10   A    
C51   C52   A    
Ba2   O14   S    
C12   O3    S    
C44   H45   S    
C50   P7    S    
C21   H36   S    
O13   P2    S    
O9    P5    S    
C30   C31   A    
O11   P5    S    
C3    H18   S    
O18   P6    S    
Ba1   O1    S    
C36   C38   A    
Ba2   O4    S    
C56   H14   S    
C4    H21   S    
O19   P6    D    
C18   C24   A    
C54   H8    S    
Ba2   O9    S    
Ba1   O8    S    
C29   H39   S    
C12   C23   S    
O12   P1    S    
C51   P5    S    
C27   C28   A    
C5    H24   S    
C18   C19   A    
C14   C16   A    
C47   C48   A    
C3    O15   S    
C34   H51   S    
C20   C21   A    
Ba1   O5    S    
Ba1   P1    S    
C7    H29   S    
N1    H53   S    
C23   H50   S    
C25   C26   A    
