data_mof_unit_30476.cif
_audit_creation_date              2013-03-05T16:48:29-0500
_audit_creation_method            fapswitch 2.2
_symmetry_space_group_name_H-M    P1
_symmetry_Int_Tables_number       1
_space_group_crystal_system       triclinic
_cell_length_a                    10.809795
_cell_length_b                    14.645379
_cell_length_c                    14.570964
_cell_angle_alpha                 64.926518
_cell_angle_beta                  103.738049
_cell_angle_gamma                 102.431746
_cell_volume                      2012.32654761

loop_
_atom_site_label
_atom_site_type_symbol
_atom_site_description
_atom_site_fract_x
_atom_site_fract_y
_atom_site_fract_z
_atom_type_partial_charge
O1    O     O_R   0.455540 0.022090 0.338120 -0.591053
O2    O     O_R   0.544460 0.977910 0.661880 -0.613839
O3    O     O_R   0.512510 0.160150 0.379180 -0.561116
O4    O     O_R   0.487490 0.839850 0.620820 -0.567391
C1    C     C_R   0.477714 0.120125 0.310629 0.852433
C2    C     C_R   0.522655 0.880089 0.689075 0.875858
O5    O     O_R   0.291160 0.930970 0.479480 -0.586784
O6    O     O_R   0.708840 0.069030 0.520520 -0.545313
O7    O     O_R   0.348130 0.069020 0.520540 -0.586288
O8    O     O_R   0.651870 0.930980 0.479460 -0.595853
C3    C     C_R   0.262940 0.000397 0.500955 0.889725
C4    C     C_R   0.737107 0.999463 0.499444 0.884676
Cu1   Cu    Cu3+1 0.466270 0.918260 0.475690 0.999509
Cu2   Cu    Cu3+1 0.533730 0.081740 0.524310 1.002187
H1    H     H_    0.394339 0.941995 0.953054 0.149390
H2    H     H_    0.608461 0.088106 0.041894 0.155095
C5    C     C_R   0.264771 0.865938 0.862497 -0.101480
C6    C     C_R   0.732353 0.153827 0.143846 -0.106711
H3    H     H_    0.268314 0.791101 0.923718 0.172080
H4    H     H_    0.724708 0.231396 0.089451 0.180036
C7    C     C_R   0.188318 0.877547 0.767223 -0.068545
C8    C     C_R   0.808715 0.134482 0.240501 -0.119612
H5    H     H_    0.130890 0.811681 0.755925 0.198784
H6    H     H_    0.861432 0.197528 0.259776 0.167884
C9    C     C_R   0.182677 0.974516 0.687874 0.110569
C10   C     C_R   0.819241 0.033964 0.311029 0.130162
C11   C     C_R   0.255428 0.059572 0.704540 -0.041807
C12   C     C_R   0.750964 0.953107 0.284572 -0.030385
H7    H     H_    0.250473 0.135071 0.644588 0.170553
H8    H     H_    0.758892 0.875190 0.338041 0.144078
C13   C     C_R   0.331809 0.047681 0.799899 -0.152994
C14   C     C_R   0.675376 0.972755 0.187595 -0.138191
H9    H     H_    0.387163 0.113453 0.812715 0.139409
H10   H     H_    0.623749 0.910292 0.166970 0.132779
C15   C     C_R   0.335610 0.951035 0.879097 -0.117938
C16   C     C_R   0.666954 0.073038 0.116972 -0.101711
C17   C     C_R   0.958614 0.982715 0.592115 0.330127
C18   C     C_R   0.041456 0.017336 0.408711 0.318873
C19   C     C_R   0.870503 0.996680 0.500401 -0.222568
C20   C     C_R   0.129662 0.003503 0.500259 -0.211208
C21   C     C_R   0.910874 0.013466 0.408812 -0.153019
C22   C     C_R   0.089653 0.988470 0.591522 -0.150465
C23   C     C_R   0.449390 0.188699 0.200268 -0.171599
C24   C     C_R   0.530029 0.812906 0.799530 -0.143592
C25   C     C_R   0.335796 0.224767 0.025536 -0.124554
C26   C     C_R   0.582762 0.780338 0.981396 -0.166482
C27   C     C_R   0.381771 0.154371 0.121875 0.446328
C28   C     C_R   0.583281 0.847926 0.879482 0.431373
C29   C     C_R   0.476902 0.293777 0.175300 -0.197615
C30   C     C_R   0.480629 0.709947 0.825482 -0.195786
C31   C     C_R   0.422741 0.364681 0.080878 0.118029
C32   C     C_R   0.469755 0.643277 0.927414 0.087021
C33   C     C_R   0.356086 0.328844 0.004286 -0.007503
C34   C     C_R   0.526103 0.679298 0.005842 -0.005282
C35   C     C_R   0.439009 0.470777 0.058627 -0.055165
C36   C     C_R   0.413496 0.539753 0.954132 -0.070348
C37   C     C_R   0.333847 0.501603 0.881415 0.340638
C38   C     C_R   0.479405 0.511294 0.135946 0.355554
C39   C     C_R   0.308579 0.396905 0.907222 -0.202416
C40   C     C_R   0.524809 0.614474 0.108328 -0.208171
H11   H     H_    0.249555 0.368296 0.851205 0.193750
H12   H     H_    0.558346 0.644616 0.167551 0.181392
H13   H     H_    0.454079 0.681858 0.765135 0.222592
H14   H     H_    0.541524 0.319403 0.230998 0.197726
H15   H     H_    0.284207 0.197509 0.966535 0.171154
H16   H     H_    0.625864 0.807647 0.041851 0.164348
N1    N     N_R   0.584450 0.204570 0.560790 -0.276782
N2    N     N_R   0.415550 0.795430 0.439210 -0.271167
C41   C     C_R   0.728900 0.295435 0.658043 0.397582
C42   C     C_R   0.279946 0.705967 0.336897 0.385438
C43   C     C_R   0.697191 0.214206 0.625424 0.434598
C44   C     C_R   0.322037 0.794805 0.356599 0.439071
C45   C     C_R   0.503857 0.276985 0.524211 0.077465
C46   C     C_R   0.473770 0.710045 0.498960 0.046385
C47   C     C_R   0.525934 0.357422 0.560017 -0.076877
C48   C     C_R   0.427822 0.615084 0.487951 -0.063002
C49   C     C_R   0.638067 0.362347 0.632410 -0.152094
C50   C     C_R   0.323310 0.613550 0.408586 -0.138904
C51   C     C_R   0.445557 0.436767 0.521467 -0.005536
C52   C     C_R   0.486328 0.523460 0.548262 -0.026619
C53   C     C_R   0.578046 0.512200 0.638109 0.306023
C54   C     C_R   0.322569 0.430482 0.462039 0.367225
C55   C     C_R   0.657065 0.434176 0.677774 0.281982
C56   C     C_R   0.264030 0.519549 0.402287 0.313786
H17   H     H_    0.557473 0.718651 0.553210 0.222064
H18   H     H_    0.424915 0.271677 0.465145 0.251007
N3    N     N_R   0.263406 0.565920 0.787296 0.128428
O9    O     O_R   0.206109 0.635597 0.787041 -0.349124
O10   O     O_R   0.241481 0.546131 0.705369 -0.324630
N4    N     N_R   0.459757 0.452762 0.240324 0.095623
O11   O     O_R   0.353610 0.391716 0.259686 -0.303209
O12   O     O_R   0.539430 0.470433 0.315089 -0.395017
N5    N     N_R   0.753643 0.426680 0.766552 0.165839
O13   O     O_R   0.841662 0.503294 0.764963 -0.263235
O14   O     O_R   0.746819 0.346653 0.851775 -0.337632
N6    N     N_R   0.141303 0.512803 0.338777 0.159248
O15   O     O_R   0.041783 0.536174 0.355818 -0.287214
O16   O     O_R   0.127060 0.477041 0.268454 -0.268810
O17   O     O_3   0.265898 0.879796 0.289619 -0.677341
H19   H     H_    0.263236 0.920844 0.326951 0.411555
O18   O     O_3   0.783079 0.145537 0.660000 -0.677578
H20   H     H_    0.734015 0.077491 0.685429 0.401759
O19   O     O_3   0.848412 0.311396 0.714042 -0.626869
H21   H     H_    0.905658 0.264265 0.719624 0.381792
O20   O     O_3   0.197245 0.707876 0.247569 -0.643017
H22   H     H_    0.185842 0.778534 0.199170 0.386081
O21   O     O_3   0.578984 0.570869 0.691864 -0.733347
H23   H     H_    0.619730 0.538200 0.764284 0.361642
O22   O     O_3   0.256251 0.335541 0.472217 -0.739209
H24   H     H_    0.163208 0.339421 0.448220 0.368681
N7    N     N_R   0.914039 0.958517 0.686476 0.129983
O23   O     O_R   0.822718 0.883940 0.716090 -0.363477
O24   O     O_R   0.969638 0.006164 0.746278 -0.290125
N8    N     N_R   0.085695 0.040917 0.314506 0.116856
O25   O     O_R   0.174051 0.117448 0.282765 -0.344831
O26   O     O_R   0.033188 0.989847 0.257450 -0.299540
O27   O     O_3   0.642523 0.945461 0.861772 -0.685232
H25   H     H_    0.577075 0.991323 0.819655 0.321044
O28   O     O_3   0.357142 0.053867 0.135090 -0.670091
H26   H     H_    0.433555 0.020982 0.177613 0.338028

loop_
_geom_bond_atom_site_label_1
_geom_bond_atom_site_label_2
_geom_bond_distance
_ccdc_geom_bond_type
C35   C36   1.425371 A    
C53   O21   1.383750 S    
O18   H20   0.982099 S    
C42   C50   1.408932 A    
C41   C49   1.412013 A    
N7    O23   1.300871 A    
N3    O9    1.301051 A    
N8    O25   1.300740 A    
C33   C39   1.392168 A    
C19   C21   1.408629 A    
C34   C40   1.390731 A    
O5    C3    1.293592 A    
N5    O13   1.301389 A    
C46   C48   1.435425 A    
O1    C1    1.299732 A    
C14   C16   1.398701 A    
C48   C50   1.415882 A    
C26   H16   1.084634 S    
C18   N8    1.439110 S    
C37   C39   1.395323 A    
C11   H7    1.083134 S    
C49   C55   1.420405 A    
Cu2   N1    2.016563 S    
C38   C40   1.394766 A    
C55   N5    1.436266 S    
C17   C22   1.402660 A    
C36   C37   1.427399 A    
C40   H12   1.084590 S    
C56   N6    1.436691 S    
O4    Cu1   1.915206 S    
C41   C43   1.408866 A    
C32   C36   1.426631 A    
C29   C31   1.407925 A    
N6    O16   1.301218 A    
C30   C32   1.406249 A    
O21   H23   0.989185 S    
C13   H9    1.082584 S    
N1    C45   1.366012 A    
C20   C22   1.409929 A    
C23   C27   1.422591 A    
N1    C43   1.373160 A    
N2    C44   1.377780 A    
C41   O19   1.385782 S    
C43   O18   1.370251 S    
C25   C33   1.398433 A    
N5    O14   1.301486 A    
C29   H14   1.078648 S    
C2    C24   1.481690 S    
Cu1   Cu2   2.684493 S    
C30   H13   1.077351 S    
C45   C47   1.434434 A    
O2    C2    1.297226 A    
H1    C15   1.082663 S    
C53   C55   1.412595 A    
C32   C34   1.413233 A    
C25   C27   1.393934 A    
C26   C28   1.393109 A    
C39   H11   1.084559 S    
C11   C13   1.398077 A    
C54   O22   1.384129 S    
C12   C14   1.398345 A    
C18   C21   1.400786 A    
O4    C2    1.304482 A    
C23   C29   1.403157 A    
C31   C35   1.425774 A    
C42   O20   1.386142 S    
C5    C7    1.398079 A    
C37   N3    1.437281 S    
C31   C33   1.411324 A    
C14   H10   1.082666 S    
O7    Cu2   1.964271 S    
O7    C3    1.288139 A    
N4    O12   1.301113 A    
O17   H19   0.974769 S    
O6    C4    1.292093 A    
N6    O15   1.301386 A    
C26   C34   1.399419 A    
N7    O24   1.301327 A    
C47   C49   1.416588 A    
O3    Cu2   1.915206 S    
O8    C4    1.289147 A    
C38   N4    1.436331 S    
C54   C56   1.411072 A    
C7    H5    1.082240 S    
C25   H15   1.084787 S    
C8    H6    1.083234 S    
O1    Cu1   1.930263 S    
C24   C30   1.402774 A    
C7    C9    1.403370 A    
O6    Cu2   1.957257 S    
C6    C8    1.398376 A    
C48   C52   1.440417 A    
C52   C53   1.412437 A    
O3    C1    1.306015 A    
O8    Cu1   1.964271 S    
C9    C22   1.482823 S    
C51   C54   1.412051 A    
N8    O26   1.301091 A    
O28   H26   0.986630 S    
C28   O27   1.374530 S    
C9    C11   1.404642 A    
O20   H22   0.989173 S    
C10   C12   1.403964 A    
C4    C19   1.447904 S    
C12   H8    1.083216 S    
C17   C19   1.408025 A    
O27   H25   0.988582 S    
H2    C16   1.082666 S    
C18   C20   1.406985 A    
C6    C16   1.397892 A    
N4    O11   1.301458 A    
C47   C51   1.438901 A    
C13   C15   1.398183 A    
C27   O28   1.374737 S    
C5    H3    1.082429 S    
C6    H4    1.082472 S    
C46   H17   1.074728 S    
C1    C23   1.489285 S    
C3    C20   1.448678 S    
O2    Cu2   1.930264 S    
C45   H18   1.074373 S    
C17   N7    1.440971 S    
C51   C52   1.433939 A    
C50   C56   1.419031 A    
O5    Cu1   1.957256 S    
C8    C10   1.403757 A    
C35   C38   1.425987 A    
O19   H21   0.989152 S    
N3    O10   1.301734 A    
C42   C44   1.407786 A    
C5    C15   1.398119 A    
O22   H24   0.988845 S    
N2    C46   1.368806 A    
C44   O17   1.372736 S    
C24   C28   1.418577 A    
C10   C21   1.482054 S    
Cu1   N2    2.016563 S    
