data_mof_unit_34565.cif
_audit_creation_date              2012-10-26T18:52:45-0400
_audit_creation_method            fapswitch 2.2
_symmetry_space_group_name_H-M    P1
_symmetry_Int_Tables_number       1
_space_group_crystal_system       triclinic
_cell_length_a                    10.855568
_cell_length_b                    14.713535
_cell_length_c                    14.997795
_cell_angle_alpha                 64.267463
_cell_angle_beta                  105.171972
_cell_angle_gamma                 102.542038
_cell_volume                      2067.91027555

loop_
_atom_site_label
_atom_site_type_symbol
_atom_type_description
_atom_site_fract_x
_atom_site_fract_y
_atom_site_fract_z
_atom_type_partial_charge
C1    C     C_R   0.483939 0.119877 0.312470 0.551628
C2    C     C_R   0.513914 0.360895 0.077660 -0.044884
C3    C     C_R   0.481634 0.322976 0.000985 0.057794
C4    C     C_R   0.259716 0.002345 0.496826 0.564332
C5    C     C_R   0.541811 0.467355 0.052128 -0.036661
C6    C     C_R   0.517989 0.535813 0.950081 -0.016228
C7    C     C_R   0.458588 0.496298 0.875776 0.234273
C8    C     C_R   0.453303 0.392547 0.899083 0.165438
C9    C     C_R   0.594753 0.507679 0.125776 -0.023005
C10   C     C_R   0.600413 0.610873 0.103050 0.313880
C11   C     C_R   0.565043 0.678725 0.001605 0.019290
C12   C     C_3   0.876974 0.001340 0.496772 0.114859
C13   C     C_R   0.547276 0.642040 0.925953 -0.090509
C14   C     C_R   0.545533 0.780577 0.972900 0.216744
C15   C     C_R   0.528718 0.847735 0.868974 0.166422
C16   C     C_R   0.523165 0.880089 0.687861 0.613822
C17   C     C_R   0.562969 0.713242 0.828797 0.185009
C18   C     C_R   0.724595 0.282958 0.668625 0.202947
C19   C     C_R   0.684975 0.199961 0.639532 0.228966
C20   C     C_R   0.519486 0.287215 0.509762 0.350015
C21   C     C_R   0.566793 0.378770 0.526172 -0.085793
C22   C     C_R   0.666533 0.372751 0.610253 -0.008280
C23   C     C_3   0.941735 0.923446 0.604531 0.211705
C24   C     C_R   0.519157 0.475321 0.463236 -0.076737
C25   C     C_R   0.548406 0.554388 0.499065 -0.038480
C26   C     C_R   0.658438 0.548958 0.576604 0.217489
C27   C     C_R   0.712038 0.458442 0.632807 -0.020141
C28   C     C_R   0.739081 0.001371 0.497316 0.635666
C29   C     C_R   0.456757 0.500941 0.361128 0.295596
C30   C     C_R   0.396039 0.588665 0.307817 0.359637
C31   C     C_R   0.395144 0.653798 0.354823 -0.049472
C32   C     C_R   0.473443 0.638789 0.450642 -0.124348
C33   C     C_R   0.317481 0.733205 0.307806 0.256579
C34   C     C_3   0.950125 0.112042 0.474687 0.104779
C35   C     C_R   0.335015 0.806867 0.347475 0.361604
C36   C     C_R   0.470261 0.707438 0.495042 0.349647
C37   C     C_3   0.030696 0.970555 0.411323 0.008032
C38   C     C_3   0.885247 0.972483 0.407487 0.251402
C39   C     C_3   0.090314 0.923877 0.605169 0.273142
C40   C     C_3   0.093842 0.114480 0.472505 0.263151
C41   C     C_3   0.121494 0.002217 0.498088 0.100825
C42   C     C_R   0.487437 0.187113 0.204981 0.029170
C43   C     C_R   0.537590 0.812979 0.796710 0.040700
C44   C     C_R   0.471059 0.216317 0.028863 0.109118
C45   C     C_R   0.474853 0.148104 0.131633 0.246100
C46   C     C_R   0.510124 0.291946 0.177576 -0.173164
Cu1   Cu    Cu3+1 0.465900 0.918260 0.475680 1.113543
Cu2   Cu    Cu3+1 0.534100 0.081740 0.524320 1.075528
H1    H     H_    0.518918 0.319252 0.235201 0.172103
H2    H     H_    0.156776 0.899283 0.756187 0.220035
H3    H     H_    0.941223 0.893822 0.754735 0.215832
H4    H     H_    0.993248 0.013778 0.689748 0.279597
H5    H     H_    0.312615 0.376489 0.785405 0.265841
H6    H     H_    0.464501 0.395825 0.764949 0.250030
H7    H     H_    0.659233 0.627968 0.809607 0.343739
H8    H     H_    0.552935 0.971926 0.890530 0.329491
H9    H     H_    0.698811 0.710478 0.154001 0.360404
H10   H     H_    0.536386 0.138591 0.969973 0.230774
H11   H     H_    0.372331 0.129864 0.951604 0.242657
H12   H     H_    0.057725 0.028751 0.339360 0.146089
H13   H     H_    0.458234 0.025010 0.105854 0.326356
H14   H     H_    0.356272 0.605953 0.787993 0.348990
H15   H     H_    0.469573 0.860563 0.014565 0.337518
H16   H     H_    0.498824 0.609114 0.631518 0.362800
H17   H     H_    0.255625 0.919089 0.331746 0.372518
H18   H     H_    0.370390 0.684241 0.169264 0.382864
H19   H     H_    0.847244 0.211612 0.790088 0.323920
H20   H     H_    0.732411 0.075546 0.766383 0.221929
H21   H     H_    0.845981 0.129333 0.692784 0.248975
H22   H     H_    0.348143 0.322233 0.443922 0.329944
H23   H     H_    0.635863 0.460249 0.201585 0.130561
H24   H     H_    0.817218 0.018237 0.253437 0.250482
H25   H     H_    0.890809 0.114521 0.283240 0.233942
H26   H     H_    0.712940 0.692707 0.527400 0.372074
H27   H     H_    0.549207 0.419553 0.335550 0.320908
H28   H     H_    0.165568 0.787711 0.206923 0.367217
H29   H     H_    0.733169 0.881161 0.372437 0.369004
H30   H     H_    0.110895 0.780127 0.692393 0.323672
H31   H     H_    0.895612 0.784922 0.587295 0.308392
H32   H     H_    0.892712 0.773185 0.701155 0.237086
H33   H     H_    0.157178 0.127444 0.612582 0.273900
H34   H     H_    0.794226 0.457381 0.692539 0.207289
H35   H     H_    0.170475 0.236056 0.512505 0.246931
H36   H     H_    0.203211 0.186548 0.370219 0.379039
H37   H     H_    0.902021 0.163194 0.399328 0.163206
H38   H     H_    0.015083 0.810457 0.470051 0.323469
H39   H     H_    0.009908 0.869356 0.345413 0.244139
H40   H     H_    0.946428 0.226720 0.507126 0.330361
H41   H     H_    0.271829 0.943863 0.689008 0.286763
N1    N     N_R   0.585360 0.204570 0.560800 -0.189835
N2    N     N_3   0.870004 0.820867 0.624838 -0.498655
N3    N     N_3   0.180665 0.158826 0.541330 -0.517566
N4    N     N_R   0.414550 0.795430 0.439160 -0.237014
N5    N     N_3   0.054144 0.874003 0.414484 -0.562813
N6    N     N_3   0.177163 0.951453 0.685974 -0.634195
N7    N     N_3   0.926653 0.953269 0.683437 -0.561356
N8    N     N_3   0.406120 0.357779 0.819064 -0.555687
N9    N     N_3   0.458425 0.178150 0.953141 -0.585894
N10   N     N_3   0.747438 0.109677 0.692141 -0.514714
N11   N     N_3   0.828778 0.047456 0.307898 -0.646975
O1    O     O_R   0.455060 0.022100 0.338110 -0.449948
O2    O     O_3   0.615825 0.690028 0.768135 -0.594331
O3    O     O_3   0.508269 0.947491 0.836975 -0.701359
O4    O     O_3   0.649874 0.642309 0.181000 -0.658559
O5    O     O_3   0.466357 0.043814 0.162927 -0.643141
O6    O     O_3   0.396182 0.555247 0.781326 -0.687499
O7    O     O_3   0.531010 0.809366 0.045504 -0.710111
O8    O     O_3   0.513951 0.683869 0.595666 -0.542952
O9    O     O_3   0.273884 0.892142 0.288109 -0.677767
O10   O     O_3   0.344652 0.611077 0.207242 -0.571773
O11   O     O_3   0.821499 0.280615 0.750608 -0.718151
O12   O     O_R   0.512640 0.160150 0.379180 -0.507404
O13   O     O_3   0.405207 0.276654 0.446666 -0.630854
O14   O     O_3   0.726175 0.632951 0.592321 -0.671076
O15   O     O_3   0.467060 0.449433 0.306080 -0.624517
O16   O     O_3   0.223695 0.736847 0.223785 -0.673436
O17   O     O_3   0.817201 0.875264 0.419795 -0.713790
O18   O     O_3   0.115963 0.827096 0.621570 -0.708340
O19   O     O_3   0.111402 0.179428 0.373238 -0.745441
O20   O     O_R   0.288900 0.930980 0.479450 -0.496480
O21   O     O_R   0.346480 0.069030 0.520520 -0.454650
O22   O     O_R   0.487360 0.839850 0.620820 -0.397023
O23   O     O_R   0.544940 0.977900 0.661890 -0.451225
O24   O     O_R   0.653520 0.930970 0.479480 -0.462879
O25   O     O_R   0.711100 0.069020 0.520550 -0.452142
O26   O     O_3   0.938435 0.151429 0.542205 -0.732417

loop_
_geom_bond_atom_site_label_1
_geom_bond_atom_site_label_2
_ccdc_geom_bond_type
H25   N11   S    
Cu1   O1    S    
C36   O8    S    
H10   N9    S    
C28   O25   A    
C8    N8    S    
Cu2   O23   S    
C17   C43   A    
C7    C8    A    
C39   C41   S    
C2    C46   A    
H35   N3    S    
C12   C23   S    
C26   C27   A    
C29   C30   A    
C30   O10   S    
C34   C40   S    
C32   C36   A    
H30   O18   S    
C16   O23   A    
H29   O17   S    
C1    O12   A    
C20   O13   S    
C11   C14   A    
H2    N6    S    
C4    C41   S    
H26   O14   S    
H39   N5    S    
C23   N7    S    
C18   C19   A    
C42   C46   A    
C16   O22   A    
C24   C29   A    
H40   O26   S    
H38   N5    S    
C33   C35   A    
Cu2   O25   S    
C38   O17   S    
C44   N9    S    
C36   N4    A    
Cu1   Cu2   S    
C37   N5    S    
C31   C33   A    
H6    N8    S    
H13   O5    S    
C9    C10   A    
H31   N2    S    
C35   O9    S    
H3    N7    S    
C25   C32   A    
C29   O15   S    
Cu2   N1    S    
C21   C22   A    
C12   C38   S    
H33   N3    S    
C45   O5    S    
H16   O8    S    
C35   N4    A    
H22   O13   S    
C3    C44   A    
C24   C25   A    
C38   N11   S    
C3    C8    A    
Cu2   O21   S    
C19   N10   S    
Cu1   O22   S    
H5    N8    S    
C25   C26   A    
C20   N1    A    
H18   O10   S    
C34   H37   S    
H41   N6    S    
C17   O2    S    
C26   O14   S    
C5    C9    A    
C37   C38   S    
C31   C32   A    
H7    O2    S    
C30   C31   A    
C34   O26   S    
C39   N6    S    
Cu1   N4    S    
C7    O6    S    
C40   N3    S    
C16   C43   S    
H17   O9    S    
H21   N10   S    
H19   O11   S    
C40   C41   S    
Cu2   O12   S    
C12   C28   S    
C22   C27   A    
C23   N2    S    
C2    C5    A    
H27   O15   S    
C12   C34   S    
C18   O11   S    
C1    O1    A    
C44   C45   A    
H24   N11   S    
H9    O4    S    
C14   O7    S    
C33   O16   S    
C18   C22   A    
C27   H34   S    
C46   H1    S    
C9    H23   S    
H8    O3    S    
C28   O24   A    
C6    C7    A    
H14   O6    S    
C39   O18   S    
C13   C17   A    
H32   N2    S    
C10   O4    S    
C2    C3    A    
H20   N10   S    
C15   C43   A    
C19   N1    A    
C6    C13   A    
C11   C13   A    
Cu1   O24   S    
C5    C6    A    
H36   O19   S    
C23   C39   S    
H28   O16   S    
C4    O21   A    
H4    N7    S    
C37   C41   S    
C37   H12   S    
C10   C11   A    
C1    C42   S    
C40   O19   S    
C20   C21   A    
C21   C24   A    
H11   N9    S    
Cu1   O20   S    
C14   C15   A    
C4    O20   A    
C15   O3    S    
H15   O7    S    
C42   C45   A    
