data_mof_unit_28036.cif
_audit_creation_date              2012-12-11T14:49:40-0500
_audit_creation_method            fapswitch 2.2
_symmetry_space_group_name_H-M    P1
_symmetry_Int_Tables_number       1
_space_group_crystal_system       triclinic
_cell_length_a                    17.093241
_cell_length_b                    7.014683
_cell_length_c                    16.713748
_cell_angle_alpha                 89.97835
_cell_angle_beta                  101.148634
_cell_angle_gamma                 90.065189
_cell_volume                      1966.21993093

loop_
_atom_site_label
_atom_site_type_symbol
_atom_type_description
_atom_site_fract_x
_atom_site_fract_y
_atom_site_fract_z
_atom_type_partial_charge
O1    O     O_R   0.579510 0.506290 0.439030 -0.516899
O2    O     O_R   0.420490 0.006290 0.560970 -0.521163
O3    O     O_R   0.412540 0.170090 0.405290 -0.523687
O4    O     O_R   0.587460 0.670090 0.594710 -0.526681
C1    C     C_R   0.384776 0.345287 0.382260 0.657927
C2    C     C_R   0.615100 0.845517 0.617798 0.729531
O5    O     O_R   0.578390 0.176230 0.429330 -0.544251
O6    O     O_R   0.421610 0.676230 0.570670 -0.562674
O7    O     O_R   0.587530 0.011250 0.585190 -0.547516
O8    O     O_R   0.412470 0.511250 0.414810 -0.553114
C3    C     C_R   0.604332 0.343988 0.413382 0.719465
C4    C     C_R   0.395733 0.843964 0.586717 0.714272
O9    O     O_3   0.502800 0.340940 0.551110 -0.381776
O10   O     O_3   0.497200 0.840940 0.448890 -0.365008
V1    V     V_3+5 0.499480 0.064020 0.490520 1.461962
V2    V     V_3+5 0.500520 0.564020 0.509480 1.431205
C5    C     C_R   0.160619 0.921147 0.854235 -0.186512
C6    C     C_R   0.839397 0.420553 0.145789 -0.186839
C7    C     C_R   0.332983 0.841103 0.637281 -0.036995
C8    C     C_R   0.667084 0.340745 0.362863 -0.074744
C9    C     C_R   0.229375 0.658025 0.684313 -0.047670
C10   C     C_R   0.770449 0.157269 0.315847 -0.055401
C11   C     C_R   0.284041 0.679409 0.633294 -0.134724
C12   C     C_R   0.715737 0.178636 0.366850 -0.138871
C13   C     C_R   0.326144 0.982832 0.694926 -0.178623
C14   C     C_R   0.673995 0.482175 0.305088 -0.223837
C15   C     C_R   0.271029 0.961284 0.747690 0.104636
C16   C     C_R   0.729061 0.460503 0.252345 0.109074
C17   C     C_R   0.219279 0.800982 0.740499 0.011758
C18   C     C_R   0.780696 0.300247 0.259607 0.018203
C19   C     C_R   0.159670 0.787151 0.789713 0.373654
C20   C     C_R   0.840286 0.286507 0.210349 0.370265
C21   C     C_R   0.215966 0.072402 0.862424 -0.163798
C22   C     C_R   0.784104 0.571605 0.137543 -0.164346
C23   C     C_R   0.268405 0.095454 0.808767 -0.151568
C24   C     C_R   0.731720 0.594592 0.191210 -0.153387
H1    H     H_    0.217592 0.177576 0.910197 0.143332
H2    H     H_    0.782496 0.676744 0.089728 0.143867
H3    H     H_    0.197700 0.524195 0.680693 0.211923
H4    H     H_    0.801992 0.023421 0.319458 0.206657
H5    H     H_    0.308220 0.217257 0.816213 0.113160
H6    H     H_    0.691970 0.716313 0.183728 0.115339
H7    H     H_    0.288836 0.565774 0.590985 0.139137
H8    H     H_    0.710550 0.064532 0.409064 0.182593
H9    H     H_    0.365522 0.105418 0.700833 0.102330
H10   H     H_    0.634734 0.604780 0.299129 0.115949
C25   C     C_3   0.783862 0.693987 0.799703 -0.284044
C26   C     C_3   0.216851 0.194531 0.199169 -0.286225
H11   H     H_    0.832657 0.605046 0.784796 0.168909
H12   H     H_    0.168382 0.104085 0.214034 0.172921
H13   H     H_    0.769569 0.637008 0.857384 0.119117
H14   H     H_    0.230788 0.139296 0.141080 0.116994
C27   C     C_3   0.709973 0.670215 0.730768 -0.304208
C28   C     C_3   0.291358 0.170697 0.267432 -0.294431
H15   H     H_    0.659143 0.616063 0.757075 0.120830
H16   H     H_    0.342448 0.121904 0.240309 0.120661
H17   H     H_    0.721770 0.560439 0.686737 0.198395
H18   H     H_    0.280531 0.057264 0.310453 0.199188
H19   H     H_    0.887227 0.905185 0.720522 0.237628
H20   H     H_    0.111106 0.409859 0.278034 0.234064
C29   C     C_3   0.832657 0.978846 0.730957 -0.313641
C30   C     C_3   0.167397 0.477886 0.269094 -0.293172
C31   C     C_3   0.738698 0.023364 0.827175 -0.351092
C32   C     C_3   0.261211 0.525426 0.173282 -0.360952
C33   C     C_3   0.811363 0.907141 0.811828 0.022550
C34   C     C_3   0.188750 0.407460 0.188013 0.025394
H21   H     H_    0.754978 0.176675 0.835871 0.140996
H22   H     H_    0.244460 0.678220 0.163790 0.141441
H23   H     H_    0.720797 0.973083 0.884180 0.137801
H24   H     H_    0.280209 0.474766 0.116915 0.138734
C35   C     C_3   0.687153 0.863221 0.687718 -0.018098
C36   C     C_3   0.312621 0.362196 0.312329 0.001062
C37   C     C_3   0.761631 0.948550 0.657667 0.331850
C38   C     C_3   0.237074 0.439132 0.342923 0.267767
C39   C     C_3   0.667151 0.001820 0.754228 -0.406423
C40   C     C_3   0.331830 0.506510 0.247268 -0.383487
H25   H     H_    0.614111 0.948757 0.777032 0.140783
H26   H     H_    0.386216 0.460155 0.225248 0.139681
H27   H     H_    0.651458 0.145126 0.727300 0.151202
H28   H     H_    0.344895 0.649662 0.275411 0.153875
H29   H     H_    0.847813 0.133286 0.736436 0.134298
H30   H     H_    0.155040 0.633743 0.264831 0.134175
H31   H     H_    0.744474 0.091047 0.630547 0.074039
H32   H     H_    0.253368 0.577421 0.374442 0.075503
O11   O     O_R   0.087500 0.266000 0.085220 -0.541216
O12   O     O_R   0.912500 0.766000 0.914780 -0.541524
O13   O     O_R   0.921600 0.589950 0.070670 -0.530971
O14   O     O_R   0.078400 0.089950 0.929330 -0.530882
C41   C     C_R   0.897896 0.421796 0.089559 0.780932
C42   C     C_R   0.102137 0.921980 0.910474 0.780770
O15   O     O_R   0.087460 0.596020 0.094710 -0.547462
O16   O     O_R   0.912540 0.096020 0.905290 -0.547508
O17   O     O_R   0.079520 0.760970 0.939020 -0.515793
O18   O     O_R   0.920480 0.260970 0.060980 -0.515576
C43   C     C_R   0.117110 0.426175 0.117194 0.697403
C44   C     C_R   0.882984 0.926016 0.882691 0.699897
O19   O     O_3   0.997180 0.425140 0.948910 -0.362193
O20   O     O_3   0.002820 0.925140 0.051090 -0.361725
V3    V     V_3+5 0.000520 0.702080 0.009480 1.516549
V4    V     V_3+5 0.999480 0.202080 0.990520 1.517035
S1    S     S_3+6 0.080993 0.616594 0.763682 0.033332
O21   O     O_2   0.059759 0.590650 0.672748 -0.254754
O22   O     O_2   0.108749 0.429500 0.802842 -0.356245
O23   O     O_3   0.997495 0.683155 0.794112 -0.509590
H33   H     H_    0.964376 0.566356 0.788231 0.361188
S2    S     S_3+6 0.918882 0.116101 0.236332 0.033366
O24   O     O_2   0.940037 0.089813 0.327254 -0.254542
O25   O     O_2   0.891090 0.929090 0.197043 -0.356831
O26   O     O_3   0.002427 0.183198 0.205963 -0.508169
H34   H     H_    0.035941 0.067190 0.212615 0.364434
S3    S     S_3+6 0.794062 0.812070 0.578277 0.021777
O27   O     O_2   0.853196 0.929933 0.543817 -0.266506
O28   O     O_2   0.833691 0.630344 0.612337 -0.305613
O29   O     O_3   0.716902 0.759504 0.502823 -0.531530
H35   H     H_    0.741306 0.700359 0.459762 0.362625
S4    S     S_3+6 0.202472 0.286673 0.416534 0.053345
O30   O     O_2   0.149725 0.401325 0.460539 -0.259673
O31   O     O_2   0.154727 0.123261 0.373992 -0.283064
O32   O     O_3   0.278090 0.196863 0.485377 -0.487907
H36   H     H_    0.305756 0.308868 0.513633 0.306386

loop_
_geom_bond_atom_site_label_1
_geom_bond_atom_site_label_2
_ccdc_geom_bond_type
C18   C20   A    
C31   C33   S    
S1    O21   D    
C15   C17   A    
C24   H6    S    
S3    O27   D    
O1    C3    A    
C36   C40   S    
O2    C4    A    
C2    O7    A    
O29   H35   S    
C25   H11   S    
O5    C3    A    
C8    C14   A    
C32   H22   S    
C25   C33   S    
C40   H26   S    
C1    C36   S    
S2    O24   D    
O16   C44   A    
C11   H7    S    
S4    O30   D    
H20   C30   S    
C41   O18   A    
C33   C44   S    
C8    C12   A    
C32   H24   S    
O17   V3    S    
C25   C27   S    
S2    O25   D    
O5    V1    S    
C30   H30   S    
C38   S4    S    
O6    V2    S    
C20   S2    S    
C5    C21   A    
C7    C13   A    
O23   H33   S    
O19   V3    S    
C37   S3    S    
O13   V3    S    
C27   H15   S    
C2    C35   S    
C28   H16   S    
C3    C8    S    
H19   C29   S    
C30   C34   S    
C31   H23   S    
C36   C38   S    
C35   C37   S    
C27   H17   S    
C7    C11   A    
C25   H13   S    
C15   C23   A    
C9    C17   A    
C21   H1    S    
C32   C34   S    
O4    V2    S    
C26   C28   S    
C31   H21   S    
O12   V3    S    
C6    C22   A    
C9    H3    S    
O18   V4    S    
O6    C4    A    
C10   H4    S    
C32   C40   S    
S3    O28   D    
O1    V2    S    
O2    V1    S    
C39   H25   S    
O14   V4    S    
O12   C44   A    
O4    C2    A    
O14   C42   A    
S1    O23   S    
O20   V4    S    
C9    C11   A    
C12   H8    S    
C10   C12   A    
C6    C20   A    
C27   C35   S    
C13   H9    S    
O19   V4    S    
O3    V1    S    
O16   V4    S    
C42   O17   A    
C28   H18   S    
C10   C18   A    
C22   H2    S    
C6    C41   S    
C5    C42   S    
C40   H28   S    
C38   H32   S    
O3    C1    A    
O32   H36   S    
C13   C15   A    
C14   C16   A    
S4    O32   S    
C29   C37   S    
C16   C18   A    
O7    V1    S    
C1    O8    A    
C17   C19   A    
O11   V4    S    
C29   H29   S    
O26   H34   S    
C35   C39   S    
O11   C43   A    
C31   C39   S    
C19   S1    S    
C5    C19   A    
C4    C7    S    
C26   H12   S    
C21   C23   A    
S4    O31   D    
S3    O29   S    
C22   C24   A    
C23   H5    S    
C14   H10   S    
O15   C43   A    
C29   C33   S    
C26   H14   S    
C28   C36   S    
C16   C24   A    
S1    O22   D    
O20   V3    S    
O9    V2    S    
O13   C41   A    
O10   V1    S    
C30   C38   S    
O8    V2    S    
C26   C34   S    
O15   V3    S    
C39   H27   S    
C37   H31   S    
C34   C43   S    
S2    O26   S    
