data_mof_unit_47021.cif
_audit_creation_date              2012-12-11T15:12:50-0500
_audit_creation_method            fapswitch 2.2
_symmetry_space_group_name_H-M    P1
_symmetry_Int_Tables_number       1
_space_group_crystal_system       triclinic
_cell_length_a                    22.319726
_cell_length_b                    6.939892
_cell_length_c                    19.385764
_cell_angle_alpha                 89.999848
_cell_angle_beta                  99.160816
_cell_angle_gamma                 89.999631
_cell_volume                      2964.4873409

loop_
_atom_site_label
_atom_site_type_symbol
_atom_type_description
_atom_site_fract_x
_atom_site_fract_y
_atom_site_fract_z
_atom_type_partial_charge
O1    O     O_R   0.448420 0.506120 0.415750 -0.535378
O2    O     O_R   0.551580 0.006120 0.584250 -0.535381
O3    O     O_R   0.436490 0.174470 0.555610 -0.534509
O4    O     O_R   0.563510 0.674470 0.444390 -0.534509
C1    C     C_R   0.421056 0.344665 0.575767 0.716135
C2    C     C_R   0.578943 0.844664 0.424232 0.716139
O5    O     O_R   0.441310 0.176330 0.414520 -0.537303
O6    O     O_R   0.558690 0.676330 0.585480 -0.537304
O7    O     O_R   0.556430 0.007110 0.442150 -0.536244
O8    O     O_R   0.443570 0.507110 0.557850 -0.536243
C3    C     C_R   0.426928 0.345092 0.388266 0.686368
C4    C     C_R   0.573072 0.845091 0.611734 0.686365
O9    O     O_3   0.537770 0.339560 0.509230 -0.365310
O10   O     O_3   0.462230 0.839560 0.490770 -0.365310
V1    V     V_3+5 0.492990 0.064280 0.498290 1.431631
V2    V     V_3+5 0.507010 0.564280 0.501710 1.431635
C5    C     C_R   0.867348 0.970593 0.695669 -0.162888
C6    C     C_R   0.132647 0.470494 0.304333 -0.162886
H1    H     H_    0.954554 0.997566 0.759664 0.101921
H2    H     H_    0.045441 0.497462 0.240339 0.101920
H3    H     H_    0.785276 0.963309 0.580865 0.119293
H4    H     H_    0.214717 0.463167 0.419139 0.119293
H5    H     H_    0.885929 0.994566 0.648022 0.107909
H6    H     H_    0.114064 0.494420 0.351981 0.107909
C7    C     C_R   0.884399 0.940804 0.821608 -0.038450
C8    C     C_R   0.115600 0.440794 0.178393 -0.038446
C9    C     C_R   0.589478 0.823129 0.739997 -0.163144
C10   C     C_R   0.410525 0.323194 0.260002 -0.163142
C11   C     C_R   0.625967 0.823474 0.805171 -0.124593
C12   C     C_R   0.374037 0.323566 0.194827 -0.124591
C13   C     C_R   0.688419 0.851717 0.811208 -0.158360
C14   C     C_R   0.311584 0.351784 0.188791 -0.158362
C15   C     C_R   0.716361 0.881157 0.751465 0.078625
C16   C     C_R   0.283640 0.381170 0.248534 0.078625
C17   C     C_R   0.678357 0.882258 0.684457 0.068998
C18   C     C_R   0.321642 0.382240 0.315544 0.068998
C19   C     C_R   0.780616 0.909472 0.755988 0.073565
C20   C     C_R   0.219384 0.409464 0.244012 0.073567
C21   C     C_R   0.804878 0.939974 0.693362 0.141819
C22   C     C_R   0.195119 0.439907 0.306640 0.141818
C23   C     C_R   0.766802 0.940429 0.628657 -0.203922
C24   C     C_R   0.233193 0.440332 0.371345 -0.203921
C25   C     C_R   0.704687 0.911696 0.624153 -0.194147
C26   C     C_R   0.295309 0.411624 0.375849 -0.194142
C27   C     C_R   0.821907 0.909314 0.820184 -0.216610
C28   C     C_R   0.178094 0.409338 0.179815 -0.216608
C29   C     C_R   0.906597 0.971994 0.759181 -0.170299
C30   C     C_R   0.093399 0.471921 0.240821 -0.170302
C31   C     C_R   0.614669 0.852519 0.679285 -0.083838
C32   C     C_R   0.385331 0.352529 0.320715 -0.083837
H7    H     H_    0.807111 0.887039 0.869847 0.091464
H8    H     H_    0.192892 0.387108 0.130152 0.091462
H9    H     H_    0.541107 0.799592 0.736857 0.103160
H10   H     H_    0.458897 0.299681 0.263141 0.103159
H11   H     H_    0.713513 0.849723 0.863463 0.104173
H12   H     H_    0.286491 0.349814 0.136535 0.104174
H13   H     H_    0.605634 0.800946 0.851649 0.111599
H14   H     H_    0.394372 0.301079 0.148348 0.111605
H15   H     H_    0.677328 0.913138 0.572741 0.108507
H16   H     H_    0.322667 0.413042 0.427262 0.108500
C33   C     C_3   0.812911 0.772103 0.268435 -0.334646
C34   C     C_3   0.187089 0.272105 0.731565 -0.334646
C35   C     C_3   0.778055 0.110695 0.238286 -0.340147
C36   C     C_3   0.221945 0.610694 0.761716 -0.340140
C37   C     C_3   0.730516 0.092324 0.288580 -0.423867
C38   C     C_3   0.269483 0.592328 0.711421 -0.423859
H17   H     H_    0.785844 0.800518 0.371894 0.129060
H18   H     H_    0.214153 0.300538 0.628105 0.129059
H19   H     H_    0.856554 0.824908 0.298275 0.139663
H20   H     H_    0.143444 0.324911 0.701727 0.139663
H21   H     H_    0.760999 0.213272 0.195501 0.157044
H22   H     H_    0.239001 0.713269 0.804502 0.157051
H23   H     H_    0.820919 0.171798 0.267194 0.148694
H24   H     H_    0.179080 0.671799 0.732809 0.148693
H25   H     H_    0.751061 0.142462 0.341628 0.161328
H26   H     H_    0.248939 0.642474 0.658375 0.161327
H27   H     H_    0.691305 0.188435 0.270516 0.176656
H28   H     H_    0.308694 0.688434 0.729487 0.176656
C39   C     C_1   0.624776 0.854668 0.378864 -0.186231
C40   C     C_1   0.375222 0.354671 0.621134 -0.186240
C41   C     C_3   0.790697 0.911653 0.207083 0.240948
C42   C     C_3   0.209304 0.411649 0.792918 0.240932
C43   C     C_3   0.765076 0.754513 0.318415 -0.311179
C44   C     C_3   0.234922 0.254523 0.681583 -0.311173
C45   C     C_3   0.708534 0.880657 0.292278 0.225471
C46   C     C_3   0.291465 0.380661 0.707720 0.225467
C47   C     C_3   0.681083 0.815219 0.216896 0.347737
C48   C     C_3   0.318917 0.315212 0.783101 0.347747
C49   C     C_3   0.729818 0.832496 0.167394 -0.371472
C50   C     C_3   0.270184 0.332488 0.832605 -0.371436
C51   C     C_1   0.662653 0.865488 0.340309 -0.053744
C52   C     C_1   0.337345 0.365493 0.659689 -0.053762
C53   C     C_1   0.836921 0.928217 0.159542 -0.078336
C54   C     C_1   0.163081 0.428213 0.840460 -0.078336
C55   C     C_1   0.874969 0.939593 0.121167 -0.197740
C56   C     C_1   0.125032 0.439590 0.878834 -0.197739
H29   H     H_    0.737731 0.689378 0.144502 0.160720
H30   H     H_    0.262273 0.189369 0.855498 0.160726
H31   H     H_    0.712471 0.929752 0.123044 0.098905
H32   H     H_    0.287533 0.429743 0.876955 0.098904
H33   H     H_    0.821647 0.627041 0.247627 0.144599
H34   H     H_    0.178355 0.127041 0.752372 0.144601
H35   H     H_    0.751548 0.600971 0.322068 0.175149
H36   H     H_    0.248449 0.100981 0.677926 0.175149
H37   H     H_    0.642849 0.916028 0.197998 0.018229
H38   H     H_    0.357151 0.416020 0.801998 0.018202
O11   O     O_R   0.056480 0.288780 0.942210 -0.535425
O12   O     O_R   0.943520 0.788780 0.057790 -0.535425
O13   O     O_R   0.058700 0.616820 0.085490 -0.538142
O14   O     O_R   0.941300 0.116820 0.914510 -0.538142
C57   C     C_R   0.073266 0.448339 0.111667 0.693502
C58   C     C_R   0.926733 0.948340 0.888333 0.693503
O15   O     O_R   0.063520 0.618570 0.944410 -0.537544
O16   O     O_R   0.936480 0.118570 0.055590 -0.537544
O17   O     O_R   0.948420 0.787670 0.915740 -0.535991
O18   O     O_R   0.051580 0.287670 0.084260 -0.535991
C59   C     C_R   0.079068 0.449775 0.924117 0.725482
C60   C     C_R   0.920932 0.949775 0.075884 0.725483
O19   O     O_3   0.962260 0.453430 0.990800 -0.366289
O20   O     O_3   0.037740 0.953430 0.009200 -0.366289
V3    V     V_3+5 0.007000 0.728750 0.001710 1.420555
V4    V     V_3+5 0.993000 0.228750 0.998290 1.420556
O21   O     O_3   0.660951 0.621363 0.218777 -0.553410
C61   C     C_3   0.610764 0.588066 0.165848 0.099595
H39   H     H_    0.620937 0.631827 0.113644 0.105698
H40   H     H_    0.570427 0.668860 0.177404 0.117518
C62   C     C_3   0.595637 0.374198 0.163387 -0.746066
H41   H     H_    0.585004 0.326080 0.214738 0.219507
H42   H     H_    0.555604 0.346851 0.122666 0.171742
H43   H     H_    0.634755 0.290038 0.150587 0.212241
O22   O     O_3   0.339045 0.121352 0.781216 -0.553415
C63   C     C_3   0.389259 0.088075 0.834112 0.099594
H44   H     H_    0.379117 0.131841 0.886328 0.105699
H45   H     H_    0.429583 0.168878 0.822520 0.117516
C64   C     C_3   0.404394 0.874212 0.836565 -0.746035
H46   H     H_    0.414976 0.826079 0.785192 0.219515
H47   H     H_    0.444462 0.846890 0.877243 0.171737
H48   H     H_    0.365297 0.790045 0.849424 0.212221

loop_
_geom_bond_atom_site_label_1
_geom_bond_atom_site_label_2
_ccdc_geom_bond_type
C64   H48   S    
C20   C22   A    
C35   C37   S    
H17   C43   S    
O17   V3    S    
C9    C11   A    
C48   C50   S    
O1    C3    A    
O12   V3    S    
O2    C4    A    
C2    O7    A    
C4    C31   S    
C45   C51   S    
O3    V1    S    
O21   C61   S    
C21   C23   A    
O5    C3    A    
C47   O21   S    
C5    H5    S    
C43   H35   S    
C35   C41   S    
C42   C54   S    
C44   C46   S    
O13   C57   A    
C46   C48   S    
C27   H7    S    
C28   H8    S    
H3    C23   S    
C48   H38   S    
C34   H20   S    
C5    C21   A    
C6    C22   A    
C7    C58   S    
C10   C32   A    
C63   H44   S    
C17   C31   A    
C13   C15   A    
C57   O18   A    
C17   C25   A    
C7    C29   A    
C39   C51   T    
C8    C30   A    
C41   C49   S    
O6    V2    S    
O5    V1    S    
C34   C42   S    
C53   C55   T    
C14   H12   S    
C23   C25   A    
C24   C26   A    
C50   H32   S    
O4    V2    S    
O20   V4    S    
O19   V3    S    
C55   C60   S    
C38   H28   S    
C37   H27   S    
C45   C47   S    
H18   C44   S    
O12   C60   A    
C56   C59   S    
C64   H46   S    
O4    C2    A    
C33   C43   S    
C10   H10   S    
C35   H23   S    
O3    C1    A    
C15   C19   A    
C49   H29   S    
C36   C38   S    
C40   C52   T    
C33   H33   S    
C62   H42   S    
C41   C53   S    
C47   H37   S    
O6    C4    A    
C38   H26   S    
H1    C29   S    
O1    V2    S    
O16   C60   A    
C1    C40   S    
C54   C56   T    
O2    V1    S    
C36   C42   S    
H2    C30   S    
O18   V4    S    
C61   C62   S    
O15   C59   A    
C43   C45   S    
C11   H13   S    
O9    V1    S    
C44   H36   S    
C6    H6    S    
C18   C26   A    
C19   C27   A    
C62   H41   S    
C46   C52   S    
C7    C27   A    
C18   C32   A    
O20   V3    S    
C61   H40   S    
O19   V4    S    
C33   H19   S    
C64   H47   S    
C34   C44   S    
C16   C20   A    
C5    C29   A    
C35   H21   S    
O11   V4    S    
C49   H31   S    
C6    C30   A    
C38   C46   S    
C9    H9    S    
C37   C45   S    
C25   H15   S    
C42   C50   S    
C10   C12   A    
O7    V1    S    
C62   H43   S    
C1    O8    A    
C11   C13   A    
C3    C32   S    
C33   C41   S    
O14   V4    S    
C12   C14   A    
O13   V3    S    
C2    C39   S    
H4    C24   S    
C26   H16   S    
C63   C64   S    
C12   H14   S    
C22   C24   A    
C15   C17   A    
C16   C18   A    
O11   C59   A    
O10   V2    S    
C36   H22   S    
O22   C63   S    
O14   C58   A    
C20   C28   A    
C8    C28   A    
O16   V4    S    
C19   C21   A    
O15   V3    S    
C63   H45   S    
O9    V2    S    
C47   C49   S    
C36   H24   S    
O10   V1    S    
O8    V2    S    
C48   O22   S    
C13   H11   S    
C8    C57   S    
C50   H30   S    
C58   O17   A    
C37   H25   S    
C9    C31   A    
C14   C16   A    
C61   H39   S    
C34   H34   S    
