data_mof_unit_22714.cif
_audit_creation_date              2012-12-10T19:01:24-0500
_audit_creation_method            fapswitch 2.2
_symmetry_space_group_name_H-M    P1
_symmetry_Int_Tables_number       1
_space_group_crystal_system       triclinic
_cell_length_a                    9.543224
_cell_length_b                    10.857393
_cell_length_c                    15.471971
_cell_angle_alpha                 89.698146
_cell_angle_beta                  74.560849
_cell_angle_gamma                 90.025571
_cell_volume                      1545.24609585

loop_
_atom_site_label
_atom_site_type_symbol
_atom_type_description
_atom_site_fract_x
_atom_site_fract_y
_atom_site_fract_z
_atom_type_partial_charge
C1    C     C_R   0.000695 0.262748 0.498229 0.820863
C2    C     C_R   0.675312 0.505887 0.908500 0.091253
C3    C     C_R   0.776174 0.473731 0.957533 0.161455
C4    C     C_R   0.526314 0.525250 0.954414 0.068686
C5    C     C_R   0.478184 0.501327 0.048322 0.064328
C6    C     C_R   0.582811 0.469313 0.094538 -0.204337
C7    C     C_R   0.728830 0.457208 0.049949 -0.228564
C8    C     C_R   0.424615 0.570250 0.909913 -0.221682
C9    C     C_R   0.279945 0.587971 0.955132 -0.237125
C10   C     C_R   0.230274 0.560777 0.046035 0.167297
C11   C     C_R   0.327741 0.514560 0.093346 0.090876
C12   C     C_R   0.918373 0.499248 0.672189 0.785246
C13   C     C_R   0.083889 0.581645 0.090584 -0.208890
C14   C     C_R   0.033001 0.558881 0.182150 -0.189495
C15   C     C_R   0.270879 0.484746 0.184537 -0.237034
C16   C     C_R   0.126192 0.062136 0.488664 0.072439
C17   C     C_R   0.000748 0.130213 0.494709 -0.118502
C18   C     C_R   0.871226 0.064670 0.498842 -0.171627
C19   C     C_R   0.870647 0.935545 0.499854 -0.197134
C20   C     C_R   0.999224 0.870004 0.497707 -0.077517
C21   C     C_R   0.124326 0.938003 0.492310 0.054449
C22   C     C_3   0.280391 0.927713 0.491082 -0.506969
C23   C     C_R   0.999987 0.737331 0.499711 0.808003
C24   C     C_3   0.283740 0.069704 0.486051 0.316787
C25   C     C_R   0.593409 0.589364 0.454780 0.247902
C26   C     C_R   0.552191 0.419066 0.551396 -0.051781
C27   C     C_R   0.403223 0.419239 0.551557 -0.014193
C28   C     C_R   0.445931 0.589404 0.454731 0.245329
C29   C     C_3   0.483540 0.614308 0.356338 -0.465536
C30   C     C_3   0.642050 0.614231 0.356618 -0.498516
C31   C     C_R   0.081626 0.500962 0.327854 0.821244
C32   C     C_R   0.873329 0.495657 0.770640 -0.046289
C33   C     C_R   0.126855 0.511659 0.229759 -0.046454
C34   C     C_R   0.923730 0.457071 0.913383 -0.209619
C35   C     C_R   0.972358 0.469165 0.820529 -0.200582
C36   C     C_R   0.726680 0.514091 0.814688 -0.251499
Cu1   Cu    Cu3+1 0.140670 0.499980 0.500000 0.979912
Cu2   Cu    Cu3+1 0.859330 0.500020 0.500000 0.954967
H1    H     H_    0.805104 0.433180 0.088182 0.156603
H2    H     H_    0.009656 0.619057 0.055038 0.144744
H3    H     H_    0.770197 0.112393 0.502423 0.186691
H4    H     H_    0.769528 0.887852 0.503411 0.169700
H5    H     H_    0.294566 0.890623 0.555305 0.156496
H6    H     H_    0.345281 0.880610 0.429976 0.235669
H7    H     H_    0.303901 0.114759 0.545966 0.046239
H8    H     H_    0.590630 0.351861 0.591558 0.131283
H9    H     H_    0.329899 0.352237 0.591836 0.116832
H10   H     H_    0.456117 0.536214 0.318004 0.226937
H11   H     H_    0.336067 0.440247 0.222420 0.162896
H12   H     H_    0.444680 0.705656 0.339999 0.200880
H13   H     H_    0.702785 0.535596 0.318743 0.219636
H14   H     H_    0.695235 0.705776 0.341049 0.204456
H15   H     H_    0.921777 0.581576 0.215812 0.149024
H16   H     H_    0.206402 0.624120 0.918558 0.148427
H17   H     H_    0.001208 0.432629 0.950587 0.146370
H18   H     H_    0.086271 0.454197 0.787699 0.150665
H19   H     H_    0.653727 0.530814 0.773667 0.149789
H20   H     H_    0.556606 0.455984 0.165993 0.152491
H21   H     H_    0.453669 0.597276 0.840383 0.140737
N1    N     N_R   0.648210 0.500930 0.499430 -0.184752
N2    N     N_R   0.352300 0.500890 0.499430 -0.170848
O1    O     O_R   0.118810 0.319640 0.500000 -0.553692
O2    O     O_R   0.881230 0.319680 0.499990 -0.584175
O3    O     O_R   0.055580 0.499970 0.629840 -0.596090
O4    O     O_R   0.818000 0.500010 0.629830 -0.592430
O5    O     O_R   0.118770 0.680320 0.500010 -0.582238
O6    O     O_R   0.881190 0.680360 0.500000 -0.591967
O7    O     O_R   0.182000 0.499990 0.370170 -0.563081
O8    O     O_R   0.944420 0.500030 0.370160 -0.582754
S1    S     S_3+6 0.394603 0.125998 0.380849 -0.008157
O9    O     O_2   0.385360 0.263910 0.377070 -0.291789
O10   O     O_2   0.549675 0.089113 0.371516 -0.303323
O11   O     O_3   0.337680 0.065017 0.296361 -0.530021
H22   H     H_    0.400811 0.102822 0.241265 0.371058

loop_
_geom_bond_atom_site_label_1
_geom_bond_atom_site_label_2
_ccdc_geom_bond_type
C8    C9    A    
C30   H13   S    
C16   C21   A    
O11   H22   S    
C6    H20   S    
C19   C20   A    
C4    C8    A    
C1    O1    A    
C14   C33   A    
Cu1   O1    S    
C24   S1    S    
C25   C28   A    
C26   C27   A    
C29   C30   S    
C24   H7    S    
C32   C36   A    
C23   O5    A    
C28   C29   S    
C5    C11   A    
C3    C7    A    
C8    H21   S    
C5    C6    A    
C12   O3    A    
C27   H9    S    
Cu1   O7    S    
C34   C35   A    
C23   O6    A    
C13   H2    S    
C27   N2    A    
C11   C15   A    
C22   H6    S    
C16   C17   A    
C31   C33   S    
S1    O9    D    
C25   N1    A    
C9    C10   A    
C19   H4    S    
C28   N2    A    
Cu2   O8    S    
C34   H17   S    
C16   C24   S    
C13   C14   A    
C12   C32   S    
C1    O2    A    
C29   H12   S    
C31   O7    A    
C29   H10   S    
C32   C35   A    
C36   H19   S    
C18   H3    S    
C18   C19   A    
C3    C34   A    
C20   C23   S    
C2    C4    A    
Cu1   Cu2   S    
C22   H5    S    
Cu2   O4    S    
Cu1   O5    S    
S1    O11   S    
C17   C18   A    
Cu2   O6    S    
Cu2   N1    S    
C22   C24   S    
Cu1   O3    S    
Cu2   O2    S    
C2    C36   A    
C25   C30   S    
C30   H14   S    
C35   H18   S    
C4    C5    A    
C10   C13   A    
Cu1   N2    S    
C6    C7    A    
C12   O4    A    
C1    C17   S    
C2    C3    A    
C15   H11   S    
C10   C11   A    
C26   H8    S    
C31   O8    A    
C14   H15   S    
C20   C21   A    
C7    H1    S    
S1    O10   D    
C9    H16   S    
C21   C22   S    
C26   N1    A    
C15   C33   A    
