data_mof_unit_41547.cif
_audit_creation_date              2012-10-26T18:34:46-0400
_audit_creation_method            fapswitch 2.2
_symmetry_space_group_name_H-M    P1
_symmetry_Int_Tables_number       1
_space_group_crystal_system       triclinic
_cell_length_a                    10.862986
_cell_length_b                    9.48977
_cell_length_c                    17.782777
_cell_angle_alpha                 88.710132
_cell_angle_beta                  90.977368
_cell_angle_gamma                 88.386223
_cell_volume                      1831.69886669

loop_
_atom_site_label
_atom_site_type_symbol
_atom_type_description
_atom_site_fract_x
_atom_site_fract_y
_atom_site_fract_z
_atom_type_partial_charge
C1    C     C_R   0.262032 0.502222 0.502178 0.583995
C2    C     C_R   0.498220 0.498435 0.644498 0.601229
C3    C     C_R   0.872204 0.493421 0.495330 -0.059493
C4    C     C_R   0.127923 0.506802 0.504846 -0.069971
C5    C     C_R   0.414042 0.606142 0.841038 0.238863
C6    C     C_R   0.464859 0.382171 0.153641 0.230113
C7    C     C_R   0.494211 0.635724 0.150982 0.243552
C8    C     C_R   0.529268 0.381718 0.849979 0.244485
C9    C     C_R   0.417938 0.602502 0.762287 0.208037
C10   C     C_R   0.460818 0.382300 0.232389 0.213402
C11   C     C_R   0.510038 0.632482 0.230085 0.235245
C12   C     C_R   0.738006 0.497806 0.497817 0.611441
C13   C     C_R   0.539975 0.381842 0.770918 0.233697
C14   C     C_R   0.486947 0.494920 0.727158 -0.058686
C15   C     C_R   0.490661 0.505452 0.271509 -0.056621
C16   C     C_R   0.416870 0.078889 0.456946 0.002769
C17   C     C_R   0.582605 0.921157 0.543534 -0.003997
C18   C     C_R   0.583226 0.070132 0.542879 -0.023020
C19   C     C_R   0.417321 0.929970 0.456640 -0.021070
C20   C     C_R   0.470362 0.496700 0.884506 -0.044345
C21   C     C_R   0.475988 0.509196 0.113210 -0.041058
C22   C     C_3   0.420977 0.830135 0.882167 -0.111393
C23   C     C_1   0.471754 0.504544 0.965042 0.062998
C24   C     C_3   0.569658 0.187349 0.116245 -0.103751
C25   C     C_3   0.393081 0.814787 0.086463 -0.140402
C26   C     C_3   0.496214 0.184507 0.921508 -0.142108
C27   C     C_3   0.237568 0.666086 0.703350 -0.076133
C28   C     C_3   0.308217 0.240381 0.270397 -0.106301
C29   C     C_3   0.476601 0.859961 0.268698 -0.059740
C30   C     C_3   0.559035 0.147544 0.741808 -0.052464
C31   C     C_3   0.162431 0.179778 0.573769 -0.056696
C32   C     C_3   0.837628 0.820690 0.426925 -0.039868
C33   C     C_3   0.881552 0.159919 0.513374 -0.119554
C34   C     C_1   0.473934 0.507782 0.032496 0.064775
C35   C     C_3   0.119308 0.840481 0.486072 -0.129415
C36   C     C_R   0.069049 0.395381 0.541576 0.211945
C37   C     C_R   0.931103 0.605009 0.458723 0.217416
C38   C     C_R   0.941305 0.384266 0.533201 0.233095
C39   C     C_R   0.058876 0.616011 0.467004 0.223256
C40   C     C_R   0.498488 0.501604 0.355125 0.594203
Cu1   Cu    Cu3+1 0.500000 0.640660 0.500000 0.987969
Cu2   Cu    Cu3+1 0.500000 0.359340 0.500000 0.986495
H1    H     H_    0.445153 0.874645 0.826108 0.146236
H2    H     H_    0.427404 0.155972 0.877704 0.079927
H3    H     H_    0.447052 0.231480 0.969250 0.173082
H4    H     H_    0.542898 0.085625 0.942603 0.127673
H5    H     H_    0.183655 0.651961 0.755508 0.158321
H6    H     H_    0.238077 0.567619 0.670498 0.133580
H7    H     H_    0.190138 0.749914 0.668303 0.117720
H8    H     H_    0.267292 0.244706 0.212538 0.154505
H9    H     H_    0.262348 0.320671 0.305907 0.112110
H10   H     H_    0.289248 0.134587 0.294499 0.102216
H11   H     H_    0.381064 0.826566 0.280296 0.090135
H12   H     H_    0.505945 0.804774 0.916291 0.123007
H13   H     H_    0.479217 0.926063 0.216677 0.174680
H14   H     H_    0.505729 0.928866 0.314750 0.145622
H15   H     H_    0.456517 0.153122 0.736780 0.096950
H16   H     H_    0.590368 0.090687 0.794002 0.152878
H17   H     H_    0.592922 0.081706 0.695798 0.117891
H18   H     H_    0.349923 0.138749 0.422937 0.115035
H19   H     H_    0.648602 0.861486 0.578603 0.110044
H20   H     H_    0.650154 0.123430 0.576610 0.154601
H21   H     H_    0.352191 0.877161 0.421252 0.128294
H22   H     H_    0.252656 0.146242 0.599466 0.144771
H23   H     H_    0.367705 0.912570 0.911829 0.120684
H24   H     H_    0.171603 0.171672 0.511743 0.079760
H25   H     H_    0.093643 0.105223 0.595031 0.137605
H26   H     H_    0.828803 0.828462 0.488997 0.071812
H27   H     H_    0.747226 0.854194 0.401451 0.166958
H28   H     H_    0.906206 0.895463 0.405634 0.129339
H29   H     H_    0.803232 0.174451 0.472992 0.144534
H30   H     H_    0.869676 0.059085 0.544736 0.099870
H31   H     H_    0.966776 0.148437 0.480091 0.066090
H32   H     H_    0.130440 0.941069 0.454318 0.096009
H33   H     H_    0.198392 0.826722 0.525927 0.147376
H34   H     H_    0.603082 0.159764 0.174367 0.162878
H35   H     H_    0.034648 0.851962 0.519913 0.068717
H36   H     H_    0.638475 0.251768 0.086341 0.137758
H37   H     H_    0.561712 0.087320 0.085880 0.145793
H38   H     H_    0.404191 0.921796 0.061729 0.137707
H39   H     H_    0.328020 0.824582 0.133900 0.104016
H40   H     H_    0.351692 0.749857 0.042067 0.154337
N1    N     N_R   0.500000 0.852070 0.500000 -0.225209
N2    N     N_R   0.500000 0.147930 0.500000 -0.230939
O1    O     O_R   0.319640 0.618740 0.499990 -0.490661
O2    O     O_3   0.453106 0.257021 0.116127 -0.580508
O3    O     O_3   0.510057 0.760122 0.110562 -0.553062
O4    O     O_3   0.586625 0.275072 0.893249 -0.535668
O5    O     O_3   0.358167 0.708632 0.719970 -0.546449
O6    O     O_3   0.436825 0.257706 0.270583 -0.546776
O7    O     O_3   0.561954 0.745488 0.265870 -0.514917
O8    O     O_3   0.613235 0.280920 0.736384 -0.509549
O9    O     O_3   0.132884 0.317343 0.597488 -0.539825
O10   O     O_3   0.867241 0.683319 0.402933 -0.511011
O11   O     O_3   0.884187 0.270291 0.565788 -0.507536
O12   O     O_R   0.680360 0.381260 0.500010 -0.484323
O13   O     O_3   0.116119 0.729540 0.434020 -0.530371
O14   O     O_R   0.680360 0.618740 0.500010 -0.502759
O15   O     O_R   0.319640 0.381260 0.499990 -0.510137
O16   O     O_R   0.500000 0.618830 0.391250 -0.464935
O17   O     O_R   0.500000 0.381170 0.608750 -0.470775
O18   O     O_R   0.500000 0.618830 0.608750 -0.473803
O19   O     O_R   0.500000 0.381170 0.391250 -0.465236
O20   O     O_3   0.346771 0.711589 0.875451 -0.548968

loop_
_geom_bond_atom_site_label_1
_geom_bond_atom_site_label_2
_ccdc_geom_bond_type
C27   H6    S    
C31   H24   S    
C32   O10   S    
C4    C36   A    
C35   H32   S    
C8    C13   A    
C25   H38   S    
Cu1   Cu2   S    
C16   N2    A    
Cu2   O19   S    
C1    O15   A    
C26   H2    S    
C22   H12   S    
C5    C20   A    
C7    C11   A    
C35   H33   S    
C8    C20   A    
Cu2   O12   S    
C10   C15   A    
C28   H9    S    
C39   O13   S    
C2    O18   A    
C27   H5    S    
Cu1   N1    S    
C30   H15   S    
C25   O3    S    
C22   O20   S    
Cu1   O18   S    
C16   H18   S    
C3    C12   S    
C26   H3    S    
C17   H19   S    
C28   H8    S    
C36   O9    S    
C7    O3    S    
C3    C38   A    
C19   H21   S    
C38   O11   S    
C18   N2    A    
C4    C39   A    
C12   O14   A    
C33   H30   S    
C32   H26   S    
C5    O20   S    
C13   C14   A    
C25   H39   S    
C11   C15   A    
C19   N1    A    
C33   O11   S    
C1    O1    A    
Cu2   N2    S    
C30   O8    S    
C9    O5    S    
C33   H29   S    
C24   H34   S    
C32   H28   S    
C21   C34   S    
C29   H13   S    
C2    O17   A    
C31   O9    S    
C6    C21   A    
C35   H35   S    
C17   N1    A    
C31   H25   S    
C9    C14   A    
C22   H23   S    
C5    C9    A    
C24   H37   S    
C22   H1    S    
C20   C23   S    
C23   C34   T    
C30   H17   S    
C17   C18   A    
Cu1   O16   S    
C10   O6    S    
C33   H31   S    
C13   O8    S    
C25   H40   S    
Cu2   O17   S    
C29   O7    S    
C24   H36   S    
C31   H22   S    
C18   H20   S    
C40   O16   A    
C32   H27   S    
C29   H14   S    
Cu1   O1    S    
C6    O2    S    
C1    C4    S    
C36   C38   A    
C37   C39   A    
C7    C21   A    
Cu2   O15   S    
C40   O19   A    
C28   H10   S    
C29   H11   S    
C16   C19   A    
C30   H16   S    
C37   O10   S    
C27   O5    S    
C2    C14   S    
C15   C40   S    
C6    C10   A    
C26   H4    S    
C11   O7    S    
C3    C37   A    
C26   O4    S    
Cu1   O14   S    
C12   O12   A    
C28   O6    S    
C8    O4    S    
C35   O13   S    
C24   O2    S    
C27   H7    S    
