data_mof_unit_21539.cif
_audit_creation_date              2013-03-05T15:40:40-0500
_audit_creation_method            fapswitch 2.2
_symmetry_space_group_name_H-M    P1
_symmetry_Int_Tables_number       1
_space_group_crystal_system       triclinic
_cell_length_a                    7.458686
_cell_length_b                    8.782552
_cell_length_c                    15.746566
_cell_angle_alpha                 94.464151
_cell_angle_beta                  74.451256
_cell_angle_gamma                 102.928815
_cell_volume                      968.381247856

loop_
_atom_site_label
_atom_site_type_symbol
_atom_site_description
_atom_site_fract_x
_atom_site_fract_y
_atom_site_fract_z
_atom_type_partial_charge
O1    O     O_R   0.384450 0.714270 0.493720 -0.565107
O2    O     O_R   0.615550 0.285730 0.506280 -0.542632
O3    O     O_R   0.684880 0.742590 0.510050 -0.603068
O4    O     O_R   0.315120 0.257410 0.489950 -0.590915
C1    C     C_R   0.544290 0.799272 0.501892 0.819897
C2    C     C_R   0.454981 0.201021 0.499328 0.874451
O5    O     O_R   0.265540 0.477900 0.617090 -0.499278
O6    O     O_R   0.734460 0.522100 0.382910 -0.500476
O7    O     O_R   0.565970 0.506210 0.633420 -0.626853
O8    O     O_R   0.434030 0.493790 0.366580 -0.632421
C3    C     C_R   0.381835 0.483039 0.666416 0.812894
C4    C     C_R   0.618032 0.513770 0.333055 0.824537
Cu1   Cu    Cu3+1 0.322120 0.483240 0.490330 1.016729
Cu2   Cu    Cu3+1 0.677880 0.516760 0.509670 1.017086
C5    C     C_R   0.304782 0.450613 0.761655 -0.106927
C6    C     C_R   0.694497 0.532717 0.235995 -0.109617
C7    C     C_R   0.085324 0.294088 0.883889 0.352241
C8    C     C_R   0.926551 0.660707 0.106750 0.358552
C9    C     C_R   0.133206 0.342503 0.794988 0.127825
C10   C     C_R   0.876040 0.623895 0.197441 0.144057
C11   C     C_R   0.422372 0.512566 0.816517 -0.291682
C12   C     C_R   0.571642 0.471243 0.183014 -0.296537
C13   C     C_R   0.386320 0.460097 0.902836 -0.018167
C14   C     C_R   0.616205 0.505327 0.092781 -0.014534
C15   C     C_R   0.210135 0.356013 0.938441 -0.048007
C16   C     C_R   0.797707 0.600229 0.054236 -0.042714
C17   C     C_R   0.523597 0.506301 0.953525 0.029461
C18   C     C_R   0.480938 0.453690 0.041165 0.019384
C19   C     C_R   0.302358 0.354146 0.075119 -0.233529
C20   C     C_R   0.706603 0.596845 0.917269 -0.227814
C21   C     C_R   0.166444 0.312008 0.027431 0.451064
C22   C     C_R   0.843632 0.636744 0.964002 0.446285
H1    H     H_    0.436628 0.401804 0.216137 0.162946
H2    H     H_    0.544570 0.601243 0.788209 0.162415
H3    H     H_    0.259460 0.306472 0.140048 0.159689
H4    H     H_    0.754899 0.633638 0.850009 0.154964
C23   C     C_2   0.573963 0.965059 0.491043 -0.004957
C24   C     C_2   0.424310 0.036981 0.513027 0.002265
N1    N     N_2   0.945180 0.542040 0.524240 0.132839
N2    N     N_2   0.054820 0.457960 0.475760 0.138579
O9    O     O_3   0.990409 0.229426 0.071581 -0.665767
H5    H     H_    0.894581 0.282922 0.061225 0.345413
O10   O     O_3   0.021908 0.712150 0.918011 -0.670567
H6    H     H_    0.113730 0.654996 0.928839 0.346157
N3    N     N_2   0.999815 0.690076 0.251634 -0.442316
H7    H     H_    0.058211 0.807374 0.242231 0.249918
C25   C     C_3   0.139777 0.601219 0.253745 -0.611152
H8    H     H_    0.261465 0.624171 0.194556 0.199163
H9    H     H_    0.076435 0.474106 0.256280 0.252895
H10   H     H_    0.194273 0.637251 0.312826 0.254951
N4    N     N_2   0.018882 0.274103 0.736773 -0.425050
H11   H     H_    0.980486 0.153970 0.737296 0.248715
C26   C     C_3   0.863014 0.348071 0.738570 -0.584380
H12   H     H_    0.746572 0.317877 0.799307 0.195381
H13   H     H_    0.805932 0.307346 0.680575 0.243539
H14   H     H_    0.912565 0.476778 0.736061 0.255386
O11   O     O_3   0.927568 0.177603 0.916924 -0.691433
H15   H     H_    0.840054 0.157982 0.878322 0.331285
O12   O     O_3   0.092391 0.766598 0.069933 -0.690960
H16   H     H_    0.188742 0.769862 0.102755 0.330134
N5    N     N_2   0.762272 0.048964 0.451448 -0.393458
H17   H     H_    0.845654 0.078685 0.495419 0.284060
C27   C     C_3   0.859526 0.985278 0.368967 -0.632237
H18   H     H_    0.972848 0.078058 0.331486 0.225201
H19   H     H_    0.759330 0.937465 0.327599 0.223484
H20   H     H_    0.927169 0.892715 0.382493 0.237032
N6    N     N_2   0.237507 0.963982 0.560799 -0.441159
H21   H     H_    0.160778 0.881255 0.526870 0.300732
C28   C     C_3   0.215153 0.935146 0.652771 -0.592186
H22   H     H_    0.061518 0.903296 0.686916 0.218949
H23   H     H_    0.280188 0.041944 0.685492 0.212511
H24   H     H_    0.282851 0.837833 0.659394 0.232193
O13   O     O_3   0.005239 0.618060 0.591599 -0.634830
H25   H     H_    0.899651 0.667876 0.624326 0.321296
O14   O     O_3   0.989365 0.373272 0.412047 -0.606031
H26   H     H_    0.095358 0.323907 0.379411 0.320209

loop_
_geom_bond_atom_site_label_1
_geom_bond_atom_site_label_2
_geom_bond_distance
_ccdc_geom_bond_type
C15   C21   1.415025 A    
C27   H19   1.112264 S    
C16   C22   1.414195 A    
C1    C23   1.439604 S    
O13   H25   0.989303 S    
C8    C16   1.420795 A    
O7    Cu2   1.903678 S    
C25   H9    1.109909 S    
N3    H7    1.030179 S    
O5    C3    1.302285 A    
O1    C1    1.290049 A    
C18   C19   1.412166 A    
C14   C16   1.424463 A    
C28   H22   1.109104 S    
C28   H23   1.111623 S    
O9    H5    0.991405 S    
O4    Cu1   1.971923 S    
N5    C27   1.445434 S    
Cu1   N2    2.028796 S    
Cu2   N1    2.028797 S    
C3    C5    1.480407 S    
C4    C6    1.489513 S    
O6    Cu2   1.928357 S    
C2    C24   1.431394 S    
C13   C17   1.432454 A    
C10   N3    1.422448 S    
C6    C10   1.411762 A    
N3    C25   1.444686 S    
C27   H20   1.108559 S    
O12   H16   0.985891 S    
Cu1   Cu2   2.700037 S    
C17   C20   1.410192 A    
O2    C2    1.287904 A    
C25   H10   1.109140 S    
C26   H13   1.110238 S    
N6    H21   1.028725 S    
O4    C2    1.296321 A    
N1    N2    1.282414 D    
C11   H2    1.074498 S    
C26   H12   1.109237 S    
N4    H11   1.029628 S    
N6    C28   1.448482 S    
C28   H24   1.109731 S    
C5    C9    1.410133 A    
O14   H26   0.988911 S    
C23   C24   1.356120 D    
C25   H8    1.107683 S    
O5    Cu1   1.928360 S    
O6    C4    1.305327 A    
O7    C3    1.306309 A    
O3    Cu2   1.971922 S    
O8    C4    1.308141 A    
C11   C13   1.406504 A    
O10   H6    0.989871 S    
C12   C14   1.409752 A    
O1    Cu1   1.977446 S    
C26   H14   1.108190 S    
C12   H1    1.072930 S    
C6    C12   1.394827 A    
C21   O9    1.377063 S    
C14   C18   1.435858 A    
O3    C1    1.296027 A    
O8    Cu1   1.903676 S    
C23   N5    1.429468 S    
C19   H3    1.074395 S    
N2    O14   1.334929 S    
C20   H4    1.073564 S    
C7    C15   1.424684 A    
C19   C21   1.387623 A    
C20   C22   1.382650 A    
O11   H15   0.985549 S    
C7    C9    1.422919 A    
C22   O10   1.376771 S    
C8    C10   1.419440 A    
N1    O13   1.334960 S    
N5    H17   1.031697 S    
O2    Cu2   1.977447 S    
C27   H18   1.107222 S    
C9    N4    1.425630 S    
C8    O12   1.384103 S    
C5    C11   1.389647 A    
C13   C15   1.422704 A    
C24   N6    1.425359 S    
C17   C18   1.420316 A    
N4    C26   1.446321 S    
C7    O11   1.384826 S    
