data_mof_unit_62312.cif
_audit_creation_date              2012-12-10T16:43:17-0500
_audit_creation_method            fapswitch 2.2
_symmetry_space_group_name_H-M    P1
_symmetry_Int_Tables_number       1
_space_group_crystal_system       triclinic
_cell_length_a                    18.442813
_cell_length_b                    18.433711
_cell_length_c                    18.486313
_cell_angle_alpha                 119.754077
_cell_angle_beta                  90.372764
_cell_angle_gamma                 119.741759
_cell_volume                      4463.32450805

loop_
_atom_site_label
_atom_site_type_symbol
_atom_type_description
_atom_site_fract_x
_atom_site_fract_y
_atom_site_fract_z
_atom_type_partial_charge
C1    C     C_R   0.361376 0.999596 0.138408 0.853825
C2    C     C_2   0.797176 0.991814 0.684117 -0.279524
C3    C     C_2   0.715447 0.937563 0.770910 -0.216559
C4    C     C_R   0.640263 0.001763 0.863151 0.798087
C5    C     C_2   0.707638 0.015187 0.820924 -0.115387
C6    C     C_2   0.280964 0.443720 0.721212 -0.165313
C7    C     C_2   0.192224 0.387777 0.696820 -0.292677
C8    C     C_2   0.337195 0.556052 0.779941 -0.158459
C9    C     C_2   0.304635 0.612274 0.803127 -0.294734
C10   C     C_2   0.280997 0.057349 0.337015 -0.158819
C11   C     C_2   0.192279 0.001117 0.304663 -0.293481
C12   C     C_R   0.114144 0.805445 0.584705 -0.173160
C13   C     C_2   0.337083 0.059584 0.280754 -0.156805
C14   C     C_2   0.304426 0.995673 0.192174 -0.292612
C15   C     C_2   0.778135 0.943373 0.221453 -0.369038
C16   C     C_R   0.638181 0.277003 0.138490 0.850035
C17   C     C_2   0.788285 0.983017 0.307287 -0.166325
C18   C     C_2   0.709575 0.926933 0.162648 0.570221
C19   C     C_2   0.701556 0.004730 0.192391 -0.381808
C20   C     C_2   0.776808 0.556442 0.219324 -0.159813
C21   C     C_2   0.809057 0.612251 0.307874 -0.295619
C22   C     C_2   0.723157 0.444081 0.162993 -0.160298
C23   C     C_R   0.180366 0.899055 0.664418 0.098362
C24   C     C_2   0.690989 0.387705 0.195303 -0.294706
C25   C     C_R   0.138387 0.277079 0.638898 0.852740
C26   C     C_R   0.861810 0.722984 0.361686 0.847098
C27   C     C_R   0.860190 0.998748 0.637206 0.854293
C28   C     C_R   0.361441 0.722937 0.861132 0.846961
C29   C     C_R   0.138432 0.000250 0.361500 0.852117
C30   C     C_R   0.858028 0.997918 0.360727 0.842719
C31   C     C_R   0.139994 0.998357 0.638485 0.784522
C32   C     C_R   0.640054 0.999961 0.139139 0.885083
C33   C     C_R   0.359880 0.998332 0.858343 0.782074
C34   C     C_R   0.234962 0.899050 0.718988 0.098830
C35   C     C_R   0.221370 0.805434 0.691870 -0.172707
C36   C     C_R   0.154470 0.714088 0.613894 -0.136378
C37   C     C_R   0.101067 0.714096 0.560523 -0.136130
C38   C     C_1   0.770136 0.117362 0.843552 0.199685
C39   C     C_1   0.725582 0.999855 0.347001 0.177830
C40   C     C_3   0.646707 0.752823 0.067800 -0.283203
C41   C     C_R   0.303750 0.993167 0.797211 -0.071650
C42   C     C_R   0.320338 0.085056 0.817736 -0.203533
C43   C     C_R   0.267083 0.085059 0.764499 -0.204241
C44   C     C_R   0.195972 0.993175 0.689474 -0.072639
C45   C     C_2   0.779148 0.942984 0.723086 -0.167684
H1    H     H_    0.373714 0.157314 0.876663 0.156483
H2    H     H_    0.822026 0.923228 0.192848 0.185169
H3    H     H_    0.263142 0.801587 0.729056 0.146498
H4    H     H_    0.742701 0.075562 0.257814 0.126380
H5    H     H_    0.790835 0.594021 0.185830 0.176271
H6    H     H_    0.798826 0.578088 0.343698 0.150054
H7    H     H_    0.709019 0.407023 0.092162 0.179149
H8    H     H_    0.701418 0.421448 0.265052 0.151488
H9    H     H_    0.144922 0.643114 0.594100 0.138319
H10   H     H_    0.050098 0.643126 0.499327 0.138592
H11   H     H_    0.073109 0.801603 0.539136 0.147141
H12   H     H_    0.314657 0.406282 0.698428 0.176509
H13   H     H_    0.280197 0.157319 0.783172 0.156634
H14   H     H_    0.807971 0.901890 0.716486 0.184262
H15   H     H_    0.763288 0.026075 0.684460 0.166656
H16   H     H_    0.673229 0.866139 0.764510 0.175325
H17   H     H_    0.622025 0.744796 0.120005 0.159211
H18   H     H_    0.708034 0.755024 0.068509 0.165320
H19   H     H_    0.595172 0.683789 0.002967 0.186444
H20   H     H_    0.156227 0.421818 0.720044 0.153336
H21   H     H_    0.408178 0.593235 0.803801 0.179638
H22   H     H_    0.234757 0.578464 0.778878 0.150971
H23   H     H_    0.314788 0.105070 0.407886 0.177929
H24   H     H_    0.156177 0.954664 0.234857 0.151751
H25   H     H_    0.408155 0.115658 0.314340 0.179073
H26   H     H_    0.234421 0.937031 0.156217 0.152279
N1    N     N_1   0.819904 0.198968 0.861913 -0.201219
N2    N     N_1   0.675691 0.013196 0.378734 -0.195767
O1    O     O_3   0.500000 0.000000 0.000000 -0.496933
O2    O     O_R   0.054120 0.939900 0.325040 -0.645166
O3    O     O_R   0.884120 0.060070 0.444330 -0.638630
O4    O     O_R   0.325020 0.939940 0.054210 -0.640573
O5    O     O_R   0.175860 0.060090 0.615830 -0.638033
O6    O     O_R   0.884120 0.939900 0.324160 -0.649542
O7    O     O_R   0.055710 0.939940 0.615850 -0.644891
O8    O     O_R   0.885720 0.939940 0.614980 -0.640392
O9    O     O_R   0.174930 0.060060 0.445830 -0.642328
O10   O     O_R   0.054120 0.229160 0.614300 -0.640694
O11   O     O_R   0.885050 0.770830 0.325070 -0.642019
O12   O     O_R   0.614240 0.229150 0.054160 -0.640970
O13   O     O_R   0.614240 0.060060 0.885070 -0.636420
O14   O     O_R   0.614900 0.229170 0.174980 -0.645462
O15   O     O_R   0.445840 0.770840 0.885740 -0.635052
O16   O     O_R   0.615830 0.060100 0.175880 -0.651670
O17   O     O_R   0.324090 0.939910 0.884220 -0.644573
O18   O     O_R   0.615830 0.939930 0.055710 -0.579657
O19   O     O_R   0.444240 0.060060 0.884190 -0.636356
O20   O     O_3   0.660729 0.839515 0.076034 -0.571572
O21   O     O_R   0.325020 0.770840 0.885120 -0.648961
O22   O     O_R   0.445840 0.060100 0.175010 -0.640368
O23   O     O_R   0.614900 0.939900 0.885710 -0.643877
O24   O     O_3   0.999960 0.000000 0.500040 -0.490371
O25   O     O_R   0.174930 0.229160 0.614920 -0.643738
O26   O     O_R   0.885720 0.770850 0.445880 -0.649251
O27   O     O_R   0.885050 0.060100 0.614330 -0.637691
Zn1   Zn    Zn3+2 0.542440 0.085830 0.956610 0.971175
Zn2   Zn    Zn3+2 0.543390 0.085850 0.129220 0.971112
Zn3   Zn    Zn3+2 0.543390 0.914160 0.957530 0.996263
Zn4   Zn    Zn3+2 0.370780 0.914160 0.956640 0.967283
Zn5   Zn    Zn3+2 0.957510 0.914170 0.543430 0.965003
Zn6   Zn    Zn3+2 0.956570 0.085840 0.542520 0.983256
Zn7   Zn    Zn3+2 0.956570 0.914150 0.370820 0.960551
Zn8   Zn    Zn3+2 0.129180 0.085840 0.543400 0.965472

loop_
_geom_bond_atom_site_label_1
_geom_bond_atom_site_label_2
_ccdc_geom_bond_type
C15   C18   S    
C21   C26   S    
C41   C42   A    
O2    Zn7   S    
O16   Zn2   S    
C1    O4    A    
C14   H26   S    
C35   C36   A    
C15   H2    S    
C40   O20   S    
O25   Zn8   S    
C31   O7    A    
C8    H21   S    
C12   C23   A    
C40   H18   S    
C28   O21   A    
C36   C37   A    
C18   C19   D    
C17   C39   S    
C2    H15   S    
C32   O18   A    
C4    O13   A    
C13   H25   S    
C35   H3    S    
O11   Zn7   S    
C40   H17   S    
O5    Zn8   S    
C34   C35   A    
C42   H1    S    
C12   C37   A    
C20   H5    S    
C43   H13   S    
C4    O23   A    
O24   Zn8   S    
C8    C9    D    
C28   O15   A    
C16   O14   A    
C26   O11   A    
C2    C27   S    
O9    Zn8   S    
O22   Zn2   S    
C26   O26   A    
O1    Zn2   S    
O24   Zn5   S    
O21   Zn4   S    
C16   C24   S    
C13   C14   D    
C17   C30   S    
C6    H12   S    
C34   C41   A    
C19   C32   S    
O8    Zn5   S    
C3    H16   S    
C2    C45   D    
O26   Zn5   S    
C38   N1    T    
C27   O27   A    
C31   C44   S    
C27   O8    A    
C33   O19   A    
C6    C8    S    
C24   H8    S    
O7    Zn5   S    
C3    C45   S    
C23   C44   A    
O24   Zn7   S    
C43   C44   A    
C9    H22   S    
C7    H20   S    
O14   Zn2   S    
C30   O3    A    
C19   H4    S    
C32   O16   A    
C1    O22   A    
C23   C34   A    
O6    Zn7   S    
O17   Zn4   S    
C12   H11   S    
O19   Zn1   S    
O1    Zn1   S    
O24   Zn6   S    
C20   C22   S    
C16   O12   A    
C22   C24   D    
C42   C43   A    
C30   O6    A    
C21   H6    S    
O15   Zn3   S    
O12   Zn1   S    
C31   O5    A    
O1    Zn4   S    
C15   C17   D    
C45   H14   S    
O3    Zn6   S    
O18   Zn3   S    
C4    C5    S    
C3    C5    D    
C10   C13   S    
C40   H19   S    
C11   H24   S    
C6    C7    D    
C29   O2    A    
C10   H23   S    
O27   Zn6   S    
C7    C25   S    
O10   Zn6   S    
C33   C41   S    
C29   O9    A    
C33   O17   A    
C22   H7    S    
C39   N2    T    
C36   H9    S    
C10   C11   D    
C37   H10   S    
C25   O25   A    
C20   C21   D    
C11   C29   S    
O23   Zn3   S    
C25   O10   A    
C18   O20   S    
O4    Zn4   S    
C1    C14   S    
C5    C38   S    
O13   Zn1   S    
C9    C28   S    
O1    Zn3   S    
