data_mof_unit_55880.cif
_audit_creation_date              2012-12-10T17:19:23-0500
_audit_creation_method            fapswitch 2.2
_symmetry_space_group_name_H-M    P1
_symmetry_Int_Tables_number       1
_space_group_crystal_system       triclinic
_cell_length_a                    15.063858
_cell_length_b                    10.857118
_cell_length_c                    9.583931
_cell_angle_alpha                 88.630031
_cell_angle_beta                  89.589535
_cell_angle_gamma                 93.188912
_cell_volume                      1564.52159647

loop_
_atom_site_label
_atom_site_type_symbol
_atom_type_description
_atom_site_fract_x
_atom_site_fract_y
_atom_site_fract_z
_atom_type_partial_charge
C1    C     C_R   0.507328 0.262651 0.502333 0.837655
C2    C     C_R   0.907775 0.543914 0.617871 0.074020
C3    C     C_R   0.952626 0.436851 0.258991 -0.187397
C4    C     C_R   0.045062 0.436002 0.259912 -0.172354
C5    C     C_R   0.092475 0.471920 0.378924 0.119395
C6    C     C_R   0.046947 0.509775 0.498532 0.031463
C7    C     C_R   0.094420 0.548165 0.618405 0.064881
C8    C     C_R   0.047542 0.585453 0.736999 0.139857
C9    C     C_R   0.954815 0.581738 0.736100 -0.224922
C10   C     C_R   0.184723 0.469568 0.380533 -0.216692
C11   C     C_R   0.232080 0.505614 0.499362 -0.082121
C12   C     C_R   0.328781 0.501364 0.500157 0.816579
C13   C     C_R   0.187236 0.547434 0.616066 -0.225654
C14   C     C_R   0.495261 0.103960 0.769422 -0.140410
C15   C     C_R   0.455908 0.037192 0.882108 -0.155798
C16   C     C_R   0.412550 0.923146 0.861096 -0.118474
C17   C     C_R   0.416789 0.870234 0.730666 -0.129354
C18   C     C_R   0.464896 0.931705 0.619416 0.093044
C19   C     C_R   0.491707 0.057101 0.632577 0.070515
C20   C     C_R   0.516095 0.127895 0.509198 -0.174377
C21   C     C_R   0.538856 0.065640 0.387217 0.150978
C22   C     C_R   0.527351 0.938264 0.384114 -0.232785
C23   C     C_R   0.494541 0.736921 0.498858 0.782694
C24   C     C_R   0.490210 0.870752 0.498075 -0.142400
C25   C     C_R   0.618082 0.664624 0.139093 -0.210420
C26   C     C_R   0.675788 0.746491 0.065143 -0.212265
C27   C     C_R   0.678215 0.746378 0.920020 0.271576
C28   C     C_R   0.619855 0.664166 0.851082 -0.211188
C29   C     C_R   0.559280 0.580031 0.922771 0.125786
C30   C     C_R   0.558706 0.580365 0.072150 0.203715
C31   C     C_R   0.443295 0.424757 0.077495 -0.075726
C32   C     C_R   0.441053 0.426951 0.929133 0.318210
C33   C     C_R   0.671288 0.501169 0.499511 0.794383
C34   C     C_R   0.815186 0.540398 0.617775 -0.233118
C35   C     C_R   0.768200 0.504120 0.498510 -0.068562
C36   C     C_R   0.813981 0.471216 0.378359 -0.224881
C37   C     C_R   0.906575 0.472388 0.377612 0.106155
C38   C     C_R   0.953789 0.508945 0.497947 0.062078
Cu1   Cu    Cu3+1 0.499990 0.499990 0.640660 0.950591
Cu2   Cu    Cu3+1 0.500010 0.500010 0.359340 0.957524
H1    H     H_    0.779824 0.566968 0.710253 0.155757
H2    H     H_    0.531648 0.188887 0.793858 0.178433
H3    H     H_    0.457360 0.075395 0.985344 0.163270
H4    H     H_    0.378401 0.873688 0.946947 0.153601
H5    H     H_    0.382651 0.780898 0.718281 0.156161
H6    H     H_    0.549990 0.891576 0.292900 0.182289
H7    H     H_    0.397251 0.363356 0.136494 0.147663
H8    H     H_    0.622360 0.672288 0.248975 0.208473
H9    H     H_    0.718142 0.810286 0.123073 0.167088
H10   H     H_    0.624343 0.670850 0.740886 0.195201
H11   H     H_    0.777574 0.442886 0.286208 0.173850
H12   H     H_    0.917129 0.408828 0.165989 0.156735
H13   H     H_    0.079513 0.407105 0.167627 0.163181
H14   H     H_    0.219584 0.438496 0.289563 0.152746
H15   H     H_    0.225474 0.580222 0.703758 0.179526
H16   H     H_    0.919402 0.608498 0.828310 0.165479
N1    N     N_R   0.500860 0.501210 0.147910 -0.201075
N2    N     N_R   0.500890 0.501290 0.852040 -0.206734
O1    O     O_R   0.499990 0.319640 0.618810 -0.583708
O2    O     O_R   0.500000 0.319660 0.381240 -0.546231
O3    O     O_R   0.370250 0.499960 0.618800 -0.550246
O4    O     O_R   0.370260 0.499980 0.381230 -0.585180
O5    O     O_R   0.500000 0.680340 0.618760 -0.607456
O6    O     O_R   0.500010 0.680360 0.381190 -0.598539
O7    O     O_R   0.629740 0.500020 0.618770 -0.604551
O8    O     O_R   0.629750 0.500040 0.381200 -0.590247
N3    N     N_2   0.735822 0.831250 0.840468 -0.421785
H17   H     H_    0.737850 0.816985 0.734449 0.240138
C39   C     C_3   0.821251 0.869047 0.898697 -0.635219
H18   H     H_    0.862467 0.921199 0.818230 0.230769
H19   H     H_    0.856962 0.787175 0.933616 0.224349
H20   H     H_    0.812438 0.931348 0.987240 0.240485
N4    N     N_2   0.374424 0.354244 0.860216 -0.381703
H21   H     H_    0.383499 0.261435 0.869783 0.240873
C40   C     C_3   0.284038 0.380683 0.895962 -0.668963
H22   H     H_    0.264704 0.338045 0.999079 0.198007
H23   H     H_    0.238212 0.341941 0.815960 0.245059
H24   H     H_    0.277135 0.481743 0.899982 0.248582
I1    I     I_    0.109948 0.647839 0.922794 -0.486851
I2    I     I_    0.604974 0.151054 0.209321 -0.431426

loop_
_geom_bond_atom_site_label_1
_geom_bond_atom_site_label_2
_ccdc_geom_bond_type
Cu2   O2    S    
C4    H13   S    
N4    C40   S    
N4    H21   S    
C35   C36   A    
C32   N2    A    
C33   O7    A    
C7    C8    A    
C26   C27   A    
C29   C30   A    
C18   C24   A    
C28   C29   A    
C17   H5    S    
C34   C35   A    
C1    O1    A    
C5    C6    A    
C15   C16   A    
C30   N1    A    
Cu2   O4    S    
C18   C19   A    
C39   H19   S    
C28   H10   S    
C19   C20   A    
C8    C9    A    
C8    I1    S    
C23   C24   S    
C6    C38   A    
C16   H4    S    
C14   H2    S    
C2    C34   A    
C23   O5    A    
Cu2   O8    S    
C21   C22   A    
Cu1   O7    S    
C34   H1    S    
C33   O8    A    
Cu1   O3    S    
N3    H17   S    
C26   H9    S    
Cu1   Cu2   S    
C16   C17   A    
C25   C26   A    
Cu1   N2    S    
N3    C39   S    
C39   H20   S    
C40   H22   S    
C37   C38   A    
C12   O4    A    
C2    C38   A    
C31   C32   A    
C11   C12   S    
Cu1   O1    S    
C17   C18   A    
C9    H16   S    
C20   C21   A    
C40   H23   S    
C25   H8    S    
C36   H11   S    
C23   O6    A    
C22   H6    S    
C22   C24   A    
C1    O2    A    
C3    C4    A    
C32   N4    S    
C25   C30   A    
C36   C37   A    
C1    C20   S    
Cu2   N1    S    
C14   C19   A    
C4    C5    A    
C3    H12   S    
C6    C7    A    
Cu1   O5    S    
Cu2   O6    S    
C31   N1    A    
C15   H3    S    
C5    C10   A    
C12   O3    A    
C11   C13   A    
C21   I2    S    
C33   C35   S    
C39   H18   S    
C10   H14   S    
C40   H24   S    
C27   N3    S    
C10   C11   A    
C7    C13   A    
C29   N2    A    
C3    C37   A    
C27   C28   A    
C14   C15   A    
C31   H7    S    
C2    C9    A    
C13   H15   S    
