data_mof_unit_65132.cif
_audit_creation_date              2012-12-10T17:58:17-0500
_audit_creation_method            fapswitch 2.2
_symmetry_space_group_name_H-M    P1
_symmetry_Int_Tables_number       1
_space_group_crystal_system       triclinic
_cell_length_a                    38.417164
_cell_length_b                    21.646143
_cell_length_c                    21.611798
_cell_angle_alpha                 90.000932
_cell_angle_beta                  123.95108
_cell_angle_gamma                 90.002084
_cell_volume                      14908.0492765

loop_
_atom_site_label
_atom_site_type_symbol
_atom_type_description
_atom_site_fract_x
_atom_site_fract_y
_atom_site_fract_z
_atom_type_partial_charge
C1    C     C_R   0.000438 0.999988 0.120425 0.858693
C2    C     C_R   0.999560 0.999986 0.879576 0.858785
C3    C     C_R   0.500451 0.499987 0.120439 0.858664
C4    C     C_R   0.499552 0.499986 0.879567 0.858710
C5    C     C_3   0.274493 0.996636 0.208141 -0.391712
C6    C     C_3   0.725511 0.996748 0.791867 -0.391730
C7    C     C_3   0.774492 0.497003 0.208124 -0.391736
C8    C     C_3   0.225509 0.497053 0.791878 -0.391744
C9    C     C_3   0.225916 0.996684 0.159563 -0.392734
C10   C     C_3   0.774087 0.996797 0.840438 -0.392736
C11   C     C_3   0.725916 0.497052 0.159548 -0.392728
C12   C     C_3   0.274085 0.497102 0.840451 -0.392722
C13   C     C_1   0.336831 0.999661 0.337576 -0.113355
C14   C     C_1   0.663169 0.999655 0.662427 -0.113350
C15   C     C_1   0.836831 0.499660 0.337575 -0.113353
C16   C     C_1   0.163169 0.499656 0.662426 -0.113350
C17   C     C_1   0.163130 0.999791 0.163857 -0.120453
C18   C     C_1   0.836869 0.999784 0.836129 -0.120434
C19   C     C_1   0.663130 0.499791 0.163860 -0.120448
C20   C     C_1   0.336869 0.499783 0.836135 -0.120436
C21   C     C_1   0.125586 0.999920 0.126034 -0.184858
C22   C     C_1   0.874413 0.999912 0.873957 -0.184824
C23   C     C_1   0.625586 0.499920 0.126036 -0.184852
C24   C     C_1   0.374413 0.499912 0.873961 -0.184841
C25   C     C_R   0.967207 0.024350 0.184404 -0.222676
C26   C     C_R   0.032895 0.024047 0.815712 -0.222764
C27   C     C_R   0.467221 0.524362 0.184415 -0.222611
C28   C     C_R   0.532851 0.524158 0.815666 -0.222677
C29   C     C_R   0.966388 0.023655 0.247334 -0.179128
C30   C     C_R   0.033710 0.023358 0.752779 -0.178905
C31   C     C_R   0.466396 0.523666 0.247339 -0.179083
C32   C     C_R   0.533671 0.523466 0.752738 -0.178925
C33   C     C_R   0.000540 0.999469 0.313620 -0.051906
C34   C     C_R   0.999462 0.999461 0.686389 -0.052015
C35   C     C_R   0.500539 0.499460 0.313622 -0.051879
C36   C     C_R   0.499462 0.499454 0.686385 -0.051992
C37   C     C_R   0.035428 0.975529 0.317180 -0.188890
C38   C     C_R   0.964486 0.975790 0.682744 -0.189113
C39   C     C_R   0.535420 0.475489 0.317180 -0.189064
C40   C     C_R   0.464522 0.475664 0.682771 -0.189098
C41   C     C_R   0.036489 0.975324 0.254031 0.165163
C42   C     C_R   0.963427 0.975583 0.745895 0.165159
C43   C     C_R   0.536484 0.475275 0.254034 0.165200
C44   C     C_R   0.463460 0.475455 0.745919 0.165169
C45   C     C_R   0.081080 0.999991 0.081132 0.894118
C46   C     C_R   0.918919 0.999988 0.918867 0.894166
C47   C     C_R   0.581081 0.499991 0.081133 0.894117
C48   C     C_R   0.418919 0.499988 0.918867 0.894155
C49   C     C_R   0.001789 0.999983 0.187593 -0.033073
C50   C     C_R   0.998216 0.999972 0.812421 -0.032785
C51   C     C_R   0.501798 0.499973 0.187603 -0.033122
C52   C     C_R   0.498209 0.499967 0.812410 -0.032979
C53   C     C_R   0.499999 0.187064 0.500000 -0.064091
C54   C     C_R   0.999998 0.687066 0.500000 -0.064170
C55   C     C_R   0.500001 0.880247 0.500001 0.885306
C56   C     C_R   0.000001 0.380247 0.500001 0.885305
C57   C     C_R   0.418889 0.000084 0.419063 0.917919
C58   C     C_R   0.581110 0.000083 0.580936 0.917915
C59   C     C_R   0.918889 0.500084 0.419063 0.917928
C60   C     C_R   0.081110 0.500084 0.580936 0.917920
C61   C     C_R   0.500000 0.120648 0.500000 0.880528
C62   C     C_R   1.000000 0.620649 0.500000 0.880555
C63   C     C_R   0.999999 0.879868 0.499998 0.899166
C64   C     C_R   0.499999 0.379867 0.499999 0.899088
C65   C     C_R   0.000123 0.999761 0.379564 0.894668
C66   C     C_R   0.999877 0.999763 0.620439 0.894727
C67   C     C_R   0.500123 0.499763 0.379565 0.894636
C68   C     C_R   0.499877 0.499762 0.620437 0.894668
C69   C     C_R   0.000001 0.120547 0.500001 0.890123
C70   C     C_R   0.500001 0.620547 0.500001 0.890108
C71   C     C_R   0.536347 0.782573 0.517556 -0.010445
C72   C     C_R   0.463656 0.782569 0.482443 -0.010448
C73   C     C_R   0.036347 0.282573 0.517554 -0.010443
C74   C     C_R   0.963657 0.282569 0.482445 -0.010444
C75   C     C_R   0.036187 0.218701 0.517800 -0.218741
C76   C     C_R   0.963817 0.218697 0.482202 -0.218750
C77   C     C_R   0.536187 0.718701 0.517803 -0.218744
C78   C     C_R   0.463817 0.718697 0.482200 -0.218748
C79   C     C_3   0.225537 0.943056 0.262575 -0.398000
C80   C     C_3   0.774458 0.942988 0.737509 -0.398004
C81   C     C_3   0.725538 0.442859 0.262266 -0.397987
C82   C     C_3   0.274457 0.442824 0.737770 -0.397991
C83   C     C_R   0.000002 0.186956 0.500002 -0.063860
C84   C     C_R   0.500002 0.686956 0.500003 -0.063862
C85   C     C_R   0.500002 0.814297 0.500000 -0.097686
C86   C     C_R   0.000002 0.314296 0.500000 -0.097686
C87   C     C_R   0.493592 0.218843 0.438053 -0.216673
C88   C     C_R   0.506403 0.218846 0.561945 -0.216670
C89   C     C_R   0.993742 0.718847 0.438165 -0.216641
C90   C     C_R   0.006253 0.718850 0.561832 -0.216638
C91   C     C_R   0.993645 0.782641 0.437759 -0.015440
C92   C     C_R   0.006347 0.782645 0.562235 -0.015463
C93   C     C_R   0.493493 0.282637 0.437646 -0.015449
C94   C     C_R   0.506500 0.282641 0.562349 -0.015471
C95   C     C_R   0.999996 0.814201 0.499997 -0.097261
C96   C     C_R   0.499997 0.314198 0.499998 -0.097319
C97   C     C_3   0.225606 0.059260 0.257467 -0.390793
C98   C     C_3   0.774398 0.059200 0.742425 -0.390818
C99   C     C_3   0.725605 0.559089 0.257795 -0.390827
C100  C     C_3   0.274399 0.559058 0.742159 -0.390839
C101  C     C_3   0.274190 0.059220 0.306046 -0.394904
C102  C     C_3   0.725813 0.059159 0.693851 -0.394895
C103  C     C_3   0.774189 0.559049 0.306373 -0.394873
C104  C     C_3   0.225815 0.559018 0.693583 -0.394869
C105  C     C_1   0.374377 0.999836 0.374893 -0.162765
C106  C     C_1   0.625622 0.999832 0.625109 -0.162755
C107  C     C_1   0.874378 0.499836 0.374893 -0.162763
C108  C     C_1   0.125622 0.499833 0.625108 -0.162755
C109  C     C_3   0.208866 0.999688 0.209705 0.354841
C110  C     C_3   0.791133 0.999682 0.790284 0.354849
C111  C     C_3   0.708867 0.499688 0.209707 0.354844
C112  C     C_3   0.291133 0.499682 0.790288 0.354845
C113  C     C_3   0.274137 0.943010 0.311171 -0.381036
C114  C     C_3   0.725857 0.942941 0.688917 -0.381034
C115  C     C_3   0.774138 0.442812 0.310861 -0.381029
C116  C     C_3   0.225856 0.442778 0.689176 -0.381022
C117  C     C_3   0.291093 0.999614 0.291933 0.347149
C118  C     C_3   0.708907 0.999608 0.708067 0.347143
C119  C     C_3   0.791093 0.499614 0.291933 0.347141
C120  C     C_3   0.208907 0.499609 0.708067 0.347135
H1    H     H_    0.285653 0.944126 0.371218 0.172512
H2    H     H_    0.714338 0.943974 0.628866 0.172529
H3    H     H_    0.785655 0.443663 0.370914 0.172554
H4    H     H_    0.214339 0.443590 0.629122 0.172563
H5    H     H_    0.213915 0.899589 0.229496 0.170573
H6    H     H_    0.786076 0.899558 0.770660 0.170576
H7    H     H_    0.713917 0.399509 0.228949 0.170579
H8    H     H_    0.286075 0.399493 0.771117 0.170579
H9    H     H_    0.285868 0.899523 0.301444 0.175076
H10   H     H_    0.714123 0.899492 0.698717 0.175071
H11   H     H_    0.785870 0.399443 0.300896 0.175039
H12   H     H_    0.214122 0.399427 0.699172 0.175038
H13   H     H_    0.286268 0.036915 0.192922 0.168985
H14   H     H_    0.713739 0.037074 0.807023 0.168986
H15   H     H_    0.786267 0.537430 0.193126 0.168986
H16   H     H_    0.213737 0.537501 0.806849 0.168986
H17   H     H_    0.940692 0.043158 0.132908 0.142889
H18   H     H_    0.059482 0.042632 0.867284 0.142713
H19   H     H_    0.440713 0.543188 0.132923 0.142913
H20   H     H_    0.559409 0.542836 0.867208 0.142790
H21   H     H_    0.939431 0.042613 0.244508 0.157174
H22   H     H_    0.060746 0.042090 0.755696 0.157275
H23   H     H_    0.439441 0.542641 0.244507 0.157156
H24   H     H_    0.560679 0.542291 0.755628 0.157226
H25   H     H_    0.061742 0.956774 0.368983 0.155106
H26   H     H_    0.938096 0.957257 0.630870 0.155207
H27   H     H_    0.561728 0.456725 0.368984 0.155087
H28   H     H_    0.438161 0.457049 0.630920 0.155150
H29   H     H_    0.064104 0.193801 0.531275 0.160692
H30   H     H_    0.935900 0.193793 0.468726 0.160691
H31   H     H_    0.564105 0.693801 0.531279 0.160694
H32   H     H_    0.435899 0.693793 0.468723 0.160695
H33   H     H_    0.488530 0.194123 0.390015 0.165147
H34   H     H_    0.511467 0.194129 0.609984 0.165147
H35   H     H_    0.988797 0.694130 0.390213 0.165195
H36   H     H_    0.011198 0.694136 0.609785 0.165195
H37   H     H_    0.213697 0.944196 0.299269 0.167392
H38   H     H_    0.786295 0.944042 0.700809 0.167406
H39   H     H_    0.713699 0.443732 0.298966 0.167401
H40   H     H_    0.286295 0.443659 0.701068 0.167413
H41   H     H_    0.214037 0.100681 0.220667 0.169436
H42   H     H_    0.785971 0.100665 0.779156 0.169434
H43   H     H_    0.714035 0.600648 0.221222 0.169442
H44   H     H_    0.285973 0.600638 0.778702 0.169439
H45   H     H_    0.213774 0.062438 0.294081 0.166832
H46   H     H_    0.786227 0.062293 0.705802 0.166821
H47   H     H_    0.713774 0.562002 0.294426 0.166816
H48   H     H_    0.286230 0.561931 0.705524 0.166811
H49   H     H_    0.285702 0.062392 0.366001 0.169614
H50   H     H_    0.714300 0.062243 0.633888 0.169616
H51   H     H_    0.785702 0.561955 0.366346 0.169626
H52   H     H_    0.214302 0.561883 0.633607 0.169625
H53   H     H_    0.285957 0.100621 0.292575 0.168532
H54   H     H_    0.714051 0.100603 0.707255 0.168530
H55   H     H_    0.785955 0.600588 0.293129 0.168528
H56   H     H_    0.214053 0.600576 0.706798 0.168525
H57   H     H_    0.214304 0.954167 0.124654 0.169309
H58   H     H_    0.785696 0.954320 0.875416 0.169318
H59   H     H_    0.714304 0.454664 0.124406 0.169303
H60   H     H_    0.285693 0.454732 0.875622 0.169309
H61   H     H_    0.214359 0.036988 0.121014 0.167669
H62   H     H_    0.785648 0.037150 0.878920 0.167679
H63   H     H_    0.714358 0.537504 0.121221 0.167682
H64   H     H_    0.285647 0.537576 0.878750 0.167686
H65   H     H_    0.286219 0.954092 0.196578 0.170562
H66   H     H_    0.713783 0.954244 0.803502 0.170563
H67   H     H_    0.786219 0.454588 0.196328 0.170553
H68   H     H_    0.213780 0.454656 0.803704 0.170555
O1    O     O_R   0.999990 0.948250 0.091620 -0.614121
O2    O     O_R   0.000010 0.948250 0.908380 -0.614104
O3    O     O_R   0.499990 0.448250 0.091620 -0.614104
O4    O     O_R   0.500010 0.448250 0.908380 -0.614062
O5    O     O_R   0.965330 0.999890 0.373740 -0.622538
O6    O     O_R   0.034670 0.999890 0.626260 -0.622619
O7    O     O_R   0.465330 0.499890 0.373740 -0.622492
O8    O     O_R   0.534670 0.499890 0.626260 -0.622544
O9    O     O_R   0.034690 0.999930 0.443090 -0.633608
O10   O     O_R   0.965310 0.999930 0.556910 -0.633639
O11   O     O_R   0.534690 0.499930 0.443090 -0.633626
O12   O     O_R   0.465310 0.499930 0.556910 -0.633648
O13   O     O_R   0.965300 0.091560 0.465360 -0.630143
O14   O     O_R   0.034700 0.091560 0.534640 -0.630115
O15   O     O_R   0.465300 0.591560 0.465360 -0.630140
O16   O     O_R   0.534700 0.591560 0.534640 -0.630121
O17   O     O_R   0.999990 0.051750 0.091660 -0.623680
O18   O     O_R   0.000010 0.051750 0.908340 -0.623694
O19   O     O_R   0.499990 0.551750 0.091660 -0.623673
O20   O     O_R   0.500010 0.551750 0.908340 -0.623678
O21   O     O_R   0.061430 0.948250 0.061430 -0.615168
O22   O     O_R   0.938570 0.948250 0.938570 -0.615096
O23   O     O_R   0.561430 0.448250 0.061430 -0.615181
O24   O     O_R   0.438570 0.448250 0.938570 -0.615123
O25   O     O_R   0.061430 0.051750 0.061470 -0.617380
O26   O     O_R   0.938570 0.051750 0.938530 -0.617444
O27   O     O_R   0.561430 0.551750 0.061470 -0.617383
O28   O     O_R   0.438570 0.551750 0.938530 -0.617417
O29   O     O_R   0.500000 0.908530 0.551740 -0.616978
O30   O     O_R   0.500000 0.908530 0.448260 -0.616980
O31   O     O_R   0.000000 0.408530 0.551740 -0.616977
O32   O     O_R   0.000000 0.408530 0.448260 -0.616980
O33   O     O_R   0.438570 0.000200 0.490320 -0.612621
O34   O     O_R   0.561430 0.000200 0.509680 -0.612627
O35   O     O_R   0.938570 0.500200 0.490320 -0.612630
O36   O     O_R   0.061430 0.500200 0.509680 -0.612635
O37   O     O_R   0.438570 0.000170 0.386880 -0.621428
O38   O     O_R   0.561430 0.000170 0.613120 -0.621432
O39   O     O_R   0.938570 0.500170 0.386880 -0.621414
O40   O     O_R   0.061430 0.500170 0.613120 -0.621416
O41   O     O_R   0.500000 0.091870 0.551750 -0.631408
O42   O     O_R   0.500000 0.091870 0.448250 -0.631411
O43   O     O_R   0.000000 0.591870 0.551750 -0.631424
O44   O     O_R   1.000000 0.591870 0.448250 -0.631429
O45   O     O_R   0.965340 0.908230 0.465340 -0.619696
O46   O     O_R   0.034660 0.908230 0.534660 -0.619731
O47   O     O_R   0.465340 0.408230 0.465340 -0.619692
O48   O     O_R   0.534660 0.408230 0.534660 -0.619715
Zn1   Zn    Zn3+2 1.000000 0.930890 0.000000 0.954489
Zn2   Zn    Zn3+2 0.500000 0.430890 0.000000 0.954526
Zn3   Zn    Zn3+2 0.000000 0.069110 0.000000 0.954875
Zn4   Zn    Zn3+2 0.500000 0.569110 0.000000 0.954876
Zn5   Zn    Zn3+2 0.499990 0.000210 0.569090 0.965430
Zn6   Zn    Zn3+2 0.500010 0.000210 0.430910 0.965421
Zn7   Zn    Zn3+2 0.999990 0.500210 0.569090 0.965432
Zn8   Zn    Zn3+2 0.000010 0.500210 0.430910 0.965420
Zn9   Zn    Zn3+2 0.953690 0.999890 0.453720 0.954562
Zn10  Zn    Zn3+2 0.046310 0.999890 0.546280 0.954538
Zn11  Zn    Zn3+2 0.453690 0.499890 0.453720 0.954583
Zn12  Zn    Zn3+2 0.546310 0.499890 0.546280 0.954569
C121  C     C_3   0.075171 0.950469 0.260146 -0.433609
C122  C     C_3   0.075164 0.879993 0.259714 -0.809299
H69   H     H_    0.075383 0.861763 0.307979 0.252721
H70   H     H_    0.046974 0.862350 0.207213 0.274009
H71   H     H_    0.103594 0.862974 0.263613 0.239441
H72   H     H_    0.077548 0.967453 0.214198 0.201649
H73   H     H_    0.103776 0.967262 0.312727 0.197246
C123  C     C_3   0.924661 0.951010 0.739695 -0.433724
C124  C     C_3   0.924443 0.880535 0.739956 -0.809563
H74   H     H_    0.924260 0.862267 0.691740 0.252789
H75   H     H_    0.952529 0.862721 0.792486 0.274018
H76   H     H_    0.895908 0.863732 0.735837 0.239451
H77   H     H_    0.922331 0.968043 0.785677 0.201463
H78   H     H_    0.896113 0.967974 0.687149 0.197322
C125  C     C_3   0.575160 0.450380 0.260159 -0.433584
C126  C     C_3   0.575136 0.379902 0.259744 -0.809396
H79   H     H_    0.575305 0.361692 0.307966 0.252699
H80   H     H_    0.546967 0.362260 0.207211 0.273982
H81   H     H_    0.603589 0.362862 0.263740 0.239442
H82   H     H_    0.577545 0.467336 0.214211 0.201660
H83   H     H_    0.603769 0.467166 0.312737 0.197244
C127  C     C_3   0.424724 0.450762 0.739742 -0.433648
C128  C     C_3   0.424571 0.380286 0.739983 -0.809555
H84   H     H_    0.424267 0.362077 0.691627 0.252644
H85   H     H_    0.452739 0.362491 0.792403 0.273983
H86   H     H_    0.396118 0.363401 0.736102 0.239489
H87   H     H_    0.422390 0.467728 0.785743 0.201560
H88   H     H_    0.396153 0.467699 0.687213 0.197288
C129  C     C_1   0.574183 0.814609 0.536685 0.148190
N1    N     N_1   0.604446 0.840267 0.552019 -0.217853
C130  C     C_1   0.425821 0.814600 0.463316 0.148197
N2    N     N_1   0.395558 0.840254 0.447980 -0.217853
C131  C     C_1   0.074183 0.314609 0.536681 0.148191
N3    N     N_1   0.104445 0.340267 0.552014 -0.217851
C132  C     C_1   0.925821 0.314600 0.463320 0.148194
N4    N     N_1   0.895559 0.340254 0.447985 -0.217852
C133  C     C_1   0.987436 0.814758 0.373591 0.138384
N5    N     N_1   0.982487 0.840428 0.322274 -0.205394
C134  C     C_1   0.012553 0.814767 0.626400 0.138465
N6    N     N_1   0.017498 0.840441 0.677712 -0.205291
C135  C     C_1   0.487134 0.314755 0.373364 0.138476
N7    N     N_1   0.482066 0.340428 0.321959 -0.205263
C136  C     C_1   0.512857 0.314763 0.626629 0.138538
N8    N     N_1   0.517923 0.340439 0.678033 -0.205178

loop_
_geom_bond_atom_site_label_1
_geom_bond_atom_site_label_2
_ccdc_geom_bond_type
C80   C110  S    
C102  H50   S    
C128  H86   S    
C57   C105  S    
C66   O10   A    
C48   O28   A    
C69   O13   A    
C81   H39   S    
C123  H78   S    
C8    H16   S    
C27   H19   S    
C59   C107  S    
C82   H40   S    
O48   Zn12  S    
C101  H53   S    
C136  N8    T    
C28   H20   S    
C5    H65   S    
O1    Zn1   S    
C77   H31   S    
C3    O19   A    
C72   C85   A    
C58   O34   A    
C78   H32   S    
C125  C126  S    
C55   O29   A    
O33   Zn5   S    
C8    H68   S    
C5    H13   S    
O32   Zn8   S    
C121  C122  S    
C71   C129  S    
C74   C76   A    
C4    C52   S    
C37   C41   A    
C98   C110  S    
C60   O40   A    
C32   C36   A    
C7    H67   S    
C114  C118  S    
O21   Zn1   S    
C102  H54   S    
C54   C90   A    
C67   O11   A    
C26   C50   A    
C115  H11   S    
C89   H35   S    
O10   Zn9   S    
C122  H70   S    
C128  H84   S    
C63   C95   S    
O9    Zn10  S    
C100  C104  S    
C97   C109  S    
O12   Zn11  S    
C25   C29   A    
C47   O23   A    
C113  C117  S    
C41   C49   A    
O17   Zn3   S    
C4    O4    A    
C38   H26   S    
C72   C78   A    
C2    C50   S    
C9    H57   S    
C66   O6    A    
C43   C51   A    
C71   C85   A    
C90   C92   A    
C24   C48   S    
C75   C83   A    
C48   O24   A    
C29   C33   A    
O35   Zn7   S    
C126  H79   S    
C46   O26   A    
C56   O32   A    
C47   O27   A    
O24   Zn2   S    
C45   O25   A    
C130  N2    T    
C87   H33   S    
C101  H49   S    
O18   Zn3   S    
C2    O18   A    
C35   C67   S    
C89   C91   A    
C70   C84   S    
C65   O5    A    
C60   C108  S    
C26   H18   S    
C104  H52   S    
C57   O37   A    
C44   C52   A    
O3    Zn2   S    
C79   H5    S    
C99   C111  S    
C69   O14   A    
C18   C22   T    
C129  N1    T    
O8    Zn12  S    
C103  H51   S    
C114  H10   S    
C34   C66   S    
O2    Zn1   S    
C53   C61   S    
C53   C87   A    
C92   C134  S    
C67   O7    A    
O37   Zn6   S    
C60   O36   A    
C76   C83   A    
O47   Zn11  S    
C34   C38   A    
C98   H42   S    
C27   C51   A    
C7    C11   S    
C55   O30   A    
C99   H47   S    
C70   O16   A    
C125  H82   S    
O14   Zn10  S    
C88   C94   A    
C12   C112  S    
C115  H3    S    
C79   H37   S    
C79   C109  S    
C33   C65   S    
C10   H58   S    
O22   Zn1   S    
C127  H88   S    
C28   C32   A    
O13   Zn9   S    
O20   Zn4   S    
C64   C96   S    
C54   C89   A    
C100  H44   S    
C99   C103  S    
C121  H72   S    
O39   Zn8   S    
C30   C34   A    
C19   C23   T    
O36   Zn8   S    
C4    O20   A    
C57   O33   A    
C54   C62   S    
C77   C84   A    
O25   Zn3   S    
C131  N3    T    
C98   C102  S    
C81   C111  S    
C27   C31   A    
C92   C95   A    
C45   O21   A    
C25   H17   S    
C116  C120  S    
C5    C117  S    
C21   C45   S    
C9    C109  S    
O28   Zn4   S    
C58   O38   A    
C55   C85   S    
C35   C39   A    
C17   C21   T    
C5    C9    S    
C133  N5    T    
C69   C83   S    
C7    C119  S    
C63   O45   A    
C122  H71   S    
O41   Zn5   S    
C58   C106  S    
C97   C101  S    
C80   H38   S    
C134  N6    T    
C116  H12   S    
C36   C40   A    
C8    C12   S    
C29   H21   S    
C123  C124  S    
C81   C115  S    
C124  H74   S    
C103  H55   S    
C61   O42   A    
O23   Zn2   S    
C11   H63   S    
C68   O8    A    
C98   H46   S    
C125  H83   S    
C56   C86   S    
C94   C96   A    
C104  H56   S    
C88   H34   S    
C82   H8    S    
C100  H48   S    
O16   Zn12  S    
C113  H9    S    
O11   Zn12  S    
C64   O47   A    
C65   O9    A    
O19   Zn4   S    
C13   C105  T    
C12   H60   S    
C42   C50   A    
C74   C132  S    
C14   C118  S    
C93   C96   A    
C115  C119  S    
C79   C113  S    
C42   C123  S    
C10   H62   S    
C99   H43   S    
C91   C133  S    
C11   H59   S    
C73   C75   A    
C41   C121  S    
O34   Zn6   S    
C113  H1    S    
C71   C77   A    
C59   O39   A    
C80   H6    S    
C8    C120  S    
C14   C106  T    
C33   C37   A    
C44   C127  S    
C73   C131  S    
C70   O15   A    
C128  H85   S    
C40   H28   S    
C3    C51   S    
C116  H4    S    
C121  H73   S    
C22   C46   S    
O44   Zn8   S    
C127  H87   S    
C17   C109  S    
C103  C119  S    
C18   C110  S    
C80   C114  S    
O31   Zn7   S    
O38   Zn5   S    
C102  C118  S    
C6    C10   S    
C13   C117  S    
C61   O41   A    
C36   C68   S    
C64   O48   A    
O4    Zn2   S    
C6    C118  S    
C19   C111  S    
C74   C86   A    
O15   Zn11  S    
C2    O2    A    
C6    H66   S    
C62   O44   A    
C30   H22   S    
C93   C135  S    
C68   O12   A    
C124  H76   S    
C37   H25   S    
C72   C130  S    
C23   C47   S    
C16   C120  S    
O26   Zn3   S    
C122  H69   S    
C101  C117  S    
C6    H14   S    
C46   O22   A    
O46   Zn10  S    
C63   O46   A    
C43   C125  S    
O42   Zn6   S    
C28   C52   A    
O45   Zn9   S    
C100  C112  S    
C12   H64   S    
O40   Zn7   S    
O7    Zn11  S    
C75   H29   S    
C126  H81   S    
C97   H45   S    
C87   C93   A    
C31   C35   A    
C1    C49   S    
C1    O17   A    
C15   C119  S    
C10   C110  S    
C53   C88   A    
C59   O35   A    
O30   Zn6   S    
C31   H23   S    
C3    O3    A    
C25   C49   A    
C73   C86   A    
C32   H24   S    
C9    H61   S    
C7    H15   S    
C16   C108  T    
O29   Zn5   S    
C82   C116  S    
C114  H2    S    
C38   C42   A    
C78   C84   A    
O43   Zn7   S    
C40   C44   A    
C76   H30   S    
C39   C43   A    
C91   C95   A    
C126  H80   S    
C62   O43   A    
O6    Zn10  S    
C20   C112  S    
C39   H27   S    
C132  N4    T    
C11   C111  S    
O5    Zn9   S    
C127  C128  S    
C135  N7    T    
O27   Zn4   S    
C15   C107  T    
C124  H75   S    
C123  H77   S    
C90   H36   S    
C20   C24   T    
C56   O31   A    
C81   H7    S    
C94   C136  S    
C97   H41   S    
C82   C112  S    
C104  C120  S    
C26   C30   A    
C1    O1    A    
