data_mof_unit_15850.cif
_audit_creation_date              2012-12-11T15:30:35-0500
_audit_creation_method            fapswitch 2.2
_symmetry_space_group_name_H-M    P1
_symmetry_Int_Tables_number       1
_space_group_crystal_system       triclinic
_cell_length_a                    6.965915
_cell_length_b                    20.426521
_cell_length_c                    24.440855
_cell_angle_alpha                 89.778149
_cell_angle_beta                  90.339126
_cell_angle_gamma                 89.951942
_cell_volume                      3477.58653736

loop_
_atom_site_label
_atom_site_type_symbol
_atom_type_description
_atom_site_fract_x
_atom_site_fract_y
_atom_site_fract_z
_atom_type_partial_charge
O1    O     O_R   0.507310 0.423620 0.460450 -0.536185
O2    O     O_R   0.170760 0.556060 0.437190 -0.540549
O3    O     O_R   0.004040 0.576380 0.539550 -0.537948
C1    C     C_R   0.339514 0.575947 0.421196 0.737629
O4    O     O_R   0.177350 0.422870 0.454070 -0.545864
O5    O     O_R   0.010680 0.442240 0.556560 -0.529898
C2    C     C_R   0.345537 0.398637 0.443569 0.862537
O6    O     O_R   0.500670 0.557760 0.443440 -0.532991
O7    O     O_3   0.340380 0.506510 0.533610 -0.370702
V1    V     V_3+5 0.064130 0.498790 0.493770 1.424037
O8    O     O_R   0.681170 0.443940 0.562810 -0.537784
C3    C     C_R   0.850110 0.424383 0.578955 0.712451
O9    O     O_R   0.674570 0.577130 0.545930 -0.538698
C4    C     C_R   0.843086 0.601133 0.556500 0.691695
V2    V     V_3+5 0.564560 0.501210 0.506230 1.441075
O10   O     O_3   0.838170 0.493490 0.466390 -0.371791
C5    C     C_R   0.970888 0.838441 0.910473 -0.080581
C6    C     C_R   0.847949 0.661732 0.589043 -0.046158
C7    C     C_R   0.964964 0.719364 0.911074 0.177887
C8    C     C_R   0.957829 0.779332 0.938519 -0.223595
C9    C     C_R   0.980201 0.838824 0.852777 0.127136
C10   C     C_R   0.949341 0.778998 0.823331 -0.017711
C11   C     C_R   0.965997 0.718417 0.852514 -0.013881
C12   C     C_R   0.901188 0.777164 0.766161 0.069929
C13   C     C_R   0.923115 0.718113 0.735814 -0.007888
C14   C     C_R   0.976253 0.661349 0.764716 -0.277890
C15   C     C_R   0.982012 0.659437 0.822096 0.461846
C16   C     C_R   0.814200 0.831146 0.739840 -0.177092
C17   C     C_R   0.772962 0.830574 0.684259 -0.215487
C18   C     C_R   0.807757 0.774901 0.653011 0.145382
C19   C     C_R   0.881945 0.717257 0.678065 0.113560
C20   C     C_R   0.759114 0.775681 0.597227 -0.166760
C21   C     C_R   0.776999 0.719436 0.565770 -0.169724
C22   C     C_R   0.902982 0.660729 0.644525 -0.217532
H1    H     H_    0.955386 0.614731 0.660335 0.095882
H2    H     H_    0.732040 0.720572 0.523253 0.106735
H3    H     H_    0.708352 0.873712 0.665834 0.119540
H4    H     H_    0.951937 0.780265 0.982863 0.109068
H5    H     H_    0.006059 0.616240 0.743925 0.136800
H6    H     H_    0.769291 0.873794 0.762379 0.143534
H7    H     H_    0.701446 0.819558 0.578194 0.114350
C23   C     C_3   0.769601 0.260067 0.805780 0.377399
C24   C     C_3   0.123552 0.243375 0.778758 -0.060959
C25   C     C_3   0.096104 0.293399 0.731048 -0.388900
H8    H     H_    0.226139 0.205247 0.764564 0.138287
H9    H     H_    0.134854 0.343768 0.744035 0.178881
H10   H     H_    0.200136 0.282848 0.698025 0.142867
C26   C     C_1   0.859849 0.379047 0.624728 -0.209880
C27   C     C_3   0.928487 0.208341 0.792297 0.068698
C28   C     C_3   0.751253 0.311691 0.757820 -0.069742
C29   C     C_3   0.886330 0.292362 0.708831 0.142417
C30   C     C_3   0.835166 0.219718 0.689568 0.214226
C31   C     C_3   0.865163 0.170533 0.739654 0.226042
C32   C     C_1   0.869788 0.340427 0.662593 -0.013322
C33   C     C_1   0.951134 0.160485 0.838308 0.036628
C34   C     C_1   0.963819 0.121692 0.875935 -0.202472
H11   H     H_    0.988083 0.137000 0.730385 0.071664
H12   H     H_    0.629784 0.233459 0.807180 0.073534
H13   H     H_    0.600879 0.310668 0.742656 0.104623
C35   C     C_3   0.606560 0.731337 0.288022 -0.366186
C36   C     C_3   0.340124 0.674965 0.236162 -0.414533
C37   C     C_3   0.339959 0.726112 0.188227 0.355260
H14   H     H_    0.702946 0.687828 0.290060 0.153163
H15   H     H_    0.195522 0.652036 0.238779 0.134620
H16   H     H_    0.444026 0.634912 0.227584 0.210728
H17   H     H_    0.188780 0.739138 0.178878 0.068157
C38   C     C_1   0.473479 0.878116 0.124202 -0.204588
C39   C     C_3   0.393444 0.707842 0.291622 0.104154
C40   C     C_3   0.645594 0.770659 0.233608 0.864397
C41   C     C_3   0.441937 0.790872 0.207669 0.044830
C42   C     C_3   0.302281 0.819540 0.251775 -0.503953
C43   C     C_3   0.259180 0.768672 0.297921 0.028215
C44   C     C_1   0.459596 0.839128 0.161764 -0.026116
C45   C     C_1   0.368633 0.659838 0.337492 -0.011232
C46   C     C_1   0.351492 0.621321 0.375310 -0.183641
H18   H     H_    0.108526 0.751515 0.292079 0.179511
H19   H     H_    0.351330 0.866583 0.268774 0.178129
H20   H     H_    0.645527 0.759892 0.324825 0.133248
H21   H     H_    0.163957 0.832851 0.231617 0.191950
C47   C     C_R   0.472362 0.162233 0.088413 -0.041673
C48   C     C_R   0.348233 0.337770 0.410658 -0.347207
C49   C     C_R   0.475492 0.280473 0.090564 -0.130389
C50   C     C_R   0.484041 0.222265 0.061232 -0.169545
C51   C     C_R   0.458149 0.160719 0.145775 -0.192475
C52   C     C_R   0.452759 0.219627 0.176912 0.087375
C53   C     C_R   0.456579 0.279667 0.147756 0.064741
C54   C     C_R   0.436253 0.221041 0.235462 -0.044522
C55   C     C_R   0.413388 0.282075 0.263599 -0.015198
C56   C     C_R   0.395901 0.340052 0.231356 0.508060
C57   C     C_R   0.430672 0.338573 0.175238 -0.315671
C58   C     C_R   0.441677 0.163092 0.266738 -0.172869
C59   C     C_R   0.393972 0.162355 0.322130 0.189931
C60   C     C_R   0.346869 0.221750 0.348576 -0.122937
C61   C     C_R   0.391520 0.281853 0.322235 -0.110334
C62   C     C_R   0.262130 0.222989 0.401310 0.404511
C63   C     C_R   0.263918 0.280948 0.432156 0.297241
C64   C     C_R   0.416821 0.338126 0.356426 0.395778
H22   H     H_    0.422890 0.384096 0.152334 0.149995
H23   H     H_    0.479782 0.326426 0.068279 0.111891
H24   H     H_    0.496854 0.224042 0.017084 0.093541
H25   H     H_    0.446882 0.112997 0.164422 0.086558
H26   H     H_    0.480702 0.116966 0.248710 0.116330
O11   O     O_R   0.323590 0.942280 0.056590 -0.534679
O12   O     O_R   0.647030 0.077140 0.045940 -0.538416
O13   O     O_R   0.813570 0.057750 0.943430 -0.533301
C65   C     C_R   0.478683 0.101215 0.056461 0.690175
O14   O     O_R   0.653510 0.943950 0.062820 -0.537959
O15   O     O_R   0.820100 0.923600 0.960440 -0.537177
C66   C     C_R   0.484803 0.923920 0.078678 0.723515
O16   O     O_R   0.317060 0.076430 0.039590 -0.534709
O17   O     O_3   0.483830 0.993520 0.966410 -0.366674
V3    V     V_3+5 0.760140 0.001200 0.006230 1.418677
O18   O     O_R   0.149560 0.922820 0.954030 -0.538967
C67   C     C_R   0.980645 0.899153 0.943117 0.720292
O19   O     O_R   0.143080 0.056020 0.937150 -0.538209
C68   C     C_R   0.974163 0.076046 0.921377 0.724396
V4    V     V_3+5 0.259690 0.998730 0.993720 1.418256
O20   O     O_3   0.986120 0.006480 0.033580 -0.367217
O21   O     O_3   0.026154 0.600692 0.847884 -0.553717
C69   C     C_3   0.881434 0.553862 0.837248 -0.278959
H27   H     H_    0.900843 0.531314 0.796389 0.143109
H28   H     H_    0.734259 0.574808 0.840918 0.139487
H29   H     H_    0.894316 0.514022 0.868029 0.172106
C70   C     C_3   0.775952 0.383130 0.777532 -0.701456
H30   H     H_    0.759752 0.418239 0.743059 0.186531
H31   H     H_    0.662459 0.394934 0.807700 0.214011
H32   H     H_    0.916970 0.391285 0.797542 0.226607
O22   O     O_3   0.812615 0.291140 0.856473 -0.543100
C71   C     C_3   0.684660 0.272746 0.898375 -0.280111
H33   H     H_    0.655837 0.219183 0.899217 0.135102
H34   H     H_    0.548960 0.300730 0.894449 0.145226
H35   H     H_    0.750258 0.285724 0.938341 0.166985
C72   C     C_3   0.222685 0.276127 0.827946 -0.702377
H36   H     H_    0.139337 0.317655 0.844313 0.259182
H37   H     H_    0.251410 0.240052 0.861070 0.204824
H38   H     H_    0.361120 0.296976 0.814463 0.176645
O23   O     O_3   0.694707 0.134446 0.751039 -0.555031
C73   C     C_3   0.711734 0.068739 0.734097 -0.259275
H39   H     H_    0.572059 0.043884 0.740412 0.161411
H40   H     H_    0.821594 0.042551 0.759124 0.135578
H41   H     H_    0.747067 0.065556 0.689866 0.135350
C74   C     C_3   0.625636 0.216250 0.666853 -0.665962
H42   H     H_    0.517119 0.222580 0.699342 0.189753
H43   H     H_    0.599992 0.253921 0.634768 0.194256
H44   H     H_    0.596712 0.167796 0.648041 0.218211
C75   C     C_3   0.966730 0.197562 0.641805 -0.767898
H45   H     H_    0.923025 0.148436 0.626867 0.205096
H46   H     H_    0.957617 0.231980 0.606700 0.224509
H47   H     H_    0.119163 0.193081 0.654570 0.190899
O24   O     O_3   0.738140 0.724403 0.198679 -0.550761
C76   C     C_3   0.819869 0.752086 0.150817 -0.137074
H48   H     H_    0.912849 0.795063 0.158926 0.136297
H49   H     H_    0.710648 0.764926 0.119666 0.168074
H50   H     H_    0.909115 0.713971 0.131424 0.118108
O25   O     O_3   0.430269 0.699308 0.141459 -0.531130
C77   C     C_3   0.297395 0.665750 0.108062 -0.251326
H51   H     H_    0.205771 0.701268 0.085331 0.121334
H52   H     H_    0.207768 0.630967 0.132010 0.138191
H53   H     H_    0.377968 0.636894 0.077447 0.169413
C78   C     C_3   0.264199 0.800549 0.354936 -0.779241
H54   H     H_    0.409734 0.817813 0.366103 0.207536
H55   H     H_    0.165007 0.843159 0.355587 0.214385
H56   H     H_    0.214902 0.765418 0.386628 0.209149
O26   O     O_3   0.781039 0.822322 0.243302 -0.575336
C79   C     C_3   0.714239 0.877886 0.271216 -0.365201
H57   H     H_    0.637608 0.865735 0.309358 0.143501
H58   H     H_    0.629361 0.909915 0.243464 0.158749
H59   H     H_    0.841182 0.907015 0.283832 0.175027
O27   O     O_3   0.517885 0.392493 0.339006 -0.516597
C80   C     C_3   0.715627 0.378329 0.342260 -0.163734
H60   H     H_    0.755544 0.338157 0.313914 0.105386
H61   H     H_    0.759762 0.365770 0.384814 0.110527
H62   H     H_    0.796480 0.422715 0.330093 0.147549
O28   O     O_3   0.207446 0.280134 0.486423 -0.540933
C81   C     C_3   0.005484 0.283229 0.489674 -0.134836
H63   H     H_    0.937079 0.311725 0.455837 0.084625
H64   H     H_    0.967313 0.307871 0.528299 0.127546
H65   H     H_    0.944527 0.233174 0.491844 0.160075
C82   C     C_3   0.415986 0.098394 0.353017 -0.722692
H66   H     H_    0.510312 0.063647 0.330879 0.169397
H67   H     H_    0.274928 0.074246 0.358313 0.223958
H68   H     H_    0.484365 0.106938 0.393526 0.223303
O29   O     O_3   0.330432 0.398366 0.252711 -0.517425
C83   C     C_3   0.128290 0.398639 0.250068 -0.210227
H69   H     H_    0.066688 0.357391 0.274029 0.105848
H70   H     H_    0.076197 0.396866 0.206954 0.129530
H71   H     H_    0.075668 0.444943 0.268193 0.159801
O30   O     O_3   0.171533 0.168521 0.422910 -0.532864
C84   C     C_3   0.992333 0.160655 0.396076 -0.257690
H72   H     H_    0.010256 0.146052 0.352666 0.142634
H73   H     H_    0.903195 0.205860 0.397637 0.111025
H74   H     H_    0.911565 0.121133 0.416976 0.162926
C85   C     C_3   0.963929 0.658359 0.946295 -0.691949
H75   H     H_    0.949596 0.669810 0.990497 0.168640
H76   H     H_    0.839896 0.626982 0.935182 0.217805
H77   H     H_    0.101104 0.631313 0.941793 0.236765
C86   C     C_3   0.050938 0.900842 0.825137 -0.816165
H78   H     H_    0.098725 0.892364 0.782578 0.219059
H79   H     H_    0.937930 0.939195 0.826078 0.185991
H80   H     H_    0.180005 0.919593 0.846811 0.214423

loop_
_geom_bond_atom_site_label_1
_geom_bond_atom_site_label_2
_ccdc_geom_bond_type
C13   C19   A    
V3    O20   S    
C54   C55   A    
C79   H57   S    
C54   C58   A    
C84   H74   S    
C49   H23   S    
C4    C6    S    
O13   C68   A    
O2    C1    A    
C62   C63   A    
C40   O26   S    
C42   H19   S    
C3    C26   S    
O22   C71   S    
C23   H12   S    
C42   H21   S    
C81   H64   S    
O11   V4    S    
C52   C53   A    
C83   H69   S    
C86   H80   S    
C26   C32   T    
C35   H20   S    
C14   C15   A    
C60   C61   A    
C63   O28   S    
C35   H14   S    
C31   O23   S    
C40   O24   S    
C56   O29   S    
C10   C12   A    
C70   H31   S    
C16   C17   A    
C71   H33   S    
O5    C3    A    
C18   C19   A    
C14   H5    S    
C80   H60   S    
C16   H6    S    
C39   C45   S    
V2    O10   S    
C47   C65   S    
C21   H2    S    
C64   O27   S    
C37   O25   S    
C37   C41   S    
C24   C72   S    
C22   H1    S    
O27   C80   S    
C76   H50   S    
O15   C67   A    
C86   H79   S    
O28   C81   S    
C1    C46   S    
O18   C67   A    
O8    V2    S    
C38   C66   S    
C7    C8    A    
C69   H28   S    
O19   V4    S    
C5    C67   S    
C72   H38   S    
C76   H48   S    
C41   C42   S    
O1    V2    S    
C11   C15   A    
O7    V1    S    
C85   H75   S    
C69   H29   S    
C1    O6    A    
C71   H35   S    
C79   H58   S    
O1    C2    A    
O9    C4    A    
C72   H37   S    
C51   H25   S    
O14   C66   A    
C74   H44   S    
C40   C41   S    
C41   C44   S    
C47   C50   A    
O16   V4    S    
O12   C65   A    
C25   H9    S    
C62   O30   S    
C81   H65   S    
C75   H46   S    
C52   C54   A    
C55   C61   A    
C45   C46   T    
C37   H17   S    
C29   C30   S    
C78   H56   S    
C28   C70   S    
C12   C13   A    
C53   C57   A    
C47   C51   A    
O12   V3    S    
C48   C63   A    
C31   H11   S    
C24   C27   S    
C61   C64   A    
C85   H76   S    
C13   C14   A    
C49   C53   A    
C30   C74   S    
O15   V3    S    
O30   C84   S    
C78   H55   S    
C36   H15   S    
C7    C11   A    
C24   C25   S    
O29   C83   S    
C17   C18   A    
C59   C82   S    
C75   H47   S    
C8    H4    S    
C86   H78   S    
C39   C43   S    
C85   H77   S    
C33   C34   T    
C28   C29   S    
C34   C68   S    
C19   C22   A    
C43   H18   S    
O14   V3    S    
C30   C31   S    
C51   C52   A    
O21   C69   S    
C6    C22   A    
O3    C4    A    
C73   H40   S    
C23   C28   S    
C70   H32   S    
C38   C44   T    
C25   C29   S    
C2    C48   S    
O13   V3    S    
C7    C85   S    
C79   H59   S    
C15   O21   S    
C50   H24   S    
O9    V2    S    
C72   H36   S    
O18   V4    S    
C28   H13   S    
C58   H26   S    
O2    V1    S    
C58   C59   A    
C69   H27   S    
O4    C2    A    
C75   H45   S    
C65   O16   A    
C84   H72   S    
O26   C79   S    
C30   C75   S    
O17   V3    S    
C74   H42   S    
C5    C8    A    
C20   H7    S    
C77   H53   S    
C12   C16   A    
C9    C86   S    
C73   H41   S    
O5    V1    S    
O8    C3    A    
C25   H10   S    
C23   O22   S    
O6    V2    S    
O23   C73   S    
C43   C78   S    
C83   H71   S    
O17   V4    S    
O11   C66   A    
C29   C32   S    
C78   H54   S    
C82   H68   S    
C77   H52   S    
O7    V2    S    
C42   C43   S    
C24   H8    S    
C81   H63   S    
C27   C33   S    
V4    O20   S    
C20   C21   A    
C18   C20   A    
C36   C39   S    
C80   H61   S    
C35   C40   S    
C27   C31   S    
C71   H34   S    
C59   C60   A    
C48   C64   A    
C83   H70   S    
C74   H43   S    
C76   H49   S    
C36   C37   S    
C6    C21   A    
C5    C9    A    
C73   H39   S    
C23   C27   S    
C82   H66   S    
C36   H16   S    
O4    V1    S    
C77   H51   S    
C55   C56   A    
C35   C39   S    
C60   C62   A    
C49   C50   A    
C17   H3    S    
O25   C77   S    
O3    V1    S    
C10   C11   A    
C70   H30   S    
V1    O10   S    
C84   H73   S    
C56   C57   A    
C9    C10   A    
C57   H22   S    
O19   C68   A    
O24   C76   S    
C82   H67   S    
C80   H62   S    
