data_mof_unit_41446.cif
_audit_creation_date              2012-12-10T16:43:27-0500
_audit_creation_method            fapswitch 2.2
_symmetry_space_group_name_H-M    P1
_symmetry_Int_Tables_number       1
_space_group_crystal_system       triclinic
_cell_length_a                    10.770562
_cell_length_b                    8.755855
_cell_length_c                    7.539941
_cell_angle_alpha                 102.616647
_cell_angle_beta                  95.224615
_cell_angle_gamma                 93.97847
_cell_volume                      688.083470085

loop_
_atom_site_label
_atom_site_type_symbol
_atom_type_description
_atom_site_fract_x
_atom_site_fract_y
_atom_site_fract_z
_atom_type_partial_charge
C1    C     C_R   0.494779 0.200612 0.454643 0.847364
C2    C     C_R   0.505672 0.799425 0.545428 0.828160
C3    C     C_R   0.737331 0.506431 0.500216 0.772885
C4    C     C_R   0.158818 0.756905 0.756713 -0.128814
C5    C     C_R   0.107287 0.872130 0.879061 -0.119941
C6    C     C_R   0.978343 0.875449 0.873229 -0.126944
C7    C     C_R   0.899854 0.761456 0.747122 -0.143558
C8    C     C_R   0.949620 0.638296 0.627644 0.077533
C9    C     C_3   0.275000 0.286736 0.998652 -0.538106
C10   C     C_R   0.081076 0.636724 0.631027 0.079944
C11   C     C_R   0.130078 0.517253 0.504858 -0.072105
C12   C     C_R   0.050636 0.405812 0.375775 -0.203427
C13   C     C_R   0.922634 0.406581 0.373874 -0.167496
C14   C     C_R   0.871810 0.519018 0.500864 -0.086743
C15   C     C_2   0.476228 0.034014 0.434110 0.096277
C16   C     C_2   0.524646 0.966066 0.566253 0.106322
C17   C     C_R   0.263271 0.505784 0.501735 0.756150
Cl1   Cl    Cl    0.372041 0.933402 0.241237 -0.650802
Cl2   Cl    Cl    0.629431 0.066288 0.758999 -0.599335
Cu1   Cu    Cu3+1 0.513920 0.517380 0.684380 1.015821
Cu2   Cu    Cu3+1 0.486080 0.482620 0.315620 1.034364
H1    H     H_    0.087938 0.314749 0.278890 0.144988
H2    H     H_    0.218869 0.389469 0.025804 0.220714
H3    H     H_    0.292306 0.236565 0.119698 0.263384
H4    H     H_    0.591873 0.631547 0.051270 0.219462
H5    H     H_    0.259529 0.765408 0.761321 0.185031
H6    H     H_    0.167651 0.960669 0.977362 0.184096
H7    H     H_    0.938977 0.967791 0.965429 0.163253
H8    H     H_    0.800508 0.773042 0.743161 0.174249
H9    H     H_    0.862816 0.316042 0.275930 0.174479
H10   H     H_    0.367726 0.332970 0.799616 0.297579
H11   H     H_    0.217887 0.194348 0.892352 0.160836
N1    N     N_2   0.465100 0.456430 0.038520 0.025986
N2    N     N_2   0.534900 0.543570 0.961480 -0.159558
N3    N     N_2   0.390281 0.328729 0.930127 -0.242877
O1    O     O_R   0.509050 0.286130 0.619770 -0.569553
O2    O     O_R   0.485540 0.256780 0.308360 -0.536137
O3    O     O_R   0.331410 0.514680 0.655740 -0.627999
O4    O     O_R   0.307900 0.485330 0.344330 -0.579578
O5    O     O_R   0.514460 0.743220 0.691640 -0.560131
O6    O     O_R   0.490950 0.713870 0.380230 -0.557182
O7    O     O_R   0.692100 0.514670 0.655670 -0.572689
O8    O     O_R   0.668590 0.485320 0.344260 -0.585900

loop_
_geom_bond_atom_site_label_1
_geom_bond_atom_site_label_2
_ccdc_geom_bond_type
Cu1   O3    S    
C15   Cl1   S    
C4    H5    S    
C11   C12   A    
C9    H3    S    
C6    C7    A    
C7    H8    S    
C2    O5    A    
C2    C16   S    
Cu1   O7    S    
Cu2   O4    S    
C1    O2    A    
H4    N2    S    
Cu1   N2    S    
N1    N2    D    
C7    C8    A    
C3    O7    A    
Cu2   O8    S    
C13   C14   A    
Cu1   Cu2   S    
C3    O8    A    
C3    C14   S    
C16   Cl2   S    
C1    C15   S    
N1    N3    S    
C17   O3    A    
C17   O4    A    
C5    C6    A    
Cu1   O5    S    
H10   N3    S    
Cu2   N1    S    
C10   C11   A    
C2    O6    A    
C4    C10   A    
C15   C16   D    
Cu1   O1    S    
C12   H1    S    
C13   H9    S    
Cu2   O2    S    
C12   C13   A    
C8    C10   A    
Cu2   O6    S    
C9    N3    S    
C9    H2    S    
C8    C14   A    
C9    H11   S    
C5    H6    S    
C6    H7    S    
C1    O1    A    
C4    C5    A    
C11   C17   S    
