data_mof_unit_35590.cif
_audit_creation_date              2012-12-10T18:42:29-0500
_audit_creation_method            fapswitch 2.2
_symmetry_space_group_name_H-M    P1
_symmetry_Int_Tables_number       1
_space_group_crystal_system       triclinic
_cell_length_a                    8.579738
_cell_length_b                    10.650203
_cell_length_c                    9.941024
_cell_angle_alpha                 91.023564
_cell_angle_beta                  99.094818
_cell_angle_gamma                 91.136466
_cell_volume                      896.571266965

loop_
_atom_site_label
_atom_site_type_symbol
_atom_type_description
_atom_site_fract_x
_atom_site_fract_y
_atom_site_fract_z
_atom_type_partial_charge
C1    C     C_R   0.499361 0.260283 0.499056 0.853321
C2    C     C_R   0.501447 0.739691 0.501171 0.854191
C3    C     C_R   0.201354 0.499235 0.464110 0.965862
C4    C     C_R   0.798724 0.499755 0.536126 0.962139
C5    C     C_2   0.035801 0.497688 0.445766 -0.385663
C6    C     C_2   0.964472 0.499153 0.555533 -0.398032
C7    C     C_R   0.584444 0.064099 0.411420 -0.216896
C8    C     C_R   0.420866 0.935926 0.591877 -0.197508
C9    C     C_R   0.585419 0.935315 0.412633 -0.188141
C10   C     C_R   0.417710 0.064601 0.588915 -0.196715
C11   C     C_R   0.503512 0.872250 0.502798 -0.005140
C12   C     C_R   0.499244 0.127700 0.498506 -0.004931
C13   C     C_R   0.600023 0.577188 0.088607 -0.124671
C14   C     C_R   0.397692 0.424877 0.911032 -0.121790
C15   C     C_R   0.606438 0.573909 0.946533 0.209594
C16   C     C_R   0.402080 0.419113 0.054209 0.197152
H1    H     H_    0.972784 0.495353 0.342487 0.176564
H2    H     H_    0.027320 0.500439 0.659503 0.168931
H3    H     H_    0.651793 0.113826 0.344915 0.140992
H4    H     H_    0.356494 0.886259 0.660793 0.151429
H5    H     H_    0.651188 0.885116 0.344997 0.143088
H6    H     H_    0.350826 0.114743 0.655601 0.147542
H7    H     H_    0.679056 0.639002 0.156625 0.150251
H8    H     H_    0.315562 0.365727 0.842611 0.151866
N1    N     N_R   0.499960 0.499970 0.857200 -0.118769
N2    N     N_R   0.500040 0.500030 0.142800 -0.117849
O1    O     O_R   0.499990 0.316750 0.614620 -0.619499
O2    O     O_R   0.500010 0.683250 0.385380 -0.617322
O3    O     O_R   0.499990 0.316780 0.385290 -0.640784
O4    O     O_R   0.500010 0.683220 0.614710 -0.645696
O5    O     O_R   0.271750 0.499990 0.587840 -0.613458
O6    O     O_R   0.728250 0.500010 0.412160 -0.611617
O7    O     O_R   0.271750 0.500010 0.358510 -0.643772
O8    O     O_R   0.728250 0.499990 0.641490 -0.641713
Zn1   Zn    Zn3+2 0.500000 0.499980 0.653120 0.919258
Zn2   Zn    Zn3+2 0.500000 0.500020 0.346880 0.918426
C17   C     C_3   0.734566 0.653820 0.899771 -0.389090
C18   C     C_3   0.895570 0.589529 0.916952 -0.348758
C19   C     C_3   0.974607 0.582197 0.064935 -0.878019
H9    H     H_    0.973234 0.674366 0.118739 0.260609
H10   H     H_    0.912865 0.509490 0.116421 0.254433
H11   H     H_    0.099168 0.554289 0.068930 0.255282
H12   H     H_    0.882627 0.492734 0.872699 0.241063
H13   H     H_    0.975248 0.644058 0.860550 0.208519
H14   H     H_    0.702820 0.678226 0.792726 0.231048
H15   H     H_    0.746490 0.745616 0.956032 0.162792
C20   C     C_3   0.299967 0.317903 0.103129 -0.416550
C21   C     C_3   0.376428 0.188210 0.105558 -0.309899
C22   C     C_3   0.360541 0.123641 0.965402 -0.898230
H16   H     H_    0.236552 0.124911 0.912342 0.255049
H17   H     H_    0.439730 0.169962 0.902376 0.266173
H18   H     H_    0.396267 0.024313 0.977607 0.249734
H19   H     H_    0.503576 0.197257 0.149048 0.233993
H20   H     H_    0.318423 0.126506 0.172954 0.217050
H21   H     H_    0.276662 0.339461 0.205827 0.233719
H22   H     H_    0.181654 0.313891 0.038360 0.170443

loop_
_geom_bond_atom_site_label_1
_geom_bond_atom_site_label_2
_ccdc_geom_bond_type
C3    O5    A    
C18   H13   S    
C17   C18   S    
C4    O8    A    
C14   H8    S    
C20   C21   S    
C2    O4    A    
C22   H18   S    
C3    C5    S    
C1    O3    A    
C18   H12   S    
C19   H10   S    
C8    H4    S    
C10   H6    S    
C21   H20   S    
C9    C11   A    
O3    Zn2   S    
C9    H5    S    
C4    O6    A    
C1    C12   S    
C10   C12   A    
O4    Zn1   S    
N1    Zn1   S    
C8    C11   A    
C5    C6    D    
C2    C11   S    
O6    Zn2   S    
C16   C20   S    
C8    C10   A    
C21   C22   S    
C13   H7    S    
C22   H16   S    
C19   H11   S    
C7    H3    S    
C13   C15   A    
C14   N1    A    
C16   N2    A    
C21   H19   S    
C6    H2    S    
C14   C16   A    
C7    C12   A    
C15   N1    A    
C4    C6    S    
C5    H1    S    
C13   N2    A    
C17   H14   S    
C7    C9    A    
O7    Zn2   S    
C18   C19   S    
O2    Zn2   S    
C20   H21   S    
O8    Zn1   S    
N2    Zn2   S    
C19   H9    S    
C1    O1    A    
O5    Zn1   S    
C3    O7    A    
C15   C17   S    
C2    O2    A    
O1    Zn1   S    
C17   H15   S    
C20   H22   S    
C22   H17   S    
