data_mof_unit_46404.cif
_audit_creation_date              2012-12-11T15:55:36-0500
_audit_creation_method            fapswitch 2.2
_symmetry_space_group_name_H-M    P1
_symmetry_Int_Tables_number       1
_space_group_crystal_system       triclinic
_cell_length_a                    6.941098
_cell_length_b                    14.545851
_cell_length_c                    16.08104
_cell_angle_alpha                 89.977943
_cell_angle_beta                  89.914722
_cell_angle_gamma                 90.026449
_cell_volume                      1623.60688137

loop_
_atom_site_label
_atom_site_type_symbol
_atom_type_description
_atom_site_fract_x
_atom_site_fract_y
_atom_site_fract_z
_atom_type_partial_charge
O1    O     O_R   0.505680 0.583900 0.413320 -0.541594
O2    O     O_R   0.176010 0.594950 0.586080 -0.544291
O3    O     O_R   0.005680 0.416100 0.586680 -0.534538
C1    C     C_R   0.345004 0.617165 0.615017 0.681574
O4    O     O_R   0.175960 0.594930 0.413930 -0.544465
O5    O     O_R   0.005640 0.416080 0.413300 -0.525866
C2    C     C_R   0.345099 0.617160 0.385024 0.681687
O6    O     O_R   0.505720 0.583920 0.586700 -0.541480
O7    O     O_3   0.339190 0.441320 0.500000 -0.361889
V1    V     V_3+5 0.064350 0.510890 0.500000 1.409419
O8    O     O_R   0.675920 0.405050 0.413920 -0.546840
C3    C     C_R   0.845679 0.381538 0.385958 0.715108
O9    O     O_R   0.675960 0.405070 0.586070 -0.543875
C4    C     C_R   0.844632 0.382880 0.614775 0.699613
V2    V     V_3+5 0.564340 0.489110 0.500000 1.394977
O10   O     O_3   0.839370 0.558680 0.500000 -0.372893
C5    C     C_R   0.007964 0.251457 0.688511 0.108604
C6    C     C_R   0.852399 0.312233 0.681194 -0.112501
C7    C     C_R   0.700515 0.302416 0.738715 -0.177884
H1    H     H_    0.577761 0.347887 0.735697 0.129801
C8    C     C_R   0.712351 0.238618 0.804563 -0.177982
H2    H     H_    0.597277 0.236029 0.849880 0.128857
C9    C     C_R   0.877023 0.183224 0.815171 -0.109610
C10   C     C_R   0.020102 0.188653 0.753865 0.099175
C11   C     C_3   0.231175 0.203794 0.763182 -0.417148
C12   C     C_3   0.218031 0.271737 0.691616 -0.391585
H3    H     H_    0.316137 0.141299 0.747787 0.174148
H4    H     H_    0.266864 0.236738 0.823559 0.171181
H5    H     H_    0.294441 0.248303 0.634639 0.176552
H6    H     H_    0.247106 0.343992 0.710275 0.166131
C13   C     C_R   0.038775 0.198076 0.236681 -0.196845
H7    H     H_    0.170362 0.160335 0.225002 0.128655
C14   C     C_R   0.029151 0.259308 0.304557 0.288406
C15   C     C_R   0.858994 0.311484 0.318186 -0.097204
C16   C     C_R   0.700778 0.297324 0.265235 -0.210532
C17   C     C_R   0.709749 0.233720 0.200111 -0.161654
H8    H     H_    0.584569 0.224820 0.160783 0.129960
C18   C     C_R   0.879530 0.184164 0.184479 -0.091202
C19   C     C_R   0.188221 0.724763 0.717556 -0.158643
H9    H     H_    0.047634 0.706403 0.693647 0.116388
C20   C     C_R   0.199372 0.788334 0.782761 -0.152734
H10   H     H_    0.066791 0.817140 0.806886 0.118917
C21   C     C_R   0.378767 0.814399 0.816175 -0.047436
C22   C     C_R   0.546698 0.775143 0.782463 -0.158115
H11   H     H_    0.687287 0.793508 0.806368 0.116715
C23   C     C_R   0.535548 0.711573 0.717258 -0.153464
H12   H     H_    0.668131 0.682776 0.693125 0.118418
C24   C     C_R   0.356151 0.685497 0.683852 -0.046398
C25   C     C_R   0.188342 0.724698 0.282658 -0.158493
H13   H     H_    0.047742 0.706241 0.306685 0.116530
C26   C     C_R   0.199416 0.788290 0.217438 -0.153671
H14   H     H_    0.066817 0.817021 0.193408 0.118927
C27   C     C_R   0.378799 0.814456 0.183886 -0.046792
C28   C     C_R   0.546808 0.775313 0.217465 -0.157730
C29   C     C_R   0.535734 0.711720 0.282688 -0.153684
H15   H     H_    0.668329 0.682994 0.306728 0.118344
C30   C     C_R   0.356343 0.685526 0.316215 -0.045871
O11   O     O_R   0.229200 0.915950 0.913350 -0.540072
O12   O     O_R   0.559090 0.905000 0.086080 -0.542937
O13   O     O_R   0.729280 0.083880 0.086680 -0.540255
C31   C     C_R   0.389985 0.882764 0.115029 0.686864
O14   O     O_R   0.558920 0.904980 0.913920 -0.543009
O15   O     O_R   0.729110 0.083860 0.913300 -0.539671
C32   C     C_R   0.389918 0.882732 0.885009 0.687823
O16   O     O_R   0.229360 0.915970 0.086730 -0.540902
O17   O     O_3   0.395680 0.058580 0.000030 -0.370060
V3    V     V_3+5 0.670570 0.989070 0.999990 1.395236
O18   O     O_R   0.058820 0.094950 0.913870 -0.539700
C33   C     C_R   0.889832 0.117139 0.885212 0.696723
O19   O     O_R   0.058990 0.094970 0.086020 -0.544152
C34   C     C_R   0.889943 0.116952 0.114984 0.699389
V4    V     V_3+5 0.170560 0.010930 0.999930 1.395447
O20   O     O_3   0.895590 0.941310 0.999960 -0.370456
H16   H     H_    0.687404 0.793778 0.193438 0.116880
N1    N     N_2   0.190680 0.270208 0.358304 -0.503965
H17   H     H_    0.280879 0.323263 0.341432 0.257653
C35   C     C_3   0.289327 0.188128 0.386027 -0.549134
H18   H     H_    0.382519 0.205560 0.439826 0.201544
H19   H     H_    0.382345 0.160372 0.335727 0.187154
H20   H     H_    0.183698 0.135168 0.406255 0.199707
H21   H     H_    0.570524 0.337050 0.273071 0.126714

loop_
_geom_bond_atom_site_label_1
_geom_bond_atom_site_label_2
_ccdc_geom_bond_type
C29   H15   S    
C20   H10   S    
C9    C33   S    
C16   C17   A    
C1    O6    A    
C16   H21   S    
C19   C20   A    
C27   C28   A    
C11   H4    S    
O14   V3    S    
C5    C12   S    
C17   H8    S    
C7    C8    A    
C6    C7    A    
O5    C3    A    
V2    O10   S    
C25   C30   A    
C15   C16   A    
C4    C6    S    
O14   C32   A    
O12   V3    S    
C18   C34   S    
O8    V2    S    
C14   N1    S    
O17   V4    S    
C7    H1    S    
O13   V3    S    
O18   C33   A    
C25   C26   A    
C9    C10   A    
C13   C14   A    
O19   C34   A    
V3    O20   S    
O7    V1    S    
O17   V3    S    
C28   H16   S    
C8    H2    S    
C20   C21   A    
C27   C31   S    
C22   C23   A    
C21   C32   S    
C5    C6    A    
C23   C24   A    
C35   H19   S    
O11   C32   A    
O15   V3    S    
O12   C31   A    
C5    C10   A    
C26   H14   S    
O15   C33   A    
C10   C11   S    
C19   H9    S    
O4    C2    A    
O13   C34   A    
C11   C12   S    
C35   H18   S    
C26   C27   A    
O2    C1    A    
N1    H17   S    
C13   H7    S    
O18   V4    S    
C14   C15   A    
C29   C30   A    
N1    C35   S    
O3    C4    A    
O1    V2    S    
C12   H6    S    
O6    V2    S    
O9    V2    S    
C21   C22   A    
C3    C15   S    
O2    V1    S    
C22   H11   S    
C1    C24   S    
C35   H20   S    
C28   C29   A    
C23   H12   S    
O1    C2    A    
V4    O20   S    
O5    V1    S    
O8    C3    A    
C11   H3    S    
O16   V4    S    
C13   C18   A    
C8    C9    A    
O7    V2    S    
O4    V1    S    
O3    V1    S    
V1    O10   S    
O11   V4    S    
C17   C18   A    
C31   O16   A    
C12   H5    S    
C25   H13   S    
O19   V4    S    
O9    C4    A    
C2    C30   S    
C19   C24   A    
