data_mof_unit_55895.cif
_audit_creation_date              2012-12-11T14:40:27-0500
_audit_creation_method            fapswitch 2.2
_symmetry_space_group_name_H-M    P1
_symmetry_Int_Tables_number       1
_space_group_crystal_system       triclinic
_cell_length_a                    19.683089
_cell_length_b                    10.869924
_cell_length_c                    19.448231
_cell_angle_alpha                 90.149538
_cell_angle_beta                  97.687225
_cell_angle_gamma                 90.021952
_cell_volume                      4123.61056453

loop_
_atom_site_label
_atom_site_type_symbol
_atom_type_description
_atom_site_fract_x
_atom_site_fract_y
_atom_site_fract_z
_atom_type_partial_charge
C1    C     C_R   0.725343 0.952876 0.361260 0.539689
C2    C     C_3   0.247823 0.414683 0.568849 0.057795
C3    C     C_3   0.253770 0.921227 0.428782 0.057536
C4    C     C_3   0.751506 0.908368 0.568654 0.057181
C5    C     C_3   0.772111 0.537328 0.456687 -0.150385
C6    C     C_3   0.217888 0.539010 0.544009 -0.144978
C7    C     C_3   0.230820 0.041576 0.459198 -0.135970
C8    C     C_3   0.783090 0.014805 0.532541 -0.127068
C9    C     C_3   0.828281 0.479570 0.510267 -0.139679
C10   C     C_3   0.168091 0.470398 0.488296 -0.130741
C11   C     C_3   0.303275 0.052971 0.501985 -0.148084
C12   C     C_R   0.293200 0.002068 0.633903 0.563347
C13   C     C_3   0.713837 0.027091 0.484639 -0.109618
C14   C     C_3   0.806946 0.349566 0.484652 -0.100493
C15   C     C_3   0.198401 0.345642 0.513855 -0.102251
C16   C     C_3   0.325639 0.931681 0.469948 -0.115038
C17   C     C_3   0.682826 0.919952 0.522041 -0.114701
C18   C     C_3   0.754533 0.340967 0.536477 -0.112719
C19   C     C_3   0.252861 0.353114 0.464168 -0.114212
C20   C     C_3   0.300128 0.856940 0.528563 -0.112311
C21   C     C_3   0.708411 0.826828 0.471461 -0.125539
C22   C     C_3   0.775978 0.470233 0.561407 0.054797
C23   C     C_R   0.206732 0.502586 0.365865 0.558917
C24   C     C_3   0.222426 0.476602 0.439173 0.052884
C25   C     C_3   0.277902 0.977093 0.559838 0.053285
C26   C     C_3   0.739340 0.932400 0.434934 0.058550
C27   C     C_3   0.496911 0.277557 0.978971 -0.098276
C28   C     C_3   0.447946 0.268670 0.034280 -0.119745
C29   C     C_3   0.996896 0.777572 0.978975 -0.098054
C30   C     C_3   0.947932 0.768653 0.034284 -0.120035
C31   C     C_3   0.543715 0.178552 0.016325 -0.104224
C32   C     C_3   0.406745 0.165482 0.992320 -0.146888
C33   C     C_3   0.043714 0.678584 0.016326 -0.104243
C34   C     C_R   0.792530 0.500170 0.633898 0.556863
C35   C     C_3   0.906746 0.665451 0.992320 -0.146944
C36   C     C_3   0.494746 0.169942 0.071281 0.051613
C37   C     C_3   0.456250 0.174710 0.937929 0.046181
C38   C     C_3   0.994746 0.669941 0.071281 0.051108
C39   C     C_3   0.956250 0.674711 0.937929 0.046344
C40   C     C_R   0.535127 0.179995 0.337958 0.538179
C41   C     C_R   0.464936 0.179831 0.662082 0.546288
C42   C     C_R   0.035071 0.680081 0.337934 0.532169
C43   C     C_R   0.965122 0.679915 0.662206 0.546612
C44   C     C_3   0.454178 0.066343 0.030985 -0.122140
C45   C     C_3   0.698578 0.398261 0.483156 -0.120473
C46   C     C_3   0.502866 0.075477 0.974919 -0.102786
C47   C     C_3   0.954193 0.566330 0.030982 -0.122232
C48   C     C_3   0.002880 0.575496 0.974916 -0.102764
C49   C     C_1   0.763361 0.425603 0.904352 -0.004751
C50   C     C_1   0.237032 0.424143 0.095985 -0.006778
C51   C     C_1   0.263360 0.925601 0.904351 -0.004850
C52   C     C_1   0.737033 0.924139 0.095986 -0.005134
C53   C     C_1   0.747781 0.408763 0.034803 -0.048063
C54   C     C_1   0.252947 0.407384 0.965656 -0.047640
C55   C     C_1   0.247780 0.908758 0.034801 -0.047939
C56   C     C_3   0.302383 0.420974 0.519538 -0.120049
C57   C     C_1   0.752951 0.907374 0.965658 -0.047843
C58   C     C_1   0.754777 0.415832 0.964043 -0.047027
C59   C     C_1   0.245880 0.414116 0.036382 -0.048923
C60   C     C_1   0.254775 0.915828 0.964041 -0.047063
C61   C     C_1   0.745884 0.914108 0.036383 -0.048666
C62   C     C_1   0.742652 0.395502 0.095139 -0.005501
C63   C     C_1   0.257872 0.394731 0.905228 -0.004668
C64   C     C_1   0.242650 0.895496 0.095136 -0.004950
C65   C     C_1   0.757875 0.894722 0.905230 -0.004352
C66   C     C_R   0.739564 0.363244 0.361790 0.546144
C67   C     C_3   0.228063 0.846883 0.486980 -0.117189
C68   C     C_R   0.259961 0.365357 0.638714 0.543370
C69   C     C_R   0.240927 0.868715 0.359701 0.535606
C70   C     C_R   0.759479 0.868111 0.639949 0.537143
C71   C     C_R   0.721833 0.952202 0.163828 0.542339
C72   C     C_R   0.278288 0.952726 0.836328 0.546732
C73   C     C_R   0.221834 0.452199 0.163831 0.552388
C74   C     C_R   0.778288 0.452726 0.836328 0.546204
C75   C     C_R   0.527094 0.178362 0.142651 0.542723
C76   C     C_R   0.436239 0.182743 0.863099 0.564066
C77   C     C_R   0.027094 0.678361 0.142652 0.544097
C78   C     C_3   0.777660 0.815532 0.518572 -0.113751
C79   C     C_R   0.936239 0.682743 0.863099 0.564090
C80   C     C_R   0.735830 0.360574 0.164430 0.543181
C81   C     C_R   0.264274 0.360528 0.835689 0.539779
C82   C     C_R   0.235828 0.860568 0.164427 0.543423
C83   C     C_R   0.764276 0.860523 0.835692 0.538259
C84   C     C_1   0.486041 0.171560 0.594898 -0.017028
C85   C     C_1   0.514101 0.172029 0.405169 -0.013907
C86   C     C_1   0.986622 0.672233 0.595160 -0.018562
C87   C     C_1   0.014103 0.672689 0.405205 -0.018643
C88   C     C_1   0.504201 0.168334 0.464724 -0.061201
C89   C     C_3   0.751129 0.408367 0.431976 0.059226
C90   C     C_1   0.496002 0.168099 0.535347 -0.062087
C91   C     C_1   0.004427 0.669677 0.464854 -0.065665
C92   C     C_1   0.996628 0.669466 0.535597 -0.065020
C93   C     C_3   0.719767 0.528483 0.509567 -0.125062
C94   C     C_3   0.272219 0.545885 0.493047 -0.130702
C95   C     C_3   0.205793 0.967454 0.518768 -0.104542
C96   C     C_3   0.808343 0.922169 0.481007 -0.123640
Cr1   Cr    Cr6+3 0.765830 0.160660 0.268180 1.024305
Cr2   Cr    Cr6+3 0.384070 0.324050 0.751550 1.020440
Cr3   Cr    Cr6+3 0.115930 0.824050 0.248450 1.024082
Cr4   Cr    Cr6+3 0.884070 0.824050 0.751550 1.021010
Cr5   Cr    Cr6+3 0.234170 0.160660 0.731820 1.021052
Cr6   Cr    Cr6+3 0.265830 0.660660 0.268180 1.023214
Cr7   Cr    Cr6+3 0.734170 0.660660 0.731820 1.022098
Cr8   Cr    Cr6+3 0.612110 0.009150 0.248770 1.027185
Cr9   Cr    Cr6+3 0.387890 0.009150 0.751230 1.022180
Cr10  Cr    Cr6+3 0.112110 0.509150 0.248770 1.020936
Cr11  Cr    Cr6+3 0.887890 0.509150 0.751230 1.021754
Cr12  Cr    Cr6+3 0.615930 0.324050 0.248450 1.027988
H1    H     H_    0.645187 0.364329 0.470002 0.125183
H2    H     H_    0.204312 0.613939 0.578581 0.120213
H3    H     H_    0.200183 0.111999 0.427743 0.118121
H4    H     H_    0.814311 0.089618 0.559721 0.114649
H5    H     H_    0.335065 0.137289 0.510772 0.105229
H6    H     H_    0.687215 0.114243 0.468027 0.112608
H7    H     H_    0.881738 0.512310 0.523330 0.119898
H8    H     H_    0.112786 0.489821 0.473586 0.124573
H9    H     H_    0.842850 0.275275 0.473975 0.134249
H10   H     H_    0.167826 0.262695 0.522731 0.131762
H11   H     H_    0.374543 0.917283 0.448473 0.129095
H12   H     H_    0.357667 0.400135 0.533987 0.127120
H13   H     H_    0.631759 0.920640 0.540334 0.126138
H14   H     H_    0.600512 0.183796 0.027372 0.120712
H15   H     H_    0.350051 0.160311 0.980450 0.114000
H16   H     H_    0.100511 0.683854 0.027373 0.120628
H17   H     H_    0.850053 0.660256 0.980450 0.113933
H18   H     H_    0.515010 0.364385 0.957540 0.142702
H19   H     H_    0.425404 0.347156 0.060018 0.129888
H20   H     H_    0.014983 0.864412 0.957546 0.142687
H21   H     H_    0.925379 0.847124 0.060024 0.129462
H22   H     H_    0.436815 0.980504 0.054077 0.126510
H23   H     H_    0.194881 0.764396 0.478136 0.108482
H24   H     H_    0.525527 0.996847 0.949427 0.136125
H25   H     H_    0.936842 0.480479 0.054071 0.126636
H26   H     H_    0.025553 0.496881 0.949422 0.136183
H27   H     H_    0.746564 0.263885 0.571762 0.121469
H28   H     H_    0.268473 0.282677 0.428119 0.122258
H29   H     H_    0.328933 0.782447 0.558552 0.132865
H30   H     H_    0.677524 0.752995 0.442875 0.121077
H31   H     H_    0.807028 0.732386 0.536910 0.110235
H32   H     H_    0.683384 0.598391 0.524398 0.132983
H33   H     H_    0.303651 0.624224 0.479427 0.129124
H34   H     H_    0.156843 0.981991 0.540117 0.130080
H35   H     H_    0.859175 0.921250 0.462232 0.120328
H36   H     H_    0.779211 0.614568 0.421128 0.111577
O1    O     O_R   0.783230 0.287800 0.346510 -0.522852
O2    O     O_R   0.454570 0.285140 0.836900 -0.511949
O3    O     O_R   0.045430 0.785140 0.163100 -0.512714
O4    O     O_R   0.954570 0.785140 0.836900 -0.512435
O5    O     O_R   0.677850 0.374730 0.185500 -0.493670
O6    O     O_R   0.322150 0.374730 0.814500 -0.509845
O7    O     O_R   0.177850 0.874730 0.185500 -0.492330
O8    O     O_R   0.822150 0.874730 0.814500 -0.510998
O9    O     O_3   0.664630 0.164620 0.255130 -0.254711
O10   O     O_3   0.335370 0.164620 0.744870 -0.300114
O11   O     O_3   0.164630 0.664620 0.255130 -0.275309
O12   O     O_R   0.216770 0.287800 0.653490 -0.526103
O13   O     O_3   0.835370 0.664620 0.744870 -0.299367
O14   O     O_R   0.760130 0.037060 0.338610 -0.504661
O15   O     O_R   0.239870 0.037060 0.661390 -0.501401
O16   O     O_R   0.260130 0.537060 0.338610 -0.499479
O17   O     O_R   0.739870 0.537060 0.661390 -0.497045
O18   O     O_R   0.666620 0.921370 0.332440 -0.516787
O19   O     O_R   0.333380 0.921370 0.667560 -0.515063
O20   O     O_R   0.166620 0.421370 0.332440 -0.515007
O21   O     O_R   0.833380 0.421370 0.667560 -0.512046
O22   O     O_R   0.557170 0.082420 0.312350 -0.497495
O23   O     O_R   0.283230 0.787800 0.346510 -0.530391
O24   O     O_R   0.442830 0.082420 0.687650 -0.506576
O25   O     O_R   0.057170 0.582420 0.312350 -0.516853
O26   O     O_R   0.942830 0.582420 0.687650 -0.508686
O27   O     O_R   0.548310 0.285980 0.316250 -0.511750
O28   O     O_R   0.451690 0.285980 0.683750 -0.503659
O29   O     O_R   0.048310 0.785980 0.316250 -0.507213
O30   O     O_R   0.951690 0.785980 0.683750 -0.499356
O31   O     O_R   0.680520 0.375500 0.327470 -0.503441
O32   O     O_R   0.319480 0.375500 0.672530 -0.502954
O33   O     O_R   0.180520 0.875500 0.327470 -0.500755
O34   O     O_R   0.716770 0.787800 0.653490 -0.524821
O35   O     O_R   0.819480 0.875500 0.672530 -0.500319
O36   O     O_R   0.780350 0.286970 0.193350 -0.508192
O37   O     O_R   0.219650 0.286970 0.806650 -0.503883
O38   O     O_R   0.280350 0.786970 0.193350 -0.508883
O39   O     O_R   0.719650 0.786970 0.806650 -0.504761
O40   O     O_R   0.757460 0.036290 0.196640 -0.495976
O41   O     O_R   0.242540 0.036290 0.803360 -0.490953
O42   O     O_R   0.257460 0.536290 0.196640 -0.490355
O43   O     O_R   0.742540 0.536290 0.803360 -0.490739
O44   O     O_R   0.663740 0.920540 0.179290 -0.506336
O45   O     O_R   0.554500 0.081650 0.170370 -0.500184
O46   O     O_R   0.336260 0.920540 0.820710 -0.509791
O47   O     O_R   0.163740 0.420540 0.179290 -0.502118
O48   O     O_R   0.836260 0.420540 0.820710 -0.510198
O49   O     O_R   0.445500 0.081650 0.829630 -0.498221
O50   O     O_R   0.054500 0.581650 0.170370 -0.499103
O51   O     O_R   0.945500 0.581650 0.829630 -0.497918
O52   O     O_R   0.545430 0.285140 0.163100 -0.513579

loop_
_geom_bond_atom_site_label_1
_geom_bond_atom_site_label_2
_ccdc_geom_bond_type
C19   C56   S    
C20   H29   S    
C21   C26   S    
Cr11  O21   S    
C8    C13   S    
C87   C91   T    
C6    H2    S    
C14   C18   S    
C20   C67   S    
C8    C96   S    
C81   O37   A    
C71   O44   A    
C4    C8    S    
C34   O17   A    
C35   C47   S    
C78   H31   S    
Cr2   O10   S    
C73   O42   A    
C68   O32   A    
C10   H8    S    
Cr10  O50   S    
Cr4   O8    S    
C56   C94   S    
Cr6   O23   S    
C30   C35   S    
C63   C81   S    
Cr7   O39   S    
C50   C59   T    
C80   O36   A    
C48   H26   S    
C1    O14   A    
C75   O45   A    
C27   C37   S    
Cr3   O33   S    
C3    C7    S    
C52   C61   T    
C8    H4    S    
Cr8   O18   S    
C27   H18   S    
C45   H1    S    
C9    C22   S    
C65   C83   S    
C20   C25   S    
C11   C25   S    
C44   H22   S    
C81   O6    A    
Cr12  O31   S    
C29   C33   S    
C79   O51   A    
C30   C38   S    
C4    C78   S    
C11   C16   S    
C72   O46   A    
C35   H17   S    
C66   O1    A    
C69   O33   A    
C15   C19   S    
Cr4   O13   S    
Cr12  O9    S    
C78   C96   S    
C6    C94   S    
C31   C46   S    
Cr3   O11   S    
Cr11  O48   S    
C33   H16   S    
C23   C24   S    
Cr9   O19   S    
Cr1   O9    S    
Cr8   O9    S    
Cr12  O52   S    
C34   O21   A    
C45   C89   S    
C77   O3    A    
C31   C36   S    
C40   O22   A    
C13   H6    S    
C28   H19   S    
Cr2   O28   S    
C75   O52   A    
Cr9   O10   S    
C76   O2    A    
C55   C60   S    
C47   H25   S    
Cr8   O44   S    
C67   C95   S    
C56   H12   S    
C32   H15   S    
C2    C6    S    
C84   C90   T    
C21   H30   S    
Cr5   O41   S    
C71   O40   A    
Cr11  O51   S    
Cr11  O13   S    
C43   O26   A    
C44   C46   S    
C70   O35   A    
C7    C11   S    
C66   C89   S    
C54   C59   S    
C55   C64   T    
C26   C96   S    
C80   O5    A    
C22   C34   S    
C41   O28   A    
C67   H23   S    
C4    C70   S    
Cr7   O17   S    
C27   C31   S    
Cr6   O38   S    
C28   C32   S    
Cr7   O43   S    
C76   O49   A    
C16   H11   S    
Cr6   O16   S    
C91   C92   S    
C9    C14   S    
C70   O34   A    
Cr1   O36   S    
Cr2   O2    S    
Cr5   O12   S    
C10   C24   S    
C19   H28   S    
C41   C84   S    
Cr3   O7    S    
C17   C21   S    
C49   C58   T    
Cr12  O27   S    
C39   C79   S    
C40   C85   S    
C36   C75   S    
C35   C39   S    
C77   O50   A    
C69   O23   A    
C14   C89   S    
C5    C9    S    
C29   C30   S    
C42   O25   A    
C24   C94   S    
Cr2   O32   S    
C53   C62   T    
C47   C48   S    
Cr3   O29   S    
C16   C20   S    
C14   H9    S    
C23   O16   A    
C29   C39   S    
C32   C44   S    
C83   O39   A    
C18   H27   S    
Cr6   O42   S    
C32   C37   S    
C21   C78   S    
C2    C15   S    
C64   C82   S    
C38   C47   S    
C73   O47   A    
C74   O48   A    
C4    C17   S    
C17   H13   S    
C13   C26   S    
C37   C76   S    
C88   C90   S    
C45   C93   S    
C25   C95   S    
Cr10  O20   S    
Cr4   O30   S    
C1    C26   S    
C22   C93   S    
C66   O31   A    
C36   C44   S    
C5    H36   S    
C51   C72   S    
C83   O8    A    
C18   C45   S    
Cr5   O37   S    
C94   H33   S    
Cr1   O40   S    
C23   O20   A    
Cr2   O6    S    
C85   C88   T    
C62   C80   S    
Cr3   O3    S    
C9    H7    S    
Cr9   O49   S    
C3    C69   S    
C18   C22   S    
C43   C86   S    
Cr1   O1    S    
Cr9   O46   S    
C3    C67   S    
C82   O7    A    
C31   H14   S    
C57   C65   T    
C41   O24   A    
C68   O12   A    
C42   O29   A    
C6    C10   S    
C5    C93   S    
C53   C58   S    
C15   H10   S    
C57   C61   S    
C79   O4    A    
C51   C60   T    
C38   C77   S    
C30   H21   S    
C7    C95   S    
C82   O38   A    
C2    C68   S    
C33   C38   S    
Cr9   O24   S    
C13   C17   S    
C12   C25   S    
C10   C15   S    
Cr7   O34   S    
Cr1   O14   S    
C19   C24   S    
C43   O30   A    
C93   H32   S    
C86   C92   T    
C12   O19   A    
C46   H24   S    
Cr10  O47   S    
Cr5   O10   S    
Cr4   O4    S    
Cr8   O45   S    
C50   C73   S    
Cr10  O25   S    
C7    H3    S    
C12   O15   A    
C11   H5    S    
C72   O41   A    
C1    O18   A    
C74   O43   A    
Cr8   O22   S    
Cr12  O5    S    
Cr5   O15   S    
Cr7   O13   S    
C28   C36   S    
C95   H34   S    
Cr10  O11   S    
C54   C63   T    
C29   H20   S    
C27   C28   S    
C52   C71   S    
C33   C48   S    
C49   C74   S    
C2    C56   S    
C42   C87   S    
C37   C46   S    
Cr4   O35   S    
Cr6   O11   S    
C40   O27   A    
C5    C89   S    
C3    C16   S    
C39   C48   S    
C96   H35   S    
Cr11  O26   S    
