data_mof_unit_33207.cif
_audit_creation_date              2012-12-10T17:01:34-0500
_audit_creation_method            fapswitch 2.2
_symmetry_space_group_name_H-M    P1
_symmetry_Int_Tables_number       1
_space_group_crystal_system       triclinic
_cell_length_a                    12.88677
_cell_length_b                    10.615002
_cell_length_c                    10.019781
_cell_angle_alpha                 89.788266
_cell_angle_beta                  97.053206
_cell_angle_gamma                 89.794342
_cell_volume                      1360.24399984

loop_
_atom_site_label
_atom_site_type_symbol
_atom_type_description
_atom_site_fract_x
_atom_site_fract_y
_atom_site_fract_z
_atom_type_partial_charge
C1    C     C_R   0.508307 0.262470 0.501693 0.928410
C2    C     C_2   0.536858 0.132275 0.510790 -0.372628
C3    C     C_2   0.513524 0.601109 0.927392 0.476219
C4    C     C_R   0.298163 0.496524 0.473663 0.882462
C5    C     C_2   0.496964 0.601061 0.073864 -0.247992
C6    C     C_R   0.494902 0.737923 0.498481 0.845498
C7    C     C_R   0.701777 0.499626 0.526429 0.887064
C8    C     C_R   0.813942 0.497287 0.543469 -0.105475
C9    C     C_R   0.185932 0.486672 0.458677 -0.179200
C10   C     C_R   0.020201 0.442734 0.330087 -0.344961
C11   C     C_R   0.128519 0.446651 0.337778 0.509100
C12   C     C_R   0.029355 0.502727 0.567081 0.091374
C13   C     C_R   0.136498 0.511859 0.572270 -0.321334
C14   C     C_3   0.627394 0.763867 0.913078 0.082927
C15   C     C_3   0.635854 0.896581 0.855428 -0.341732
C16   C     C_3   0.742416 0.955330 0.898450 -0.996637
C17   C     C_3   0.995862 0.551758 0.920903 0.086770
C18   C     C_3   0.952322 0.680227 0.956755 -0.353794
C19   C     C_3   0.901157 0.673897 0.086031 -0.976020
C20   C     C_3   0.167782 0.292308 0.190086 0.011187
C21   C     C_3   0.268379 0.221647 0.242670 -0.276228
C22   C     C_3   0.262587 0.083002 0.202767 -0.887169
C23   C     C_R   0.971144 0.470418 0.443250 0.066801
C24   C     C_3   0.364774 0.918712 0.633104 0.049877
C25   C     C_3   0.265230 0.839702 0.622653 -0.318179
C26   C     C_3   0.228833 0.819469 0.760402 -0.912249
C27   C     C_3   0.647552 0.088017 0.220106 0.067942
C28   C     C_3   0.739030 0.168619 0.283755 -0.363327
C29   C     C_3   0.837164 0.146929 0.215807 -0.993191
C30   C     C_R   0.864185 0.468505 0.432542 -0.254827
C31   C     C_R   0.870303 0.525640 0.668031 -0.350004
C32   C     C_R   0.980137 0.527639 0.682668 0.495714
C33   C     C_2   0.563747 0.928110 0.428701 -0.370178
C34   C     C_2   0.489624 0.872307 0.490934 0.271913
C35   C     C_2   0.559363 0.063652 0.406308 0.558027
H1    H     H_    0.820073 0.446601 0.336314 0.169566
H2    H     H_    0.623006 0.892738 0.743908 0.215207
H3    H     H_    0.574279 0.957491 0.890344 0.212070
H4    H     H_    0.761203 0.952043 0.009404 0.265716
H5    H     H_    0.741524 0.055247 0.865096 0.264065
H6    H     H_    0.803890 0.904784 0.851408 0.270018
H7    H     H_    0.058216 0.524946 0.002643 0.207412
H8    H     H_    0.937062 0.475016 0.918860 0.115341
H9    H     H_    0.016958 0.749892 0.969609 0.237239
H10   H     H_    0.894045 0.714101 0.873888 0.209259
H11   H     H_    0.839124 0.600940 0.078213 0.253920
H12   H     H_    0.540962 0.089735 0.610417 0.112952
H13   H     H_    0.865282 0.766404 0.104465 0.263540
H14   H     H_    0.960802 0.652234 0.172582 0.284922
H15   H     H_    0.156254 0.286377 0.078564 0.166067
H16   H     H_    0.099357 0.244277 0.225852 0.127741
H17   H     H_    0.335481 0.265850 0.200741 0.257298
H18   H     H_    0.281758 0.228173 0.354130 0.211534
H19   H     H_    0.197899 0.035801 0.246967 0.259004
H20   H     H_    0.337184 0.035165 0.240773 0.312449
H21   H     H_    0.249756 0.073796 0.091562 0.244136
H22   H     H_    0.182065 0.540022 0.665356 0.236290
H23   H     H_    0.479172 0.419285 0.895546 0.114031
H24   H     H_    0.628913 0.874211 0.398785 0.107861
H25   H     H_    0.346866 0.013350 0.671646 0.157214
H26   H     H_    0.426015 0.877752 0.708746 0.184602
H27   H     H_    0.202353 0.888314 0.555528 0.222183
H28   H     H_    0.279934 0.746915 0.578012 0.224952
H29   H     H_    0.287809 0.763646 0.826228 0.288693
H30   H     H_    0.153789 0.767450 0.748601 0.287818
H31   H     H_    0.216324 0.911388 0.808734 0.249373
H32   H     H_    0.632261 0.112778 0.111630 0.172308
H33   H     H_    0.668012 0.986206 0.223890 0.127650
H34   H     H_    0.485261 0.691219 0.120464 0.192707
H35   H     H_    0.716197 0.269466 0.274012 0.234935
H36   H     H_    0.757053 0.145447 0.392386 0.208499
H37   H     H_    0.860292 0.045980 0.222579 0.268734
H38   H     H_    0.902328 0.203480 0.267175 0.266442
H39   H     H_    0.823376 0.176158 0.108519 0.265632
H40   H     H_    0.521465 0.417997 0.106020 0.158783
H41   H     H_    0.827319 0.549292 0.750445 0.161185
H42   H     H_    0.974692 0.418822 0.235294 0.148974
H43   H     H_    0.688740 0.702719 0.877430 0.154160
H44   H     H_    0.640541 0.770054 0.024882 0.122949
N1    N     N_2   0.501130 0.501330 0.852280 -0.216037
N2    N     N_2   0.501160 0.501360 0.147950 -0.207873
O1    O     O_R   0.499980 0.319060 0.613040 -0.634528
O2    O     O_3   0.043157 0.561422 0.801097 -0.678381
O3    O     O_3   0.177378 0.421479 0.224921 -0.631329
O4    O     O_3   0.396412 0.935562 0.504009 -0.653026
O5    O     O_3   0.555191 0.114976 0.277785 -0.626190
O6    O     O_R   0.500020 0.319100 0.386900 -0.575420
O7    O     O_R   0.346340 0.499960 0.594380 -0.625061
O8    O     O_R   0.346380 0.500000 0.368250 -0.555165
O9    O     O_R   0.499980 0.680900 0.613100 -0.573054
O10   O     O_R   0.500020 0.680940 0.386960 -0.620457
O11   O     O_R   0.653620 0.500000 0.631750 -0.623714
O12   O     O_R   0.653660 0.500040 0.405620 -0.630286
O13   O     O_3   0.527249 0.716117 0.867307 -0.625660
Zn1   Zn    Zn3+2 0.499980 0.499970 0.650990 0.954516
Zn2   Zn    Zn3+2 0.500020 0.500030 0.349010 0.960075

loop_
_geom_bond_atom_site_label_1
_geom_bond_atom_site_label_2
_ccdc_geom_bond_type
C2    C35   D    
C1    O6    A    
C24   H26   S    
C19   H11   S    
C7    C8    S    
C22   H19   S    
C12   C23   A    
C28   C29   S    
C18   C19   S    
C20   H16   S    
C35   O5    S    
C29   H38   S    
C6    O10   A    
C9    C13   A    
C1    C2    S    
C25   H28   S    
C26   H29   S    
C17   H7    S    
C15   H2    S    
C10   C23   A    
C5    H34   S    
C27   H33   S    
O10   Zn2   S    
C20   H15   S    
C24   O4    S    
H23   N1    S    
C29   H37   S    
O7    Zn1   S    
C33   H24   S    
C21   C22   S    
C12   C32   A    
C26   H30   S    
C3    N1    D    
C10   H42   S    
C33   C34   D    
C7    O12   A    
C26   H31   S    
C23   C30   A    
O9    Zn1   S    
C24   C25   S    
N2    Zn2   S    
C19   H13   S    
H40   N2    S    
C22   H21   S    
C29   H39   S    
C1    O1    A    
C6    O9    A    
O11   Zn1   S    
C6    C34   S    
C17   O2    S    
C34   O4    S    
C27   O5    S    
C17   H8    S    
C15   H3    S    
C18   H9    S    
C5    N2    D    
C19   H14   S    
C31   C32   A    
C24   H25   S    
O6    Zn2   S    
C17   C18   S    
C14   H44   S    
C12   C13   A    
N1    Zn1   S    
C9    C11   A    
C16   H5    S    
O12   Zn2   S    
C20   O3    S    
C2    H12   S    
C28   H36   S    
C18   H10   S    
C4    O8    A    
C32   O2    S    
O1    Zn1   S    
C8    C31   A    
C28   H35   S    
C3    C5    S    
C22   H20   S    
C4    O7    A    
C11   O3    S    
C30   H1    S    
C8    C30   A    
O8    Zn2   S    
C25   C26   S    
C21   H18   S    
C31   H41   S    
C7    O11   A    
C33   C35   S    
C3    O13   S    
C25   H27   S    
C14   H43   S    
C27   H32   S    
C10   C11   A    
C16   H4    S    
C13   H22   S    
C20   C21   S    
C27   C28   S    
C14   C15   S    
C4    C9    S    
C16   H6    S    
C14   O13   S    
C21   H17   S    
C15   C16   S    
