data_mof_unit_60702.cif
_audit_creation_date              2013-03-05T15:44:30-0500
_audit_creation_method            fapswitch 2.2
_symmetry_space_group_name_H-M    P1
_symmetry_Int_Tables_number       1
_space_group_crystal_system       triclinic
_cell_length_a                    15.774386
_cell_length_b                    10.681769
_cell_length_c                    10.06132
_cell_angle_alpha                 91.08709
_cell_angle_beta                  89.973397
_cell_angle_gamma                 90.317127
_cell_volume                      1694.98458353

loop_
_atom_site_label
_atom_site_type_symbol
_atom_site_description
_atom_site_fract_x
_atom_site_fract_y
_atom_site_fract_z
_atom_type_partial_charge
O1    O     O_R   0.499990 0.319060 0.613040 -0.520877
O2    O     O_R   0.500010 0.319100 0.386900 -0.616834
C1    C     C_R   0.500753 0.262643 0.498366 0.889832
O3    O     O_R   0.377130 0.499990 0.613120 -0.570824
O4    O     O_R   0.377160 0.500030 0.386980 -0.565010
C2    C     C_R   0.338604 0.500088 0.499995 0.873047
Zn1   Zn    Zn3+2 0.499980 0.499970 0.650990 1.239694
Zn2   Zn    Zn3+2 0.500020 0.500030 0.349010 1.191866
O5    O     O_R   0.499990 0.680900 0.613100 -0.564547
O6    O     O_R   0.500010 0.680940 0.386960 -0.553320
O7    O     O_R   0.622840 0.499970 0.613020 -0.589637
O8    O     O_R   0.622870 0.500010 0.386880 -0.584699
C3    C     C_R   0.507026 0.737492 0.501344 0.887018
C4    C     C_R   0.661366 0.500768 0.499972 0.878643
C5    C     C_3   0.049401 0.414359 0.613008 0.232372
C6    C     C_3   0.048052 0.463137 0.351088 0.167581
C7    C     C_3   0.946575 0.454227 0.365435 0.601571
C8    C     C_1   0.749741 0.506035 0.500327 0.083642
C9    C     C_3   0.083078 0.507649 0.496883 -0.493397
C10   C     C_3   0.948448 0.434035 0.622958 0.570155
C11   C     C_3   0.916597 0.515514 0.503065 -0.487561
C12   C     C_3   0.950237 0.657242 0.514379 0.173937
C13   C     C_3   0.051222 0.648835 0.531592 0.602976
C14   C     C_1   0.824732 0.511428 0.501647 0.331519
C15   C     C_1   0.174922 0.505377 0.497990 0.355519
C16   C     C_1   0.250131 0.502599 0.499489 0.094750
C17   C     C_2   0.537432 0.932998 0.394025 0.608481
C18   C     C_2   0.537096 0.865354 0.505511 -0.015459
C19   C     C_2   0.549248 0.067038 0.404408 0.059229
C20   C     C_2   0.499828 0.130046 0.491951 0.383707
C21   C     C_2   0.547672 0.572872 0.926498 0.760981
N1    N     N_2   0.500900 0.501330 0.852150 0.093628
C22   C     C_2   0.558699 0.553045 0.073253 0.255420
N2    N     N_2   0.500920 0.501360 0.147810 -0.066833
F1    F     F_    0.906661 0.319772 0.612440 -0.538098
N3    N     N_R   0.088871 0.437885 0.745756 0.285002
O9    O     O_R   0.158278 0.502861 0.761777 -0.228347
O10   O     O_R   0.064981 0.368652 0.844402 -0.168651
N4    N     N_R   0.919312 0.487338 0.752617 0.261022
O11   O     O_R   0.961124 0.573408 0.818729 -0.179293
O12   O     O_R   0.849455 0.445288 0.804973 -0.178703
N5    N     N_R   0.921960 0.726623 0.395403 0.274743
O13   O     O_R   0.970844 0.748994 0.294384 -0.193412
O14   O     O_R   0.843354 0.762507 0.387972 -0.217193
F2    F     F_    0.513754 0.884487 0.273443 -0.537403
N6    N     N_R   0.572053 0.915290 0.628551 0.224824
O15   O     O_R   0.533472 0.897294 0.740986 -0.160947
O16   O     O_R   0.644221 0.975005 0.628745 -0.263520
N7    N     N_R   0.613409 0.125869 0.324178 0.234281
O17   O     O_R   0.635080 0.074919 0.210774 -0.161175
O18   O     O_R   0.661074 0.214505 0.374621 -0.335630
F3    F     F_    0.439842 0.071346 0.566328 -0.582723
F4    F     F_    0.591405 0.667645 0.869456 -0.563175
F5    F     F_    0.483609 0.387981 0.900201 -0.518177
N8    N     N_R   0.637030 0.594485 0.131223 0.237442
O19   O     O_R   0.708163 0.556247 0.079604 -0.202705
O20   O     O_R   0.637733 0.691495 0.211189 -0.250009
N9    N     N_R   0.071712 0.281964 0.580482 0.257954
O21   O     O_R   0.150542 0.256287 0.554338 -0.273766
O22   O     O_R   0.028905 0.191360 0.634177 -0.104149
N10   N     N_R   0.417942 0.503364 0.100279 0.304302
O23   O     O_R   0.368404 0.408233 0.122082 -0.193330
O24   O     O_R   0.384234 0.608552 0.064486 -0.281478
N11   N     N_R   0.072735 0.554424 0.248009 0.270041
O25   O     O_R   0.149919 0.597733 0.246783 -0.257237
O26   O     O_R   0.035091 0.549017 0.132783 -0.096084
N12   N     N_R   0.084084 0.342671 0.301152 0.262324
O27   O     O_R   0.165235 0.323741 0.310252 -0.257598
O28   O     O_R   0.047458 0.288093 0.199262 -0.163731
N13   N     N_R   0.911455 0.325437 0.347551 0.270556
O29   O     O_R   0.843814 0.308099 0.275181 -0.164672
O30   O     O_R   0.947552 0.227082 0.395974 -0.205187
F6    F     F_    0.908677 0.521989 0.265308 -0.520851
F7    F     F_    0.069874 0.671300 0.664099 -0.529297
N14   N     N_R   0.096640 0.751867 0.463512 0.281384
O31   O     O_R   0.063793 0.863443 0.469234 -0.164737
O32   O     O_R   0.178707 0.749004 0.451698 -0.279486
N15   N     N_R   0.914287 0.727586 0.630365 0.291800
O33   O     O_R   0.949380 0.833094 0.667795 -0.116803
O34   O     O_R   0.836743 0.708304 0.669638 -0.274682

loop_
_geom_bond_atom_site_label_1
_geom_bond_atom_site_label_2
_geom_bond_distance
_ccdc_geom_bond_type
C22   N8    1.430983 S    
N8    O19   1.300818 A    
C17   C19   1.444655 S    
C4    C8    1.394876 S    
N4    O12   1.302501 A    
C2    C16   1.396019 S    
Zn1   O7    1.975160 S    
C18   N6    1.446857 S    
C8    C14   1.184089 T    
N3    O9    1.301510 A    
O4    C2    1.289263 A    
O7    C4    1.289490 A    
N15   O34   1.301783 A    
N9    O22   1.302592 A    
N10   O24   1.302701 A    
O5    C3    1.291112 A    
C5    C9    1.636481 S    
C10   F1    1.386241 S    
C6    C7    1.609624 S    
N7    O18   1.301373 A    
C21   C22   1.505931 S    
C3    C18   1.443197 S    
N13   O29   1.302451 A    
C17   F2    1.361744 S    
C7    N13   1.487993 S    
C11   C12   1.603459 S    
C7    F6    1.388954 S    
N5    O14   1.302471 A    
O3    Zn1   1.975163 S    
N1    F5    1.338844 S    
C5    C10   1.610255 S    
N6    O16   1.301838 A    
N12   O27   1.300626 A    
C12   N15   1.489583 S    
O3    C2    1.290539 A    
N4    O11   1.301236 A    
C10   N4    1.487080 S    
N15   O33   1.302143 A    
C19   N7    1.443021 S    
C15   C16   1.187018 T    
N2    N10   1.394182 S    
C7    C11   1.593151 S    
N12   O28   1.303357 A    
N11   O26   1.302966 A    
C1    C20   1.416612 S    
C9    C13   1.623929 S    
N14   O31   1.302472 A    
C19   C20   1.348772 D    
C21   N1    1.288593 D    
Zn2   O8    1.975160 S    
C22   N2    1.306795 D    
C6    N12   1.488156 S    
Zn2   N2    2.024701 S    
C21   F4    1.357969 S    
N14   O32   1.300433 A    
O8    C4    1.289877 A    
N8    O20   1.299798 A    
C5    N9    1.489561 S    
N5    O13   1.300463 A    
C13   F7    1.381666 S    
C5    N3    1.490287 S    
Zn1   O5    1.976975 S    
C20   F3    1.363490 S    
N6    O15   1.301299 A    
Zn1   N1    2.023770 S    
O1    Zn1   1.962681 S    
O2    Zn2   1.976975 S    
C13   N14   1.487658 S    
O6    C3    1.294075 A    
O4    Zn2   1.975162 S    
N11   O25   1.300205 A    
N3    O10   1.303239 A    
O2    C1    1.283486 A    
N9    O21   1.300555 A    
C12   N5    1.489630 S    
C6    C9    1.629257 S    
N10   O23   1.300323 A    
C9    C15   1.449172 S    
C10   C11   1.584387 S    
Zn2   O6    1.962681 S    
N7    O17   1.301183 A    
C11   C14   1.449604 S    
C17   C18   1.345746 D    
C12   C13   1.605634 S    
N13   O30   1.300631 A    
C6    N11   1.487218 S    
O1    C1    1.291579 A    
