data_mof_unit_44013.cif
_audit_creation_date              2012-12-11T18:06:49-0500
_audit_creation_method            fapswitch 2.2
_symmetry_space_group_name_H-M    P1
_symmetry_Int_Tables_number       1
_space_group_crystal_system       triclinic
_cell_length_a                    8.302528
_cell_length_b                    12.715938
_cell_length_c                    26.953745
_cell_angle_alpha                 96.662206
_cell_angle_beta                  93.415769
_cell_angle_gamma                 80.922939
_cell_volume                      2788.54305082

loop_
_atom_site_label
_atom_site_type_symbol
_atom_type_description
_atom_site_fract_x
_atom_site_fract_y
_atom_site_fract_z
_atom_type_partial_charge
Ba1   Ba    Ba6+2 0.859560 0.448380 0.523550 1.684908
Ba2   Ba    Ba6+2 0.330270 0.551530 0.476440 1.736086
C1    C     C_3   0.670273 0.078919 0.665905 0.265214
C2    C     C_R   0.908719 0.608687 0.178093 0.628511
C3    C     C_2   0.757572 0.573782 0.272121 -0.135226
C4    C     C_3   0.156015 0.215280 0.660864 0.268658
C5    C     C_3   0.736076 0.601893 0.327628 -0.045520
C6    C     C_1   0.982860 0.474607 0.341331 0.007393
C7    C     C_2   0.024343 0.472521 0.294000 -0.091483
C8    C     C_2   0.903308 0.521243 0.255556 0.203026
C9    C     C_R   0.022737 0.511348 0.101343 -0.083044
C10   C     C_R   0.059006 0.418763 0.126502 -0.038629
C11   C     C_R   0.135414 0.324056 0.100375 -0.048264
C12   C     C_3   0.659593 0.183729 0.642750 0.343811
C13   C     C_R   0.946516 0.606609 0.127480 -0.031324
C14   C     C_2   0.839293 0.521429 0.357127 -0.200723
C15   C     C_2   0.351416 0.475240 0.641505 -0.272165
C16   C     C_3   0.117075 0.190171 0.712233 -0.266376
C17   C     C_R   0.187433 0.411501 0.973641 0.019754
C18   C     C_R   0.055491 0.599339 0.973422 0.020758
C19   C     C_R   0.141261 0.504418 0.948213 0.053110
C20   C     C_R   0.277292 0.320408 0.947151 -0.095808
C21   C     C_R   0.317504 0.319992 0.897592 -0.047769
C22   C     C_R   0.270111 0.410176 0.871799 -0.040552
C23   C     C_3   0.479149 0.723329 0.627674 0.239769
C24   C     C_R   0.181390 0.502524 0.897003 -0.076453
C25   C     C_R   0.133106 0.593149 0.871026 -0.038169
C26   C     C_R   0.174045 0.590526 0.820575 0.594127
C27   C     C_R   0.309950 0.409804 0.821315 0.585852
C28   C     C_3   0.216529 0.224756 0.420034 0.284697
C29   C     C_2   0.459164 0.476299 0.729850 -0.056845
C30   C     C_3   0.499072 0.484357 0.676140 -0.073014
C31   C     C_1   0.208495 0.523180 0.657093 0.028264
C32   C     C_2   0.170226 0.525247 0.704467 -0.100401
C33   C     C_2   0.301782 0.498432 0.743923 0.204729
C34   C     C_3   0.484213 0.755652 0.684051 -0.249273
C35   C     C_R   0.143423 0.412779 0.024400 0.020559
C36   C     C_R   0.062448 0.508839 0.050044 0.054259
C37   C     C_R   0.020750 0.602590 0.024994 0.018866
C38   C     C_R   0.176886 0.320985 0.050720 -0.095806
C39   C     C_R   0.910389 0.698945 0.102703 -0.026586
C40   C     C_3   0.246798 0.103943 0.407465 -0.345496
C41   C     C_R   0.006480 0.688042 0.945777 -0.096726
C42   C     C_R   0.044627 0.684878 0.895967 -0.050806
C43   C     C_R   0.946410 0.697200 0.052843 -0.097045
C44   C     C_R   0.744566 0.820307 0.473774 0.091150
C45   C     C_3   0.973524 0.853513 0.340872 0.342063
C46   C     C_R   0.440359 0.191339 0.523069 -0.288031
C47   C     C_R   0.417099 0.011779 0.538542 -0.084875
C48   C     C_R   0.355474 0.120149 0.542409 -0.009150
C49   C     C_R   0.579667 0.153936 0.495582 0.078189
C50   C     C_R   0.640201 0.042373 0.489234 -0.063878
C51   C     C_R   0.557753 0.970898 0.511548 -0.113223
C52   C     C_3   0.984884 0.775799 0.578718 0.280010
C53   C     C_R   0.613515 0.859687 0.504321 0.025739
C54   C     C_R   0.837136 0.889641 0.456568 -0.017710
C55   C     C_R   0.781677 0.999757 0.462243 -0.148828
C56   C     C_3   0.916381 0.960186 0.319359 -0.305987
C57   C     C_3   0.988130 0.895322 0.588545 -0.334306
C58   C     C_3   0.698735 0.303777 0.374368 0.286014
C59   C     C_3   0.693758 0.274715 0.317997 -0.342087
C60   C     C_2   0.656996 0.743565 0.704894 0.594828
C61   C     C_2   0.046080 0.767440 0.302038 0.690921
C62   C     C_3   0.478583 0.830702 0.347814 0.345012
C63   C     C_3   0.521605 0.895157 0.307654 0.231420
C64   C     C_R   0.017078 0.422388 0.177129 0.601284
Cl1   Cl    Cl    0.537402 0.091934 0.716436 -0.608557
Cl2   Cl    Cl    0.346444 0.942284 0.270522 -0.600865
Cl3   Cl    Cl    0.795506 0.682732 0.457218 -0.698585
H1    H     H_    0.750854 0.171183 0.613186 0.011590
H2    H     H_    0.824234 0.316458 0.386845 0.004981
H3    H     H_    0.610355 0.377934 0.383104 0.067933
H4    H     H_    0.796677 0.055135 0.680726 0.078329
H5    H     H_    0.784699 0.202613 0.307883 0.133186
H6    H     H_    0.722587 0.341979 0.299038 0.071532
H7    H     H_    0.570045 0.258074 0.304794 0.150613
H8    H     H_    0.535306 0.204306 0.625781 -0.072677
H9    H     H_    0.637226 0.015199 0.637100 0.006993
H10   H     H_    0.350255 0.720063 0.615122 0.033648
H11   H     H_    0.552727 0.642858 0.619229 -0.000093
H12   H     H_    0.337498 0.081944 0.377951 0.137812
H13   H     H_    0.423447 0.839936 0.691981 0.171707
H14   H     H_    0.415684 0.704358 0.702750 0.009081
H15   H     H_    0.151479 0.253025 0.741181 0.125553
H16   H     H_    0.864520 0.826453 0.354394 -0.195249
H17   H     H_    0.022127 0.994674 0.308498 0.193533
H18   H     H_    0.833759 0.949388 0.285883 0.114052
H19   H     H_    0.850310 0.018166 0.348044 0.077773
H20   H     H_    0.590417 0.811476 0.371966 -0.108826
H21   H     H_    0.388574 0.881922 0.372298 0.079824
H22   H     H_    0.612718 0.844505 0.283073 0.071284
H23   H     H_    0.293671 0.063972 0.440861 0.071487
H24   H     H_    0.573798 0.965790 0.325844 -0.007928
H25   H     H_    0.084088 0.293844 0.654315 0.084762
H26   H     H_    0.146533 0.437173 0.283175 0.133493
H27   H     H_    0.164128 0.251080 0.118371 0.136801
H28   H     H_    0.557987 0.460957 0.757545 0.105039
H29   H     H_    0.386663 0.247846 0.879421 0.142582
H30   H     H_    0.321051 0.247758 0.963817 0.076183
H31   H     H_    0.233501 0.244226 0.033846 0.076137
H32   H     H_    0.663521 0.607596 0.246306 0.131040
H33   H     H_    0.853410 0.773982 0.121916 0.141570
H34   H     H_    0.130719 0.075525 0.393948 0.144630
H35   H     H_    0.935767 0.761566 0.961215 0.076541
H36   H     H_    0.287719 0.221055 0.660659 0.044819
H37   H     H_    0.003915 0.755488 0.876924 0.138999
H38   H     H_    0.044261 0.546726 0.714976 0.124314
H39   H     H_    0.916243 0.772703 0.037569 0.076629
H40   H     H_    0.795068 0.504316 0.391855 0.095619
H41   H     H_    0.360628 0.425101 0.605992 0.061607
H42   H     H_    0.348000 0.960173 0.554602 0.105853
H43   H     H_    0.853097 0.050077 0.446305 0.118030
H44   H     H_    0.390583 0.275650 0.526195 0.061824
H45   H     H_    0.859126 0.761420 0.568568 0.018440
H46   H     H_    0.984617 0.188062 0.713915 0.137582
H47   H     H_    0.185007 0.111121 0.720198 0.179848
H48   H     H_    0.332993 0.253124 0.432107 0.002085
H49   H     H_    0.129461 0.244657 0.450618 0.068076
H50   H     H_    0.730924 0.664915 0.702991 -0.029173
H51   H     H_    0.077471 0.686210 0.311745 -0.065974
H52   H     H_    0.064722 0.744255 0.547138 0.096107
H53   H     H_    0.918178 0.928294 0.621889 0.119908
H54   H     H_    0.933131 0.936193 0.556175 0.075203
H55   H     H_    0.115979 0.910566 0.595447 0.137569
N1    N     N_R   0.943361 0.517061 0.202833 -0.425354
N2    N     N_R   0.261402 0.499385 0.796075 -0.432195
O1    O     O_2   0.907040 0.557650 0.617910 -0.463127
O2    O     O_2   0.167844 0.885160 0.472485 -0.486527
O3    O     O_3   0.095839 0.869601 0.378112 -0.617758
O4    O     O_3   0.139040 0.557570 0.557730 -0.485225
O5    O     O_3   0.571310 0.369620 0.475470 -0.482595
O6    O     O_2   0.348200 0.764910 0.523260 -0.477080
O7    O     O_3   0.540671 0.800279 0.604091 -0.646416
O8    O     O_2   0.426156 0.533143 0.323756 -0.493598
O9    O     O_3   0.409783 0.740988 0.325322 -0.558398
O10   O     O_2   0.044317 0.340643 0.197951 -0.576949
O11   O     O_2   0.386856 0.329288 0.799759 -0.546883
O12   O     O_3   0.656782 0.219310 0.397155 -0.643266
O13   O     O_2   0.845733 0.693072 0.200205 -0.574386
O14   O     O_2   0.133699 0.670179 0.798683 -0.572206
O15   O     O_3   0.684960 0.360550 0.588460 -0.484616
O16   O     O_2   0.837698 0.426751 0.672923 -0.505282
O17   O     O_3   0.037466 0.729491 0.622646 -0.621293
O18   O     O_3   0.694085 0.264803 0.679924 -0.568132
O19   O     O_2   0.841490 0.235060 0.476710 -0.472994
O20   O     O_3   0.099640 0.305100 0.564190 -0.493735
O21   O     O_2   0.024170 0.114952 0.530558 -0.478144
O22   O     O_2   0.715282 0.821576 0.724140 -0.505290
O23   O     O_3   0.115481 0.133861 0.624691 -0.608213
O24   O     O_2   0.075201 0.787229 0.260522 -0.501668
O25   O     O_2   0.282660 0.442310 0.382060 -0.457051
O26   O     O_3   0.050670 0.442340 0.442260 -0.466442
O27   O     O_3   0.504750 0.639360 0.411530 -0.411686
O28   O     O_3   0.153164 0.270552 0.377001 -0.620880
O29   O     O_3   0.618400 0.630290 0.524520 -0.399293
O30   O     O_3   0.090070 0.694820 0.435810 -0.406880
P1    P     P_3+3 0.072810 0.589830 0.610360 1.010098
P2    P     P_3+3 0.661990 0.251250 0.462170 0.975920
P3    P     P_3+3 0.150170 0.167450 0.565478 0.938526
P4    P     P_3+3 0.116900 0.410080 0.389630 1.017534
P5    P     P_3+3 0.044992 0.835159 0.435410 1.007474
P6    P     P_3+3 0.677282 0.385968 0.653741 0.974965
P7    P     P_3+3 0.532582 0.764924 0.539439 0.994753
P8    P     P_3+3 0.519421 0.624644 0.346468 1.012617

loop_
_geom_bond_atom_site_label_1
_geom_bond_atom_site_label_2
_ccdc_geom_bond_type
C19   C24   A    
O26   P4    S    
Ba2   O29   S    
O19   P2    D    
C33   N2    S    
C23   H11   S    
O9    P8    S    
Ba1   O19   S    
C26   O14   D    
C62   H21   S    
O21   P3    D    
C15   H41   S    
C59   H6    S    
C24   C25   A    
C2    N1    Am   
C45   O3    S    
O4    P1    S    
C32   H38   S    
C45   H16   S    
Ba1   P2    S    
C17   C19   A    
C22   C24   A    
C32   C33   S    
C35   C38   A    
C45   C61   S    
C36   C37   A    
C55   H43   S    
O16   P6    D    
C58   H3    S    
C34   H14   S    
O7    P7    S    
Ba2   O25   S    
C54   C55   A    
Ba1   O26   S    
Ba1   Ba2   S    
C12   H8    S    
Ba1   O29   S    
C41   H35   S    
C11   C38   A    
C17   C35   A    
C22   C27   A    
C4    O23   S    
C9    C13   A    
C25   C42   A    
C46   C49   A    
C34   H13   S    
C6    C7    D    
C4    H25   S    
C56   H18   S    
C30   P6    S    
C44   C53   A    
Ba2   O6    S    
C21   C22   A    
C8    N1    S    
C23   O7    S    
C7    C8    S    
O1    P1    D    
C43   H39   S    
C47   H42   S    
C57   H53   S    
C46   C48   A    
C52   O17   S    
C62   O9    S    
O15   P6    S    
C6    C14   D    
C60   O22   D    
C27   N2    Am   
C40   H34   S    
Ba2   O26   S    
C12   H1    S    
Ba1   O20   S    
C40   H12   S    
C15   C31   D    
C62   H20   S    
C34   C60   S    
C56   H17   S    
C26   N2    Am   
C14   H40   S    
O17   P1    S    
C3    H32   S    
C52   C57   S    
C51   C53   A    
C59   H7    S    
C57   H54   S    
C4    C16   S    
C12   O18   S    
C11   H27   S    
C49   C50   A    
C17   C20   A    
C13   C39   A    
Ba1   O4    S    
C16   H47   S    
C3    C5    S    
C18   C37   A    
O20   P3    S    
O27   P8    S    
C58   H2    S    
O29   P7    S    
C10   C64   A    
C54   P5    S    
C58   C59   S    
C9    C36   A    
C41   C42   A    
C61   O24   D    
O28   P4    S    
C35   C36   A    
O5    P2    S    
O12   P2    S    
C16   H15   S    
C29   C30   S    
C63   Cl2   S    
Ba2   O5    S    
O3    P5    S    
C18   C19   A    
O23   P3    S    
C60   H50   S    
C1    C12   S    
C64   O10   D    
C5    C14   S    
C52   H52   S    
O30   P5    S    
Ba2   O27   S    
C59   H5    S    
C29   C33   D    
C39   H33   S    
C6    P4    S    
C18   C41   A    
C27   O11   D    
C50   C51   A    
C57   H55   S    
C63   H22   S    
C7    H26   S    
Ba2   O30   S    
C20   H30   S    
O18   P6    S    
C23   H10   S    
C1    Cl1   S    
Ba1   O1    S    
Ba1   O5    S    
C56   H19   S    
C16   H46   S    
C38   H31   S    
C9    C10   A    
C28   H48   S    
C42   H37   S    
C48   P3    S    
C28   H49   S    
C5    P8    S    
C49   P2    S    
C64   N1    Am   
C37   C43   A    
C62   C63   S    
C2    C13   A    
Ba1   P1    S    
O6    P7    D    
C53   P7    S    
C3    C8    D    
O25   P4    D    
C2    O13   D    
C61   H51   S    
C47   C51   A    
C52   H45   S    
C63   H24   S    
O2    P5    D    
Ba2   O4    S    
C4    H36   S    
C31   C32   D    
C40   H23   S    
C29   H28   S    
C1    H4    S    
C31   P1    S    
Ba1   O15   S    
C50   C55   A    
C23   C34   S    
O8    P8    D    
C28   O28   S    
C21   H29   S    
C10   C11   A    
Ba2   P4    S    
C47   C48   A    
C44   C54   A    
C25   C26   A    
C44   Cl3   S    
C15   C30   S    
C39   C43   A    
C20   C21   A    
C28   C40   S    
C1    H9    S    
C58   O12   S    
C46   H44   S    
C45   C56   S    
