data_mof_unit_29288.cif
_audit_creation_date              2012-10-26T19:42:20-0400
_audit_creation_method            fapswitch 2.2
_symmetry_space_group_name_H-M    P1
_symmetry_Int_Tables_number       1
_space_group_crystal_system       triclinic
_cell_length_a                    9.586467
_cell_length_b                    10.863858
_cell_length_c                    17.362393
_cell_angle_alpha                 92.831837
_cell_angle_beta                  86.205205
_cell_angle_gamma                 90.353275
_cell_volume                      1802.04860457

loop_
_atom_site_label
_atom_site_type_symbol
_atom_type_description
_atom_site_fract_x
_atom_site_fract_y
_atom_site_fract_z
_atom_type_partial_charge
Br1   Br    Br    0.828036 0.693419 0.619668 -0.520278
Br2   Br    Br    0.253404 0.630534 0.273304 -0.547325
C1    C     C_R   0.500080 0.736999 0.494162 0.569700
C2    C     C_R   0.527929 0.505751 0.265923 0.025942
C3    C     C_R   0.245475 0.879193 0.457840 -0.079261
C4    C     C_R   0.481988 0.498009 0.649632 0.564712
C5    C     C_R   0.116707 0.938075 0.470238 -0.109486
C6    C     C_R   0.108808 0.053255 0.508457 -0.118199
C7    C     C_R   0.231057 0.114547 0.527164 -0.095325
C8    C     C_R   0.364286 0.061415 0.506953 0.026122
C9    C     C_R   0.369183 0.935414 0.483645 0.023408
C10   C     C_R   0.497088 0.870997 0.487951 -0.002084
C11   C     C_R   0.621250 0.937003 0.496783 -0.139359
C12   C     C_R   0.346721 0.509834 0.777094 -0.123836
C13   C     C_R   0.619637 0.064219 0.503554 -0.157122
C14   C     C_R   0.492644 0.128138 0.508502 -0.004328
C15   C     C_R   0.867038 0.334655 0.397687 -0.096237
C16   C     C_R   0.498071 0.262623 0.504680 0.525466
C17   C     C_R   0.944834 0.253222 0.348168 -0.173596
C18   C     C_R   0.088584 0.253378 0.348152 -0.145621
C19   C     C_R   0.155390 0.334916 0.397691 -0.052060
C20   C     C_R   0.080267 0.418713 0.449742 0.152694
C21   C     C_R   0.930600 0.418682 0.449743 0.133549
C22   C     C_R   0.922588 0.577776 0.547919 0.249832
C23   C     C_R   0.431943 0.549560 0.144726 -0.070794
C24   C     C_R   0.070054 0.577295 0.547526 0.019193
C25   C     C_R   0.517880 0.502761 0.350303 0.549049
C26   C     C_R   0.473342 0.488540 0.733394 0.021617
C27   C     C_R   0.592260 0.454548 0.770044 -0.108154
C28   C     C_R   0.585735 0.444456 0.849482 -0.099014
C29   C     C_R   0.460600 0.470692 0.893745 0.044465
C30   C     C_R   0.340546 0.500846 0.856942 -0.108701
C31   C     C_R   0.419123 0.553278 0.224994 0.153848
C32   C     C_R   0.649514 0.459861 0.224979 -0.151611
C33   C     C_R   0.661265 0.457203 0.144729 -0.117732
C34   C     C_R   0.551216 0.499124 0.104324 0.007613
C35   C     C_2   0.452368 0.469664 0.978377 -0.129159
C36   C     C_2   0.563832 0.492117 0.019777 -0.129398
Cu1   Cu    Cu3+1 0.359340 0.500010 0.500010 0.946235
Cu2   Cu    Cu3+1 0.640660 0.499990 0.499990 0.990987
H1    H     H_    0.754964 0.419888 0.114095 0.121522
H2    H     H_    0.265943 0.327858 0.392676 0.186649
H3    H     H_    0.122437 0.640424 0.586311 0.149844
H4    H     H_    0.734896 0.423979 0.254921 0.135851
H5    H     H_    0.242778 0.520033 0.890207 0.110564
H6    H     H_    0.349192 0.588255 0.114030 0.142692
H7    H     H_    0.350025 0.455951 0.007531 0.121359
H8    H     H_    0.678621 0.415310 0.875559 0.106494
H9    H     H_    0.690321 0.434533 0.737297 0.147202
H10   H     H_    0.022620 0.892784 0.452029 0.134366
H11   H     H_    0.667062 0.505549 0.991912 0.125177
H12   H     H_    0.720562 0.890400 0.498178 0.166367
H13   H     H_    0.253283 0.534976 0.749808 0.133935
H14   H     H_    0.246467 0.791203 0.426162 0.191113
H15   H     H_    0.008137 0.096492 0.522126 0.118083
H16   H     H_    0.218178 0.201399 0.559670 0.151964
H17   H     H_    0.718647 0.112464 0.505850 0.137256
H18   H     H_    0.757705 0.327695 0.392252 0.180083
H19   H     H_    0.892891 0.189854 0.309246 0.124783
H20   H     H_    0.149134 0.189951 0.309353 0.133392
N1    N     N_R   0.852190 0.498790 0.499250 -0.236294
N2    N     N_R   0.148060 0.498710 0.499220 -0.270957
O1    O     O_R   0.381190 0.680360 0.500010 -0.512704
O2    O     O_R   0.618760 0.680340 0.500000 -0.455776
O3    O     O_R   0.367440 0.500030 0.613600 -0.516921
O4    O     O_R   0.605010 0.500010 0.613590 -0.459463
O5    O     O_R   0.381240 0.319660 0.500000 -0.545744
O6    O     O_R   0.618810 0.319640 0.499990 -0.533943
O7    O     O_R   0.394990 0.499990 0.386410 -0.480512
O8    O     O_R   0.632560 0.499970 0.386400 -0.532138

loop_
_geom_bond_atom_site_label_1
_geom_bond_atom_site_label_2
_ccdc_geom_bond_type
C9    C10   A    
C35   C36   D    
C1    C10   S    
C1    O1    A    
C1    O2    A    
C20   N2    A    
C11   H12   S    
Cu1   O1    S    
C7    C8    A    
Cu1   O3    S    
C17   C18   A    
C25   O7    A    
C4    O4    A    
C15   H18   S    
C12   C26   A    
C12   H13   S    
C34   C36   S    
C35   H7    S    
Cu1   O7    S    
C5    C6    A    
C7    H16   S    
C27   H9    S    
C19   C20   A    
C10   C11   A    
C13   H17   S    
C15   C21   A    
C25   O8    A    
Cu2   O8    S    
C22   N1    A    
C6    H15   S    
C28   H8    S    
C26   C27   A    
C15   C17   A    
C22   C24   A    
C24   H3    S    
C3    C9    A    
C11   C13   A    
C24   N2    A    
C28   C29   A    
C33   H1    S    
C29   C30   A    
C2    C32   A    
Cu1   O5    S    
C18   H20   S    
C8    C9    A    
Cu2   N1    S    
C23   C34   A    
C16   O6    A    
C13   C14   A    
C29   C35   S    
C3    H14   S    
C21   N1    A    
C2    C25   S    
C32   H4    S    
C18   C19   A    
Br2   C31   S    
Br1   C22   S    
C14   C16   S    
C32   C33   A    
Cu2   O6    S    
C12   C30   A    
Cu1   Cu2   S    
C3    C5    A    
Cu1   N2    S    
C20   C21   A    
C8    C14   A    
C36   H11   S    
C17   H19   S    
C16   O5    A    
C2    C31   A    
Cu2   O4    S    
C23   H6    S    
C4    O3    A    
C4    C26   S    
C27   C28   A    
C19   H2    S    
C5    H10   S    
C23   C31   A    
C6    C7    A    
C30   H5    S    
C33   C34   A    
Cu2   O2    S    
