data_mof_unit_57849.cif
_audit_creation_date              2012-12-10T18:35:01-0500
_audit_creation_method            fapswitch 2.2
_symmetry_space_group_name_H-M    P1
_symmetry_Int_Tables_number       1
_space_group_crystal_system       triclinic
_cell_length_a                    15.20108
_cell_length_b                    13.839123
_cell_length_c                    10.873135
_cell_angle_alpha                 89.925531
_cell_angle_beta                  96.094666
_cell_angle_gamma                 89.873998
_cell_volume                      2274.44039024

loop_
_atom_site_label
_atom_site_type_symbol
_atom_type_description
_atom_site_fract_x
_atom_site_fract_y
_atom_site_fract_z
_atom_type_partial_charge
C1    C     C_R   0.329817 0.500272 0.502270 0.758285
C2    C     C_R   0.669919 0.500082 0.496119 0.762018
C3    C     C_R   0.233130 0.499910 0.504358 -0.076441
C4    C     C_R   0.766135 0.499287 0.490870 -0.073698
C5    C     C_R   0.187341 0.412668 0.479069 -0.213903
C6    C     C_R   0.813872 0.416127 0.532236 -0.216672
C7    C     C_R   0.095704 0.409081 0.475266 -0.181929
C8    C     C_R   0.905358 0.412706 0.533871 -0.179175
C9    C     C_R   0.048021 0.492257 0.499385 0.097824
C10   C     C_R   0.950805 0.491432 0.490707 0.095708
C11   C     C_R   0.576813 0.105559 0.532314 -0.311663
C12   C     C_R   0.423890 0.105608 0.467573 -0.313790
C13   C     C_R   0.569113 0.204082 0.565716 0.237946
C14   C     C_R   0.431007 0.204281 0.434354 0.237089
C15   C     C_R   0.500481 0.052788 0.499833 0.060453
C16   C     C_R   0.458303 0.892074 0.399698 -0.293036
C17   C     C_R   0.542912 0.891562 0.599793 -0.309131
C18   C     C_R   0.458373 0.790655 0.401897 0.102918
C19   C     C_R   0.542209 0.790144 0.597817 0.083695
C20   C     C_R   0.500633 0.944334 0.499759 0.145407
C21   C     C_R   0.508255 0.500784 0.263145 0.801412
C22   C     C_R   0.491056 0.500680 0.736549 0.802687
C23   C     C_R   0.534278 0.683015 0.120085 -0.151130
C24   C     C_R   0.458830 0.681809 0.877445 -0.158547
C25   C     C_R   0.516181 0.770008 0.058115 -0.175086
C26   C     C_R   0.475219 0.769390 0.938195 -0.175834
C27   C     C_R   0.484375 0.592624 0.935362 0.083062
C28   C     C_R   0.511068 0.592994 0.063217 0.081389
C29   C     C_R   0.516264 0.503784 0.128660 -0.203580
C30   C     C_R   0.481575 0.503456 0.870591 -0.205196
C31   C     C_R   0.514782 0.415567 0.063282 -0.046892
C32   C     C_R   0.483739 0.415411 0.936391 -0.045750
C33   C     C_R   0.093359 0.578298 0.530029 -0.213034
C34   C     C_R   0.903245 0.572104 0.442276 -0.212412
C35   C     C_R   0.184819 0.583859 0.530525 -0.013107
C36   C     C_R   0.811871 0.578126 0.443946 -0.010582
Cu1   Cu    Cu3+1 0.500000 0.596430 0.500000 0.930548
Cu2   Cu    Cu3+1 0.500000 0.403570 0.500000 0.947526
H1    H     H_    0.425479 0.929011 0.320035 0.111888
H2    H     H_    0.576007 0.928073 0.679331 0.117604
H3    H     H_    0.569862 0.688180 0.210804 0.185890
H4    H     H_    0.423317 0.685478 0.786522 0.176498
H5    H     H_    0.532887 0.837929 0.104032 0.132116
H6    H     H_    0.457529 0.836831 0.891277 0.129480
H7    H     H_    0.062158 0.341757 0.450907 0.127563
H8    H     H_    0.940563 0.349449 0.571712 0.128062
N1    N     N_R   0.500000 0.258690 0.500000 -0.188058
N2    N     N_R   0.500000 0.741330 0.500000 -0.166079
O1    O     O_R   0.371460 0.581430 0.500010 -0.571200
O2    O     O_R   0.628540 0.581430 0.499990 -0.577162
O3    O     O_R   0.371470 0.418560 0.500010 -0.603314
O4    O     O_R   0.628530 0.418560 0.499990 -0.601792
O5    O     O_R   0.500000 0.581450 0.319650 -0.603507
O6    O     O_R   0.500000 0.581450 0.680350 -0.601675
O7    O     O_R   0.500010 0.418580 0.319650 -0.575593
O8    O     O_R   0.499990 0.418580 0.680350 -0.575306
C37   C     C_R   0.566168 0.332321 0.122104 0.150992
C38   C     C_R   0.527669 0.241875 0.137129 -0.141616
C39   C     C_R   0.576019 0.166981 0.198949 -0.138816
C40   C     C_R   0.663241 0.182472 0.248914 -0.112715
C41   C     C_R   0.702377 0.272576 0.236053 -0.138193
C42   C     C_R   0.654421 0.346944 0.172576 -0.119640
H9    H     H_    0.460294 0.229517 0.100143 0.160751
H10   H     H_    0.545547 0.097230 0.209243 0.124370
H11   H     H_    0.700340 0.124797 0.297859 0.116212
H12   H     H_    0.769894 0.284885 0.275174 0.127704
H13   H     H_    0.685848 0.416441 0.163815 0.103710
C43   C     C_R   0.432453 0.332300 0.878052 0.150363
C44   C     C_R   0.471057 0.241742 0.863303 -0.141329
C45   C     C_R   0.422788 0.167002 0.801803 -0.138003
C46   C     C_R   0.335448 0.182717 0.752154 -0.111972
C47   C     C_R   0.296119 0.272861 0.765045 -0.141062
C48   C     C_R   0.344071 0.347126 0.827952 -0.120036
H14   H     H_    0.538419 0.229190 0.900376 0.161398
H15   H     H_    0.453373 0.097173 0.791624 0.124683
H16   H     H_    0.298363 0.125179 0.703533 0.113334
H17   H     H_    0.228464 0.285284 0.726347 0.125981
H18   H     H_    0.312501 0.416676 0.836666 0.104468
H19   H     H_    0.424566 0.751455 0.324996 0.119459
H20   H     H_    0.575835 0.750518 0.674766 0.122004
H21   H     H_    0.057265 0.642334 0.552977 0.133475
H22   H     H_    0.937628 0.631851 0.404107 0.134005
C49   C     C_R   0.225171 0.679482 0.557284 0.148154
C50   C     C_R   0.248496 0.708369 0.679977 -0.158797
C51   C     C_R   0.278320 0.802529 0.705674 -0.161945
C52   C     C_R   0.284822 0.868139 0.609268 -0.092571
C53   C     C_R   0.260389 0.840077 0.487016 -0.136738
C54   C     C_R   0.230782 0.745989 0.460857 -0.128806
H23   H     H_    0.242537 0.658467 0.755466 0.116191
H24   H     H_    0.295788 0.824821 0.800432 0.124398
H25   H     H_    0.308121 0.940865 0.629313 0.114979
H26   H     H_    0.264220 0.891313 0.412498 0.116703
H27   H     H_    0.211044 0.725309 0.365910 0.111722
C55   C     C_R   0.768899 0.668129 0.394671 0.128584
C56   C     C_R   0.759912 0.685741 0.266746 -0.179871
C57   C     C_R   0.730691 0.775954 0.220517 -0.160299
C58   C     C_R   0.709589 0.848747 0.301468 -0.127041
C59   C     C_R   0.719440 0.832066 0.428934 -0.129313
C60   C     C_R   0.749473 0.742297 0.475679 -0.095162
H28   H     H_    0.777010 0.630226 0.203229 0.124214
H29   H     H_    0.724032 0.789261 0.121849 0.136043
H30   H     H_    0.686482 0.918344 0.265547 0.116464
H31   H     H_    0.705170 0.889262 0.491593 0.125063
H32   H     H_    0.758972 0.731009 0.574802 0.110379
H33   H     H_    0.222103 0.347014 0.459504 0.164239
H34   H     H_    0.780818 0.353987 0.566287 0.161795
H35   H     H_    0.638240 0.066393 0.555084 0.132074
H36   H     H_    0.362569 0.066466 0.445383 0.132388
C61   C     C_R   0.626174 0.226772 0.689760 0.093287
C62   C     C_R   0.659712 0.317304 0.734075 -0.114992
C63   C     C_R   0.715729 0.326864 0.844135 -0.198850
C64   C     C_R   0.740382 0.246733 0.916318 -0.085287
C65   C     C_R   0.706677 0.157008 0.880778 -0.140170
C66   C     C_R   0.650159 0.147364 0.771566 -0.220011
H37   H     H_    0.645376 0.383980 0.691708 0.181507
H38   H     H_    0.739960 0.397539 0.873767 0.128220
H39   H     H_    0.784002 0.254546 0.001036 0.127123
H40   H     H_    0.722954 0.094623 0.939034 0.126358
H41   H     H_    0.622753 0.076226 0.755205 0.122563
C67   C     C_R   0.372859 0.227639 0.311124 0.091671
C68   C     C_R   0.339267 0.318502 0.267024 -0.109912
C69   C     C_R   0.282444 0.328603 0.157722 -0.195109
C70   C     C_R   0.257125 0.248769 0.085883 -0.085466
C71   C     C_R   0.290893 0.158767 0.121038 -0.139920
C72   C     C_R   0.348114 0.148544 0.229566 -0.220989
H42   H     H_    0.354644 0.385160 0.308303 0.181270
H43   H     H_    0.258327 0.399523 0.128189 0.128027
H44   H     H_    0.213046 0.257039 0.001599 0.126707
H45   H     H_    0.274120 0.096592 0.062973 0.126572
H46   H     H_    0.375488 0.077170 0.245411 0.122238

loop_
_geom_bond_atom_site_label_1
_geom_bond_atom_site_label_2
_ccdc_geom_bond_type
C30   C32   A    
C53   C54   A    
C4    C36   A    
C24   H4    S    
C56   C57   A    
C24   C27   A    
C56   H28   S    
C25   H5    S    
C58   C59   A    
C70   H44   S    
C26   H6    S    
C70   C71   A    
C22   O6    A    
C5    H33   S    
C51   C52   A    
C39   H10   S    
Cu1   Cu2   S    
C42   H13   S    
C7    H7    S    
C28   C29   A    
C24   C26   A    
C52   H25   S    
C64   H39   S    
Cu2   O4    S    
C59   H31   S    
C17   C20   A    
C69   H43   S    
C62   C63   A    
C13   C61   S    
C2    O2    A    
C17   C19   A    
C11   C15   A    
C41   H12   S    
Cu2   O7    S    
C31   C32   A    
C43   C44   A    
C48   H18   S    
C45   C46   A    
C9    C10   S    
C58   H30   S    
C32   C43   S    
Cu1   O5    S    
C60   H32   S    
C12   H36   S    
C39   C40   A    
C57   H29   S    
C27   C30   A    
C9    C33   A    
C44   C45   A    
C72   H46   S    
C64   C65   A    
C15   C20   S    
C37   C42   A    
C50   C51   A    
C19   H20   S    
C4    C6    A    
C5    C7    A    
C35   C49   S    
C52   C53   A    
C18   H19   S    
C22   O8    A    
Cu2   O3    S    
C43   C48   A    
C21   C29   S    
C40   C41   A    
C1    C3    S    
C17   H2    S    
C2    C4    S    
C47   H17   S    
Cu1   O1    S    
C49   C50   A    
C12   C15   A    
C3    C35   A    
C16   C20   A    
C57   C58   A    
Cu2   N1    S    
C6    H34   S    
C44   H14   S    
C10   C34   A    
C23   C28   A    
Cu1   N2    S    
C1    O3    A    
C68   C69   A    
C63   H38   S    
C2    O4    A    
C61   C66   A    
Cu1   O6    S    
C16   C18   A    
C12   C14   A    
C40   H11   S    
C55   C56   A    
C14   C67   S    
C11   H35   S    
C38   C39   A    
C50   H23   S    
C45   H15   S    
C67   C68   A    
C13   N1    A    
C65   C66   A    
C38   H9    S    
C7    C9    A    
C54   H27   S    
C21   O7    A    
C22   C30   S    
C63   C64   A    
C19   N2    A    
C66   H41   S    
C47   C48   A    
C3    C5    A    
C18   N2    A    
C6    C8    A    
C51   H24   S    
C14   N1    A    
C23   H3    S    
C31   C37   S    
C25   C26   A    
C46   C47   A    
C29   C31   A    
C61   C62   A    
C21   O5    A    
Cu1   O2    S    
C11   C13   A    
C37   C38   A    
C46   H16   S    
C1    O1    A    
C55   C60   A    
C33   C35   A    
C71   H45   S    
C49   C54   A    
C34   C36   A    
C23   C25   A    
C67   C72   A    
C41   C42   A    
C8    H8    S    
C16   H1    S    
C65   H40   S    
C36   C55   S    
C68   H42   S    
Cu2   O8    S    
C8    C10   A    
C59   C60   A    
C27   C28   A    
C34   H22   S    
C69   C70   A    
C53   H26   S    
C33   H21   S    
C62   H37   S    
C71   C72   A    
