data_mof_unit_49629.cif
_audit_creation_date              2013-03-05T15:40:29-0500
_audit_creation_method            fapswitch 2.2
_symmetry_space_group_name_H-M    P1
_symmetry_Int_Tables_number       1
_space_group_crystal_system       triclinic
_cell_length_a                    10.907043
_cell_length_b                    10.886859
_cell_length_c                    16.055196
_cell_angle_alpha                 91.699859
_cell_angle_beta                  97.339082
_cell_angle_gamma                 98.386623
_cell_volume                      1868.34363214

loop_
_atom_site_label
_atom_site_type_symbol
_atom_site_description
_atom_site_fract_x
_atom_site_fract_y
_atom_site_fract_z
_atom_type_partial_charge
Zn1   Zn    Zn3+2 0.408180 0.591840 0.569080 0.977335
Zn2   Zn    Zn3+2 0.608390 0.616500 0.442190 0.975426
Zn3   Zn    Zn3+2 0.381900 0.393170 0.419650 0.979024
Zn4   Zn    Zn3+2 0.601540 0.398480 0.569080 0.974630
O1    O     O_3   0.500000 0.500000 0.500000 -0.490498
O2    O     O_R   0.777820 0.443700 0.559450 -0.643273
O3    O     O_R   0.228980 0.549520 0.537250 -0.633893
O4    O     O_R   0.592170 0.786730 0.470640 -0.640194
O5    O     O_R   0.401030 0.220040 0.432660 -0.635383
O6    O     O_R   0.566290 0.591070 0.323460 -0.630532
O7    O     O_R   0.580640 0.419420 0.684420 -0.633178
O8    O     O_R   0.407770 0.434760 0.307690 -0.639474
O9    O     O_R   0.445300 0.554750 0.684430 -0.631320
O10   O     O_R   0.452040 0.769470 0.559450 -0.645831
O11   O     O_R   0.554760 0.223750 0.537250 -0.629432
O12   O     O_R   0.782610 0.596300 0.470630 -0.644678
O13   O     O_R   0.210590 0.410470 0.432660 -0.637931
C1    C     C_R   0.837540 0.525727 0.518985 0.838275
C2    C     C_R   0.160589 0.475499 0.482161 0.836284
C3    C     C_R   0.527799 0.835149 0.519982 0.837317
C4    C     C_R   0.474333 0.163404 0.480918 0.835214
C5    C     C_R   0.483920 0.515704 0.276190 0.827051
C6    C     C_R   0.514968 0.484049 0.723677 0.812516
C7    C     C_1   0.479226 0.522520 0.187185 -0.134774
C8    C     C_2   0.486116 0.547265 0.024296 -0.032186
C9    C     C_2   0.511841 0.452901 0.975455 -0.022411
C10   C     C_1   0.514060 0.463477 0.886443 -0.057509
C11   C     C_1   0.480359 0.532288 0.112906 -0.040579
C12   C     C_1   0.515315 0.473118 0.812137 -0.135938
C13   C     C_2   0.024824 0.460350 0.479739 -0.237074
C14   C     C_2   0.970739 0.538312 0.525914 -0.182370
C15   C     C_2   0.471236 0.029097 0.470068 -0.233565
C16   C     C_2   0.532978 0.967106 0.530205 -0.198614
C17   C     C_1   0.533699 0.335150 0.009545 0.166338
N1    N     N_1   0.551190 0.240995 0.036736 -0.237096
C18   C     C_R   0.466347 0.670420 0.991520 0.154537
C19   C     C_R   0.361340 0.723178 0.008455 -0.155133
C20   C     C_R   0.344302 0.840810 0.980689 -0.151296
C21   C     C_R   0.432090 0.907121 0.936197 -0.086637
C22   C     C_R   0.537418 0.856169 0.919760 -0.131232
C23   C     C_R   0.555095 0.738765 0.947678 -0.144281
H1    H     H_    0.292517 0.673051 0.042964 0.123767
H2    H     H_    0.263138 0.880680 0.993883 0.131380
H3    H     H_    0.418838 0.998244 0.914913 0.128541
H4    H     H_    0.605968 0.908034 0.885976 0.138998
H5    H     H_    0.638757 0.702050 0.936093 0.128562
C24   C     C_R   0.948507 0.355988 0.425782 0.116981
C25   C     C_R   0.933443 0.362364 0.337958 -0.109281
C26   C     C_R   0.861309 0.264648 0.287168 -0.139504
C27   C     C_R   0.804193 0.160069 0.323707 -0.127836
C28   C     C_R   0.818912 0.153024 0.411127 -0.148673
C29   C     C_R   0.891333 0.250340 0.462123 -0.114219
H6    H     H_    0.977058 0.443109 0.309034 0.121165
H7    H     H_    0.849679 0.269982 0.219468 0.139237
H8    H     H_    0.748796 0.084405 0.284239 0.135161
H9    H     H_    0.774447 0.072067 0.439319 0.143180
H10   H     H_    0.902755 0.243566 0.529766 0.141092
C30   C     C_1   0.036906 0.647398 0.575187 0.199353
N2    N     N_1   0.089234 0.734629 0.614493 -0.203557
C31   C     C_R   0.406314 0.965393 0.389537 0.135747
C32   C     C_R   0.447828 0.999569 0.313006 -0.102982
C33   C     C_R   0.389909 0.937553 0.237481 -0.129554
C34   C     C_R   0.289610 0.841743 0.237762 -0.113889
C35   C     C_R   0.246406 0.808442 0.313475 -0.152448
C36   C     C_R   0.303941 0.870351 0.389094 -0.139743
H11   H     H_    0.525670 0.073335 0.312023 0.114587
H12   H     H_    0.422955 0.963566 0.178754 0.143751
H13   H     H_    0.245060 0.793668 0.179301 0.121807
H14   H     H_    0.168316 0.734641 0.313602 0.126628
H15   H     H_    0.268967 0.844080 0.447206 0.142538
C37   C     C_R   0.583855 0.020005 0.616237 0.159235
C38   C     C_R   0.503398 0.055190 0.671391 -0.083714
C39   C     C_R   0.552095 0.106723 0.751709 -0.134436
C40   C     C_R   0.680871 0.121984 0.777798 -0.109238
C41   C     C_R   0.761134 0.085245 0.723737 -0.135821
C42   C     C_R   0.712895 0.033974 0.643247 -0.154253
H16   H     H_    0.403480 0.043807 0.651726 0.112040
H17   H     H_    0.490087 0.135052 0.793667 0.122260
H18   H     H_    0.718379 0.161912 0.839997 0.130468
H19   H     H_    0.860793 0.096797 0.744131 0.129539
H20   H     H_    0.775953 0.006499 0.601683 0.115492

loop_
_geom_bond_atom_site_label_1
_geom_bond_atom_site_label_2
_geom_bond_distance
_ccdc_geom_bond_type
C10   C12   1.202349 T    
C39   C40   1.397619 A    
O6    C5    1.276775 A    
C8    C11   1.445014 S    
C9    C10   1.440137 S    
C33   C34   1.397664 A    
C33   H12   1.082588 S    
Zn1   O1    1.934640 S    
C6    C12   1.428298 S    
C14   C30   1.451008 S    
C18   C19   1.406338 A    
C19   C20   1.398369 A    
C28   H9    1.082561 S    
C37   C42   1.403496 A    
C36   H15   1.082931 S    
O8    C5    1.281574 A    
O9    C6    1.282170 A    
C17   N1    1.157603 T    
C19   H1    1.083024 S    
Zn3   O8    1.912166 S    
C32   H11   1.082270 S    
C9    C17   1.448164 S    
C39   H17   1.082259 S    
Zn2   O12   1.942651 S    
C41   H19   1.082277 S    
C18   C23   1.407520 A    
C22   H4    1.081979 S    
C25   H6    1.083224 S    
O2    C1    1.271488 A    
C4    C15   1.462333 S    
C40   C41   1.398362 A    
C28   C29   1.398556 A    
O10   C3    1.258526 A    
C13   C24   1.488541 S    
C20   C21   1.397120 A    
Zn4   O2    1.940971 S    
C21   C22   1.397058 A    
C38   C39   1.398168 A    
C8    C9    1.357031 D    
C20   H2    1.082357 S    
C31   C32   1.404754 A    
C41   C42   1.398646 A    
C38   H16   1.083107 S    
Zn3   O5    1.940808 S    
C24   C25   1.403543 A    
C23   H5    1.082765 S    
C27   C28   1.397856 A    
O4    C3    1.274239 A    
C35   H14   1.082553 S    
Zn4   O7    1.905540 S    
C24   C29   1.405615 A    
C3    C16   1.433142 S    
C25   C26   1.398622 A    
C31   C36   1.406402 A    
O3    C2    1.265667 A    
C40   H18   1.082381 S    
C5    C7    1.427884 S    
Zn2   O1    1.944354 S    
Zn1   O9    1.912391 S    
C15   C31   1.491223 S    
Zn2   O6    1.905047 S    
C34   H13   1.082208 S    
C22   C23   1.398417 A    
Zn1   O3    1.939543 S    
Zn2   O4    1.934065 S    
C7    C11   1.201905 T    
Zn4   O1    1.947860 S    
Zn3   O1    1.930168 S    
C42   H20   1.083164 S    
C21   H3    1.082191 S    
Zn1   O10   1.938876 S    
C27   H8    1.082215 S    
C15   C16   1.358794 D    
Zn4   O11   1.932015 S    
C30   N2    1.157659 T    
C37   C38   1.406199 A    
C35   C36   1.398384 A    
O5    C4    1.278123 A    
C13   C14   1.355893 D    
O7    C6    1.281183 A    
O13   C2    1.272887 A    
Zn3   O13   1.941745 S    
C32   C33   1.398767 A    
C29   H10   1.083178 S    
C16   C37   1.487029 S    
C8    C18   1.489386 S    
C34   C35   1.397788 A    
O11   C4    1.270065 A    
O12   C1    1.266028 A    
C26   C27   1.398063 A    
C1    C14   1.428821 S    
C2    C13   1.461203 S    
C26   H7    1.082383 S    
