data_mof_unit_26996.cif
_audit_creation_date              2012-12-11T14:57:56-0500
_audit_creation_method            fapswitch 2.2
_symmetry_space_group_name_H-M    P1
_symmetry_Int_Tables_number       1
_space_group_crystal_system       triclinic
_cell_length_a                    6.959601
_cell_length_b                    16.319002
_cell_length_c                    17.471043
_cell_angle_alpha                 100.321379
_cell_angle_beta                  90.582023
_cell_angle_gamma                 91.277907
_cell_volume                      1951.4554655

loop_
_atom_site_label
_atom_site_type_symbol
_atom_type_description
_atom_site_fract_x
_atom_site_fract_y
_atom_site_fract_z
_atom_type_partial_charge
O1    O     O_R   0.506180 0.438940 0.579430 -0.541025
O2    O     O_R   0.170520 0.406230 0.413590 -0.529443
O3    O     O_R   0.005180 0.561060 0.420570 -0.530312
C1    C     C_R   0.338698 0.380501 0.387361 0.669554
O4    O     O_R   0.176140 0.429310 0.578370 -0.538935
O5    O     O_R   0.010830 0.584300 0.586530 -0.536762
C2    C     C_R   0.343921 0.413938 0.605023 0.784599
O6    O     O_R   0.500520 0.415700 0.413470 -0.540589
O7    O     O_3   0.340830 0.550820 0.502480 -0.363412
V1    V     V_3+5 0.064040 0.490570 0.499540 1.531378
O8    O     O_R   0.681400 0.593770 0.586410 -0.527651
C3    C     C_R   0.853693 0.619589 0.611724 0.683194
O9    O     O_R   0.675790 0.570690 0.421630 -0.532073
C4    C     C_R   0.844440 0.586960 0.395791 0.838421
V2    V     V_3+5 0.564650 0.509430 0.500460 1.530387
O10   O     O_3   0.837730 0.449180 0.497520 -0.377313
C5    C     C_R   0.911967 0.865132 0.168141 -0.216017
C6    C     C_R   0.855657 0.636942 0.332720 -0.308794
C7    C     C_R   0.956143 0.645897 0.201177 0.736691
C8    C     C_R   0.931093 0.600166 0.260902 0.481101
C9    C     C_R   0.799517 0.721037 0.343816 0.097504
C10   C     C_R   0.842082 0.769922 0.286130 -0.073384
C11   C     C_R   0.915822 0.731389 0.213298 -0.242649
C12   C     C_R   0.946328 0.779204 0.154146 0.672287
C13   C     C_R   0.862839 0.904390 0.243168 0.101749
C14   C     C_R   0.820517 0.857015 0.300398 -0.054985
H1    H     H_    0.779793 0.889821 0.356971 0.200675
C15   C     C_R   0.973989 0.914231 0.738295 -0.138750
C16   C     C_R   0.016246 0.934692 0.666222 -0.078395
C17   C     C_R   0.022507 0.872872 0.600480 0.282323
C18   C     C_R   0.974134 0.790565 0.605624 -0.148742
C19   C     C_R   0.923301 0.768489 0.677605 0.030539
C20   C     C_R   0.929908 0.830941 0.746012 0.084305
C21   C     C_R   0.873535 0.685200 0.682638 -0.080631
C22   C     C_R   0.851290 0.662753 0.756388 0.017774
C23   C     C_R   0.840798 0.725009 0.824953 -0.087898
C24   C     C_R   0.890181 0.810065 0.820123 -0.088216
C25   C     C_R   0.841905 0.577596 0.762455 -0.209448
C26   C     C_R   0.817555 0.552886 0.833405 0.146117
C27   C     C_R   0.783521 0.612064 0.899097 0.724940
C28   C     C_R   0.782411 0.697166 0.894558 0.027763
H2    H     H_    0.975437 0.964889 0.787602 0.133097
H3    H     H_    0.050517 0.998781 0.662074 0.157608
H4    H     H_    0.980887 0.744056 0.553222 0.122315
H5    H     H_    0.858138 0.528756 0.712353 0.160789
C29   C     C_R   0.416805 0.207025 0.396956 -0.188141
C30   C     C_R   0.451127 0.124365 0.402619 0.172247
C31   C     C_R   0.420917 0.061646 0.338689 -0.123434
C32   C     C_R   0.394033 0.081370 0.265323 0.585739
C33   C     C_R   0.394163 0.166148 0.255434 -0.034399
C34   C     C_R   0.382485 0.229227 0.323513 -0.015039
C35   C     C_R   0.422509 0.189297 0.181334 -0.121418
C36   C     C_R   0.435214 0.276318 0.177110 0.010979
C37   C     C_R   0.375903 0.336132 0.242702 -0.029883
C38   C     C_R   0.351892 0.313269 0.316576 -0.061906
C39   C     C_R   0.510160 0.308450 0.112063 0.002929
C40   C     C_R   0.494927 0.392932 0.108355 -0.129916
C41   C     C_R   0.412110 0.447725 0.167762 0.740754
C42   C     C_R   0.357315 0.420359 0.235031 -0.180234
H6    H     H_    0.433136 0.253987 0.448972 0.112911
H7    H     H_    0.439709 0.997240 0.344237 0.189046
H8    H     H_    0.557503 0.417661 0.060581 0.221579
H9    H     H_    0.306481 0.466712 0.282160 0.173629
C43   C     C_R   0.409801 0.139213 0.835238 -0.086062
C44   C     C_R   0.348473 0.365488 0.669325 -0.203462
C45   C     C_R   0.330166 0.360305 0.808310 0.143896
C46   C     C_R   0.325654 0.405546 0.746704 0.577431
C47   C     C_R   0.369499 0.278890 0.653552 -0.283642
C48   C     C_R   0.375746 0.232715 0.714443 0.096406
C49   C     C_R   0.358801 0.273186 0.792744 0.003961
C50   C     C_R   0.371750 0.225079 0.852619 -0.157256
C51   C     C_R   0.425967 0.100459 0.757319 0.107052
C52   C     C_R   0.401371 0.146408 0.698007 -0.109567
H10   H     H_    0.354693 0.253568 0.912864 0.151767
H11   H     H_    0.402373 0.113967 0.638933 0.184029
H12   H     H_    0.382729 0.247683 0.593761 0.158191
O11   O     O_R   0.265840 0.084300 0.086750 -0.518702
O12   O     O_R   0.589750 0.070740 0.921690 -0.529008
O13   O     O_R   0.755020 0.915730 0.913400 -0.533772
C53   C     C_R   0.420725 0.088989 0.897675 0.717119
O14   O     O_R   0.595830 0.093740 0.086480 -0.518339
O15   O     O_R   0.761150 0.938890 0.079360 -0.522484
C54   C     C_R   0.428498 0.122161 0.110354 0.825916
O16   O     O_R   0.259710 0.061140 0.920790 -0.550290
O17   O     O_3   0.425260 0.949200 0.997610 -0.347799
V3    V     V_3+5 0.702060 0.009430 0.000450 1.602534
O18   O     O_R   0.090530 0.929220 0.078150 -0.500768
C55   C     C_R   0.922286 0.913756 0.104452 0.836604
O19   O     O_R   0.084440 0.906220 0.913360 -0.538808
C56   C     C_R   0.911225 0.877602 0.890378 0.699148
V4    V     V_3+5 0.201450 0.990520 0.999290 1.628204
O20   O     O_3   0.928380 0.050800 0.002390 -0.376356
F1    F     F_    0.009824 0.742910 0.083081 -0.602608
I1    I     I_    0.115241 0.904598 0.494583 -0.297666
I2    I     I_    0.812088 0.424187 0.836764 -0.243934
I3    I     I_    0.612469 0.765603 0.982259 -0.103225
F2    F     F_    0.400641 0.529519 0.162999 -0.590899
I4    I     I_    0.595367 0.093514 0.499216 -0.359547
F3    F     F_    0.386567 0.016270 0.204918 -0.674630
I5    I     I_    0.882381 0.035964 0.275265 -0.341480
I6    I     I_    0.708174 0.250480 0.029055 -0.334118
I7    I     I_    0.490633 0.972516 0.725624 -0.395763
I8    I     I_    0.303665 0.429116 0.923405 -0.097399
F4    F     F_    0.301931 0.489258 0.762392 -0.670967
F5    F     F_    0.024246 0.606321 0.132097 -0.496700
F6    F     F_    0.973916 0.518157 0.247543 -0.655331
I9    I     I_    0.635580 0.770635 0.443853 -0.328765
F7    F     F_    0.737996 0.586125 0.966464 -0.558036

loop_
_geom_bond_atom_site_label_1
_geom_bond_atom_site_label_2
_ccdc_geom_bond_type
O18   C55   A    
C27   C28   A    
O18   V4    S    
C6    C9    A    
C43   C53   S    
C4    C6    S    
O2    C1    A    
C7    C8    A    
C53   O16   A    
O17   V4    S    
C40   H8    S    
C45   C49   A    
C36   C37   A    
C14   H1    S    
C30   I4    S    
C24   C56   S    
C15   C16   A    
C39   I6    S    
O5    C3    A    
C25   C26   A    
O12   C53   A    
C28   I3    S    
C2    C44   S    
O11   C54   A    
V2    O10   S    
C5    C55   S    
C39   C40   A    
C21   C22   A    
C43   C50   A    
C25   H5    S    
C29   C30   A    
O8    V2    S    
O13   C56   A    
O11   V4    S    
C18   C19   A    
C47   C48   A    
C44   C46   A    
C33   C35   A    
C11   C12   A    
C48   C52   A    
C49   C50   A    
O1    V2    S    
O16   V4    S    
O19   V4    S    
O7    V1    S    
C34   C38   A    
O14   V3    S    
C1    O6    A    
C27   F7    S    
O12   V3    S    
C45   C46   A    
O9    C4    A    
C16   H3    S    
C52   H11   S    
C23   C28   A    
C41   F2    S    
O14   C54   A    
C46   F4    S    
C8    F6    S    
C37   C42   A    
C5    C12   A    
C18   H4    S    
C22   C25   A    
V4    O20   S    
O4    C2    A    
C41   C42   A    
O17   V3    S    
C29   C34   A    
C20   C24   A    
C22   C23   A    
C19   C21   A    
C35   C54   S    
C7    C11   A    
C16   C17   A    
C32   F3    S    
C13   I5    S    
C30   C31   A    
C44   C47   A    
C33   C34   A    
C26   I2    S    
C9    I9    S    
O3    C4    A    
C7    F5    S    
C31   C32   A    
C15   C20   A    
O6    V2    S    
O9    V2    S    
C1    C38   S    
C3    C21   S    
O2    V1    S    
C26   C27   A    
C35   C36   A    
C36   C39   A    
C37   C38   A    
C23   C24   A    
C29   H6    S    
O1    C2    A    
C45   I8    S    
C51   C52   A    
O5    V1    S    
C50   H10   S    
O8    C3    A    
C47   H12   S    
C42   H9    S    
C5    C13   A    
C19   C20   A    
C13   C14   A    
O4    V1    S    
C17   I1    S    
O3    V1    S    
V3    O20   S    
C12   F1    S    
O15   V3    S    
C40   C41   A    
C17   C18   A    
C51   I7    S    
O15   C55   A    
C15   H2    S    
C6    C8    A    
C43   C51   A    
O7    V2    S    
C48   C49   A    
C32   C33   A    
C10   C14   A    
C31   H7    S    
C10   C11   A    
V1    O10   S    
O19   C56   A    
C9    C10   A    
O13   V3    S    
