data_mof_unit_17489.cif
_audit_creation_date              2012-12-11T16:31:28-0500
_audit_creation_method            fapswitch 2.2
_symmetry_space_group_name_H-M    P1
_symmetry_Int_Tables_number       1
_space_group_crystal_system       triclinic
_cell_length_a                    6.943929
_cell_length_b                    18.277092
_cell_length_c                    20.179875
_cell_angle_alpha                 68.310765
_cell_angle_beta                  90.491248
_cell_angle_gamma                 90.782151
_cell_volume                      2379.56399536

loop_
_atom_site_label
_atom_site_type_symbol
_atom_type_description
_atom_site_fract_x
_atom_site_fract_y
_atom_site_fract_z
_atom_type_partial_charge
O1    O     O_R   0.488990 0.443920 0.942160 -0.544544
O2    O     O_R   0.823840 0.406530 0.087600 -0.530074
O3    O     O_R   0.999650 0.556080 0.057840 -0.522618
C1    C     C_R   0.654986 0.384078 0.115446 0.813579
O4    O     O_R   0.818390 0.434590 0.944530 -0.542256
O5    O     O_R   0.994160 0.584350 0.913750 -0.539225
C2    C     C_R   0.648889 0.420475 0.924053 0.703707
O6    O     O_R   0.494480 0.415650 0.086250 -0.535464
O7    O     O_3   0.662600 0.549100 0.990070 -0.361582
V1    V     V_3+5 0.935320 0.490890 0.001840 1.463525
O8    O     O_R   0.324240 0.593470 0.912400 -0.543430
C3    C     C_R   0.155591 0.616490 0.884967 0.678253
O9    O     O_R   0.329690 0.565410 0.055470 -0.528514
C4    C     C_R   0.161986 0.579484 0.075955 0.734889
V2    V     V_3+5 0.435990 0.509110 0.998160 1.465105
O10   O     O_3   0.158840 0.450900 0.009930 -0.374549
C5    C     C_3   0.932625 0.706546 0.237733 0.204336
C6    C     C_3   0.284844 0.673877 0.272291 0.187380
C7    C     C_3   0.276015 0.721768 0.322893 0.189115
H1    H     H_    0.889613 0.644689 0.268822 0.157289
H2    H     H_    0.432944 0.681696 0.249794 0.143676
H3    H     H_    0.421809 0.748469 0.322942 0.053336
C8    C     C_1   0.111186 0.875247 0.378053 -0.164212
C9    C     C_3   0.141024 0.707786 0.208272 0.095413
C10   C     C_3   0.926271 0.753301 0.288808 -0.381312
C11   C     C_3   0.126962 0.789644 0.293749 0.168048
C12   C     C_3   0.188429 0.843114 0.216992 -0.433239
C13   C     C_3   0.203111 0.794960 0.167727 -0.436451
C14   C     C_1   0.118069 0.836838 0.340181 -0.052485
C15   C     C_1   0.149325 0.662392 0.160260 0.060642
C16   C     C_1   0.155460 0.624953 0.121534 -0.154525
H4    H     H_    0.113844 0.822534 0.119052 0.173523
H5    H     H_    0.354240 0.797536 0.148948 0.167536
H6    H     H_    0.082090 0.891036 0.194074 0.170223
H7    H     H_    0.816935 0.800653 0.270378 0.143575
H8    H     H_    0.403530 0.540732 0.694735 0.129544
C17   C     C_R   0.022682 0.767148 0.878542 -0.140951
C18   C     C_R   0.961896 0.838859 0.878954 -0.166143
C19   C     C_R   0.958146 0.904320 0.816276 -0.193743
C20   C     C_R   0.013007 0.899277 0.751147 0.337791
C21   C     C_R   0.068547 0.824834 0.748823 0.034999
C22   C     C_R   0.077414 0.758461 0.814517 0.021770
C23   C     C_R   0.117004 0.814898 0.683735 -0.203106
C24   C     C_R   0.179442 0.739899 0.685304 -0.037225
C25   C     C_R   0.204529 0.676893 0.752346 0.043264
C26   C     C_R   0.146503 0.685200 0.816235 -0.139920
C27   C     C_R   0.220860 0.724882 0.621966 0.327596
C28   C     C_R   0.307831 0.654814 0.626486 -0.097641
C29   C     C_R   0.340322 0.595602 0.692054 -0.209203
C30   C     C_R   0.284669 0.605319 0.754137 -0.153371
H9    H     H_    0.027918 0.718754 0.929517 0.109308
H10   H     H_    0.920586 0.844037 0.928645 0.129607
C31   C     C_R   0.548891 0.229390 0.121890 -0.139064
C32   C     C_R   0.495561 0.155309 0.122656 -0.114040
C33   C     C_R   0.482693 0.091537 0.186894 -0.125331
C34   C     C_R   0.523613 0.101365 0.250802 -0.148574
C35   C     C_R   0.577686 0.175990 0.251723 0.073110
C36   C     C_R   0.590138 0.241451 0.186049 0.047106
C37   C     C_R   0.621238 0.185603 0.316641 -0.140698
C38   C     C_R   0.674945 0.260990 0.316197 0.016347
C39   C     C_R   0.684361 0.327827 0.250799 -0.027873
C40   C     C_R   0.644033 0.317072 0.185201 -0.167696
C41   C     C_R   0.716763 0.270725 0.380954 -0.189416
C42   C     C_R   0.765760 0.343698 0.382606 -0.243934
C43   C     C_R   0.772839 0.410457 0.319829 0.354383
C44   C     C_R   0.731227 0.403443 0.253539 0.325121
H11   H     H_    0.557575 0.276848 0.070364 0.083177
H12   H     H_    0.464398 0.147363 0.073067 0.105792
H13   H     H_    0.441429 0.034052 0.187238 0.105318
H14   H     H_    0.512805 0.049742 0.299319 0.098332
O11   O     O_R   0.770890 0.084490 0.414040 -0.541781
O12   O     O_R   0.445980 0.065450 0.555510 -0.534967
O13   O     O_R   0.270670 0.915620 0.586180 -0.522945
C45   C     C_R   0.615283 0.079616 0.576116 0.740169
O14   O     O_R   0.441480 0.093500 0.412450 -0.543537
O15   O     O_R   0.266140 0.943870 0.442100 -0.531720
C46   C     C_R   0.610474 0.116538 0.385102 0.677372
O16   O     O_R   0.775410 0.056240 0.558120 -0.523459
O17   O     O_3   0.602660 0.950990 0.510100 -0.369426
V3    V     V_3+5 0.329740 0.009100 0.498130 1.482695
O18   O     O_R   0.936120 0.934420 0.444240 -0.549443
C47   C     C_R   0.103920 0.921316 0.423092 0.757436
O19   O     O_R   0.940610 0.906370 0.587310 -0.535366
C48   C     C_R   0.109238 0.883230 0.614850 0.866275
V4    V     V_3+5 0.829110 0.990690 0.501470 1.460713
O20   O     O_3   0.106080 0.049010 0.489880 -0.368275
C49   C     C_3   0.830893 0.248139 0.706951 -0.331419
C50   C     C_3   0.477927 0.274990 0.683177 -0.321102
C51   C     C_3   0.479202 0.322950 0.732873 -0.328903
H15   H     H_    0.867688 0.287883 0.651662 0.142241
H16   H     H_    0.507522 0.315292 0.627405 0.145172
H17   H     H_    0.509515 0.386091 0.700791 0.139392
C52   C     C_1   0.639001 0.374780 0.878628 -0.187100
C53   C     C_3   0.630817 0.209024 0.707590 0.285860
C54   C     C_3   0.832135 0.296087 0.756655 -0.326378
C55   C     C_3   0.632939 0.291008 0.792600 0.289794
C56   C     C_3   0.586064 0.202888 0.835348 -0.330578
C57   C     C_3   0.584940 0.154929 0.785639 -0.324343
C58   C     C_1   0.634797 0.336976 0.840127 -0.102440
C59   C     C_1   0.628910 0.163075 0.660059 -0.103313
C60   C     C_1   0.624759 0.125294 0.621548 -0.181071
H18   H     H_    0.693088 0.107188 0.805049 0.133985
H19   H     H_    0.441341 0.126272 0.788020 0.140054
H20   H     H_    0.943803 0.202201 0.724834 0.134036
H21   H     H_    0.945755 0.272996 0.798173 0.135166
H22   H     H_    0.442980 0.197123 0.861348 0.135494
H23   H     H_    0.879806 0.713004 0.342744 0.167867
O21   O     O_3   0.796358 0.734644 0.182134 -0.652479
H24   H     H_    0.808503 0.792795 0.160313 0.291881
H25   H     H_    0.330099 0.871659 0.218611 0.149745
H26   H     H_    0.913955 0.959908 0.818659 0.101531
O22   O     O_3   0.017082 0.967056 0.690557 -0.654812
H27   H     H_    0.975830 0.012667 0.702171 0.275465
O23   O     O_3   0.168483 0.774569 0.554894 -0.661822
H28   H     H_    0.028560 0.783473 0.557078 0.263794
H29   H     H_    0.342829 0.644905 0.578285 0.136685
H30   H     H_    0.306758 0.555887 0.803517 0.122750
O24   O     O_3   0.818841 0.483377 0.321982 -0.658257
H31   H     H_    0.842707 0.478024 0.372086 0.289428
H32   H     H_    0.711237 0.221859 0.431661 0.123161
H33   H     H_    0.796722 0.348222 0.433668 0.128060
O25   O     O_3   0.732105 0.469804 0.191475 -0.646862
H34   H     H_    0.766825 0.517488 0.201329 0.334238
H35   H     H_    0.869626 0.358674 0.725037 0.142374
H36   H     H_    0.332172 0.248700 0.683603 0.138349
H37   H     H_    0.334085 0.319500 0.756928 0.137217
H38   H     H_    0.694676 0.177978 0.878469 0.137264
O26   O     O_3   0.259658 0.592138 0.308924 -0.608364
H39   H     H_    0.134502 0.582703 0.333981 0.332139
O27   O     O_3   0.229689 0.671998 0.393058 -0.633681
H40   H     H_    0.283356 0.696900 0.425492 0.302737

loop_
_geom_bond_atom_site_label_1
_geom_bond_atom_site_label_2
_ccdc_geom_bond_type
C54   H35   S    
C36   C40   A    
C27   O23   S    
C33   C34   A    
C55   C58   S    
C8    C47   S    
C30   H30   S    
C21   C22   A    
C54   C55   S    
O11   C46   A    
C4    C16   S    
C1    O6    A    
O26   H39   S    
C37   C46   S    
C56   C57   S    
C20   O22   S    
V4    O20   S    
C34   C35   A    
C11   C12   S    
C17   C18   A    
C38   C41   A    
C6    C9    S    
C8    C14   T    
O5    C3    A    
C18   C19   A    
C17   H9    S    
C35   C37   A    
C32   H12   S    
C53   C57   S    
C42   H33   S    
C6    H2    S    
C49   C53   S    
C1    C40   S    
C5    H1    S    
O21   H24   S    
C6    C7    S    
C22   C26   A    
C17   C22   A    
C7    C11   S    
O24   H31   S    
V3    O20   S    
C54   H21   S    
C6    O26   S    
O11   V4    S    
O8    V2    S    
C39   C44   A    
O19   C48   A    
C12   H25   S    
C49   C54   S    
C43   O24   S    
C44   O25   S    
O1    V2    S    
O14   V3    S    
C52   C58   T    
O13   C48   A    
C24   C27   A    
C56   H38   S    
C28   H29   S    
C7    O27   S    
C19   H26   S    
C37   C38   A    
O9    C4    A    
C23   C48   S    
C21   C23   A    
O22   H27   S    
O23   H28   S    
C51   H37   S    
C12   H6    S    
C2    C52   S    
C50   C53   S    
C5    C9    S    
V2    O10   S    
C9    C13   S    
C13   H4    S    
C7    H3    S    
O17   V3    S    
C3    C26   S    
C5    O21   S    
O15   C47   A    
C19   C20   A    
O4    C2    A    
C10   C11   S    
C57   H18   S    
O18   C47   A    
C41   C42   A    
C38   C39   A    
O2    C1    A    
C23   C24   A    
C50   H36   S    
C27   C28   A    
C50   H16   S    
C53   C59   S    
C31   C36   A    
C55   C56   S    
C51   H17   S    
O14   C46   A    
C33   H13   S    
O3    C4    A    
C10   H7    S    
C45   C60   S    
C56   H22   S    
O16   V4    S    
O12   C45   A    
C28   C29   A    
O19   V4    S    
C13   H5    S    
C43   C44   A    
O6    V2    S    
C34   H14   S    
O9    V2    S    
O2    V1    S    
O17   V4    S    
C24   C25   A    
C10   H23   S    
O7    V1    S    
C32   C33   A    
C20   C21   A    
O1    C2    A    
O15   V3    S    
O5    V1    S    
O8    C3    A    
C31   C32   A    
C5    C10   S    
C42   C43   A    
C51   C55   S    
O27   H40   S    
O7    V2    S    
O4    V1    S    
O12   V3    S    
O3    V1    S    
V1    O10   S    
C41   H32   S    
C35   C36   A    
C15   C16   T    
C25   C30   A    
C59   C60   T    
O13   V3    S    
C39   C40   A    
C31   H11   S    
C9    C15   S    
C49   H20   S    
C25   C26   A    
C18   H10   S    
C50   C51   S    
C11   C14   S    
C29   C30   A    
C45   O16   A    
C49   H15   S    
C12   C13   S    
O25   H34   S    
O18   V4    S    
H8    C29   S    
C57   H19   S    
