data_mof_unit_44493.cif
_audit_creation_date              2012-12-10T17:32:18-0500
_audit_creation_method            fapswitch 2.2
_symmetry_space_group_name_H-M    P1
_symmetry_Int_Tables_number       1
_space_group_crystal_system       triclinic
_cell_length_a                    12.321488
_cell_length_b                    13.150765
_cell_length_c                    15.048147
_cell_angle_alpha                 77.450989
_cell_angle_beta                  101.324037
_cell_angle_gamma                 116.692534
_cell_volume                      2112.77871382

loop_
_atom_site_label
_atom_site_type_symbol
_atom_type_description
_atom_site_fract_x
_atom_site_fract_y
_atom_site_fract_z
_atom_type_partial_charge
C1    C     C_R   0.855046 0.286442 0.507961 0.832125
C2    C     C_R   0.964587 0.568890 0.074367 0.110829
C3    C     C_R   0.029956 0.315310 0.086171 -0.197036
C4    C     C_R   0.028910 0.314786 0.993749 -0.204897
C5    C     C_R   0.007851 0.398890 0.926935 0.117660
C6    C     C_R   0.985213 0.483234 0.954180 0.022255
C7    C     C_R   0.962552 0.567817 0.888134 0.109862
C8    C     C_R   0.939481 0.650843 0.915477 -0.196422
C9    C     C_R   0.940519 0.651391 0.008074 -0.190216
C10   C     C_R   0.010812 0.401269 0.833731 0.097161
C11   C     C_R   0.991618 0.488614 0.768454 -0.103492
C12   C     C_R   0.997330 0.496295 0.671246 0.790661
C13   C     C_R   0.965066 0.569253 0.795814 -0.277091
C14   C     C_R   0.278321 0.021047 0.367997 0.087368
C15   C     C_R   0.228008 0.835624 0.464378 -0.189348
C16   C     C_R   0.813726 0.085554 0.572846 -0.199657
C17   C     C_R   0.733621 0.970920 0.592642 -0.134826
C18   C     C_R   0.611135 0.933220 0.557617 -0.139150
C19   C     C_R   0.566896 0.009417 0.498046 0.046274
C20   C     C_R   0.652658 0.122412 0.468167 -0.046549
C21   C     C_R   0.440754 0.976658 0.466281 0.026305
C22   C     C_R   0.403518 0.052590 0.399051 -0.018335
C23   C     C_R   0.145152 0.713796 0.485622 0.846365
C24   C     C_R   0.492266 0.156823 0.361550 -0.231545
C25   C     C_R   0.615045 0.190177 0.393599 0.565088
C26   C     C_R   0.350382 0.870578 0.500058 -0.318745
C27   C     C_R   0.191128 0.912088 0.400276 0.546148
C28   C     C_R   0.773817 0.163004 0.513034 -0.083885
C29   C     C_R   0.344251 0.324299 0.643401 -0.291481
C30   C     C_R   0.759684 0.645976 0.375949 0.130606
C31   C     C_R   0.663626 0.678502 0.349567 -0.240212
C32   C     C_R   0.560346 0.623807 0.396408 -0.194033
C33   C     C_R   0.551812 0.535232 0.470711 -0.007356
C34   C     C_R   0.998572 0.497130 0.329358 0.847427
C35   C     C_R   0.653017 0.505152 0.495484 0.292054
C36   C     C_R   0.447159 0.475338 0.521166 -0.032956
C37   C     C_R   0.445628 0.386086 0.594025 0.174465
C38   C     C_R   0.545178 0.358756 0.617384 -0.280910
C39   C     C_R   0.646740 0.417497 0.569811 -0.179291
C40   C     C_R   0.342998 0.499410 0.502865 0.018260
C41   C     C_R   0.244634 0.351395 0.621296 0.069855
C42   C     C_R   0.968421 0.571018 0.166950 -0.263504
C43   C     C_R   0.994796 0.490253 0.233460 -0.087843
C44   C     C_R   0.013981 0.402846 0.207691 0.103720
C45   C     C_R   0.009902 0.399920 0.114352 0.117643
C46   C     C_R   0.986286 0.483786 0.047710 0.021794
Cu1   Cu    Cu3+1 0.098270 0.475420 0.521130 0.924893
Cu2   Cu    Cu3+1 0.901730 0.524580 0.478870 0.991573
H1    H     H_    0.952867 0.637043 0.187638 0.157804
H2    H     H_    0.467452 0.212801 0.305752 0.205221
H3    H     H_    0.372550 0.811664 0.553724 0.175261
H4    H     H_    0.906445 0.114288 0.606627 0.149330
H5    H     H_    0.554457 0.843274 0.576949 0.126881
H6    H     H_    0.765650 0.911613 0.638246 0.139522
H7    H     H_    0.165279 0.302661 0.658007 0.115151
H8    H     H_    0.544920 0.291170 0.673549 0.155275
H9    H     H_    0.341902 0.255119 0.698546 0.139506
H10   H     H_    0.336430 0.565977 0.448999 0.126396
H11   H     H_    0.839432 0.688939 0.339197 0.167709
H12   H     H_    0.488692 0.652304 0.372907 0.140418
H13   H     H_    0.669226 0.746347 0.292566 0.156100
H14   H     H_    0.718418 0.390854 0.594095 0.197869
H15   H     H_    0.047867 0.249583 0.135355 0.186082
H16   H     H_    0.046106 0.248681 0.975213 0.182389
H17   H     H_    0.949237 0.635110 0.745037 0.160496
H18   H     H_    0.921700 0.715967 0.865274 0.140713
H19   H     H_    0.923434 0.716885 0.027912 0.144965
N1    N     N_R   0.246280 0.438190 0.553160 -0.181211
N2    N     N_R   0.754320 0.561190 0.447410 -0.208352
O1    O     O_R   0.972510 0.318130 0.526570 -0.604158
O2    O     O_R   0.806530 0.359650 0.490890 -0.553004
O3    O     O_R   0.082980 0.479210 0.647590 -0.586315
O4    O     O_R   0.917000 0.520730 0.611900 -0.608681
O5    O     O_R   0.193470 0.640350 0.509110 -0.596796
O6    O     O_R   0.027490 0.681870 0.473430 -0.534835
O7    O     O_R   0.083000 0.479270 0.388100 -0.608541
O8    O     O_R   0.917020 0.520790 0.352410 -0.543734
N3    N     N_3   0.239947 0.098418 0.301795 -0.592488
H20   H     H_    0.193677 0.057977 0.244184 0.247018
H21   H     H_    0.178298 0.113455 0.329958 0.254712
F1    F     F_    0.696885 0.284230 0.345729 -0.663152
N4    N     N_3   0.033676 0.314853 0.274850 -0.600487
H22   H     H_    0.118451 0.351812 0.313322 0.243911
H23   H     H_    0.964356 0.277442 0.317953 0.247151
N5    N     N_3   0.031132 0.313604 0.806551 -0.617894
H24   H     H_    0.117235 0.351045 0.783509 0.237569
H25   H     H_    0.963674 0.277490 0.753932 0.212446
F2    F     F_    0.071947 0.879613 0.365386 -0.691855

loop_
_geom_bond_atom_site_label_1
_geom_bond_atom_site_label_2
_ccdc_geom_bond_type
C16   C28   A    
C21   C26   A    
C10   N5    S    
C8    H18   S    
C31   H13   S    
C19   C20   A    
Cu2   N2    S    
C7    C8    A    
C13   H17   S    
C45   C46   A    
C2    C46   A    
C1    O2    A    
C36   C37   A    
C19   C21   A    
Cu1   O7    S    
C44   N4    S    
C34   O8    A    
C30   C31   A    
N3    H21   S    
C20   C25   A    
C33   C36   A    
C18   C19   A    
C41   H7    S    
C18   H5    S    
Cu1   Cu2   S    
C16   C17   A    
C1    C28   S    
C14   C27   A    
C15   C23   S    
C12   O3    A    
C21   C22   A    
C25   F1    S    
Cu2   O6    S    
C41   N1    A    
N5    H25   S    
C24   H2    S    
C38   C39   A    
C40   H10   S    
C36   C40   A    
C24   C25   A    
N3    H20   S    
C8    C9    A    
C15   C26   A    
C20   C28   A    
N5    H24   S    
C3    C45   A    
Cu2   O8    S    
C35   C39   A    
C43   C44   A    
C9    H19   S    
Cu1   O1    S    
C37   C38   A    
C15   C27   A    
C31   C32   A    
C30   H11   S    
C17   C18   A    
C29   H9    S    
N4    H23   S    
C22   C24   A    
C42   C43   A    
C32   H12   S    
Cu2   O2    S    
C3    C4    A    
Cu1   N1    S    
C30   N2    A    
C44   C45   A    
C39   H14   S    
C6    C46   A    
C29   C41   A    
Cu2   O4    S    
C34   C43   S    
C16   H4    S    
Cu1   O5    S    
C23   O6    A    
C4    C5    A    
C11   C12   S    
C6    C7    A    
C3    H15   S    
C4    H16   S    
C1    O1    A    
C32   C33   A    
C14   C22   A    
C5    C10   A    
C26   H3    S    
C11   C13   A    
C5    C6    A    
C2    C42   A    
C33   C35   A    
C14   N3    S    
C27   F2    S    
Cu1   O3    S    
C10   C11   A    
C42   H1    S    
C7    C13   A    
C38   H8    S    
C35   N2    A    
N4    H22   S    
C40   N1    A    
C29   C37   A    
C23   O5    A    
C12   O4    A    
C2    C9    A    
C17   H6    S    
C34   O7    A    
