data_mof_unit_37738.cif
_audit_creation_date              2012-12-11T14:27:00-0500
_audit_creation_method            fapswitch 2.2
_symmetry_space_group_name_H-M    P1
_symmetry_Int_Tables_number       1
_space_group_crystal_system       triclinic
_cell_length_a                    14.987935
_cell_length_b                    14.843245
_cell_length_c                    14.944026
_cell_angle_alpha                 109.336753
_cell_angle_beta                  109.273085
_cell_angle_gamma                 109.215462
_cell_volume                      2577.68527867

loop_
_atom_site_label
_atom_site_type_symbol
_atom_type_description
_atom_site_fract_x
_atom_site_fract_y
_atom_site_fract_z
_atom_type_partial_charge
C1    C     C_R   0.991684 0.798837 0.085432 -0.160670
C2    C     C_R   0.208004 0.799746 0.299820 -0.113729
C3    C     C_R   0.901446 0.408652 0.204876 -0.171423
C4    C     C_R   0.782724 0.210911 0.691057 -0.164771
C5    C     C_R   0.300749 0.592444 0.998975 -0.131674
C6    C     C_R   0.925891 0.499133 0.294988 -0.060758
C7    C     C_R   0.302547 0.501988 0.936045 -0.005029
C8    C     C_R   0.301580 0.860932 0.301494 0.140203
C9    C     C_R   0.059189 0.233939 0.057349 0.130912
C10   C     C_3   0.473480 0.402954 0.831791 -0.395394
C11   C     C_3   0.369471 0.402562 0.827714 -0.399046
C12   C     C_R   0.683471 0.158293 0.683843 0.123909
C13   C     C_3   0.565335 0.497714 0.038264 -0.359102
C14   C     C_3   0.575744 0.608504 0.940655 -0.396253
C15   C     C_3   0.574522 0.503044 0.939530 0.362202
C16   C     C_R   0.043761 0.593061 0.777939 -0.109529
C17   C     C_3   0.399085 0.502533 0.932323 0.381483
C18   C     C_3   0.462355 0.496967 0.033712 -0.386589
C19   C     C_3   0.472109 0.608526 0.937128 -0.403103
C20   C     C_2   0.390636 0.021782 0.476735 -0.114035
C21   C     C_2   0.385627 0.972440 0.381539 -0.195941
C22   C     C_2   0.496013 0.099064 0.573340 -0.115559
C23   C     C_R   0.978099 0.501835 0.675133 0.093854
C24   C     C_2   0.581278 0.082659 0.584983 -0.186905
C25   C     C_2   0.856073 0.420859 0.482157 -0.008103
C26   C     C_2   0.947423 0.503279 0.573542 -0.124995
C27   C     C_2   0.842966 0.410334 0.377471 -0.349518
C28   C     C_R   0.686631 0.410342 0.935313 -0.138947
C29   C     C_2   0.875211 0.498135 0.363541 0.535961
C30   C     C_2   0.164517 0.140477 0.077403 -0.099118
C31   C     C_2   0.111081 0.186403 0.113118 -0.191047
C32   C     C_2   0.158088 0.040361 0.079156 -0.108236
C33   C     C_2   0.072713 0.971110 0.078066 -0.190623
C34   C     C_R   0.675645 0.502692 0.951779 -0.004976
C35   C     C_R   0.953228 0.409264 0.686407 -0.129766
C36   C     C_R   0.777288 0.593226 0.027391 -0.104003
C37   C     C_R   0.694294 0.207938 0.785152 0.037407
C38   C     C_R   0.083695 0.798615 0.994888 -0.103746
C39   C     C_R   0.047190 0.859015 0.049677 0.141116
C40   C     C_R   0.991486 0.590430 0.295986 -0.052548
C41   C     C_R   0.210722 0.410096 0.905560 -0.152354
C42   C     C_R   0.299926 0.799204 0.208686 -0.148777
C43   C     C_R   0.980297 0.256878 0.069649 -0.143611
C44   C     C_R   0.072045 0.256388 0.978025 -0.103287
H1    H     H_    0.967404 0.829238 0.144432 0.092559
H2    H     H_    0.478996 0.406448 0.760452 0.162961
H3    H     H_    0.323277 0.405393 0.754101 0.159142
H4    H     H_    0.804086 0.185604 0.628389 0.100891
H5    H     H_    0.317788 0.324147 0.820465 0.149136
H6    H     H_    0.564157 0.422490 0.038845 0.163501
H7    H     H_    0.411356 0.421024 0.031183 0.160479
H8    H     H_    0.646341 0.683587 0.015645 0.148778
H9    H     H_    0.581505 0.612867 0.869715 0.165794
H10   H     H_    0.427048 0.614049 0.865028 0.159508
H11   H     H_    0.496979 0.682928 0.011375 0.149916
H12   H     H_    0.181940 0.325727 0.849641 0.091427
H13   H     H_    0.636747 0.569507 0.116100 0.196306
H14   H     H_    0.484164 0.568119 0.109526 0.173048
H15   H     H_    0.321086 0.993917 0.488598 0.124323
H16   H     H_    0.080856 0.678083 0.798232 0.111668
H17   H     H_    0.455035 0.005962 0.370521 0.134468
H18   H     H_    0.501312 0.164809 0.638744 0.120608
H19   H     H_    0.577474 0.017242 0.520665 0.139586
H20   H     H_    0.801819 0.351418 0.482576 0.116069
H21   H     H_    0.004928 0.570288 0.573059 0.167040
H22   H     H_    0.835336 0.334496 0.324110 0.110260
H23   H     H_    0.353996 0.827250 0.178762 0.090086
H24   H     H_    0.195544 0.161757 0.026986 0.118319
H25   H     H_    0.086934 0.170663 0.169738 0.129418
H26   H     H_    0.214166 0.015468 0.063297 0.118971
H27   H     H_    0.622658 0.326924 0.889375 0.085910
H28   H     H_    0.014122 0.993128 0.091034 0.130928
H29   H     H_    0.910083 0.325204 0.622251 0.088425
H30   H     H_    0.798485 0.678252 0.066134 0.088057
H31   H     H_    0.141309 0.826907 0.968727 0.082955
H32   H     H_    0.013130 0.674228 0.345819 0.128219
H33   H     H_    0.865002 0.722164 0.360344 0.348054
H34   H     H_    0.951604 0.249249 0.125677 0.101894
H35   H     H_    0.557473 0.145091 0.794493 0.085866
H36   H     H_    0.673832 0.197038 0.909686 0.098997
H37   H     H_    0.127744 0.248862 0.949183 0.090378
H38   H     H_    0.177190 0.827719 0.353043 0.088239
H39   H     H_    0.837962 0.325531 0.169389 0.096165
H40   H     H_    0.355757 0.677971 0.031417 0.086705
H41   H     H_    0.467458 0.324257 0.825261 0.144522
N1    N     N_R   0.993980 0.704500 0.053430 -0.040271
N2    N     N_R   0.053690 0.556380 0.849240 -0.046444
N3    N     N_R   0.790390 0.443640 0.997160 -0.036806
N4    N     N_R   0.998260 0.443670 0.792970 -0.038912
N5    N     N_R   0.845830 0.556350 0.053430 -0.034467
N6    N     N_R   0.792820 0.295510 0.849240 -0.056605
N7    N     N_R   0.051260 0.704510 0.997160 -0.044293
N8    N     N_R   0.001740 0.556330 0.207030 -0.048436
N9    N     N_3   0.633978 0.151200 0.824653 -0.209637
N10   N     N_R   0.154170 0.443650 0.946570 -0.034484
N11   N     N_R   0.207180 0.704490 0.150760 -0.041418
N12   N     N_R   0.948740 0.295490 0.002840 -0.044459
N13   N     N_R   0.006020 0.295500 0.946570 -0.045977
N14   N     N_R   0.149890 0.704480 0.207030 -0.047223
N15   N     N_R   0.946310 0.443620 0.150760 -0.033472
N16   N     N_R   0.209610 0.556360 0.002840 -0.033529
N17   N     N_R   0.850110 0.295520 0.792970 -0.044986
Ni1   Ni    Ni4+2 0.997880 0.629240 0.129060 0.214500
Ni2   Ni    Ni4+2 0.002120 0.370760 0.870940 0.215919
Ni3   Ni    Ni4+2 0.129260 0.629260 0.000000 0.208499
Ni4   Ni    Ni4+2 0.870740 0.370740 0.000000 0.209580
O1    O     O_2   0.791315 0.589305 0.478108 -0.236975
O2    O     O_2   0.973793 0.708972 0.518251 -0.354929
O3    O     O_3   0.808509 0.648204 0.336722 -0.551746
S1    S     S_3+6 0.863263 0.614183 0.429496 -0.046886

loop_
_geom_bond_atom_site_label_1
_geom_bond_atom_site_label_2
_ccdc_geom_bond_type
N14   Ni1   S    
N11   Ni3   S    
C10   H41   S    
C27   C29   D    
C11   H3    S    
C40   N8    A    
C3    C6    A    
N8    Ni1   S    
N12   N13   A    
C41   N10   A    
C43   H34   S    
C33   C39   S    
C13   C18   S    
C42   N11   A    
C8    C42   A    
C10   C15   S    
C30   C31   D    
C24   H19   S    
C13   H13   S    
C19   H11   S    
N11   N14   A    
C38   N7    A    
C16   H16   S    
C23   C26   S    
C12   C37   A    
C33   H28   S    
C44   N13   A    
C3    N15   A    
C18   H14   S    
C14   H8    S    
C7    C17   S    
C4    N17   A    
C28   N3    A    
C16   N2    A    
C4    C12   A    
C15   C34   S    
C21   H17   S    
C28   C34   A    
N6    Ni4   S    
N1    Ni1   S    
C18   H7    S    
C8    C21   S    
C38   H31   S    
N16   Ni3   S    
C5    N16   A    
C9    C43   A    
C37   N6    A    
C29   S1    S    
H35   N9    S    
C44   H37   S    
C5    C7    A    
C5    H40   S    
C9    C31   S    
C32   H26   S    
C25   C26   D    
C40   H32   S    
C25   H20   S    
N17   Ni2   S    
C41   H12   S    
C10   H2    S    
C11   H5    S    
C22   H18   S    
N3    Ni4   S    
N2    Ni3   S    
C6    C29   S    
C17   C18   S    
C20   H15   S    
H33   O3    S    
N8    N15   A    
C36   H30   S    
N12   Ni4   S    
C35   N4    A    
C19   H10   S    
C20   C22   S    
C2    N14   A    
C16   C23   A    
C23   C35   A    
C13   C15   S    
N4    Ni2   S    
C3    H39   S    
C42   H23   S    
O1    S1    D    
C6    C40   A    
C2    H38   S    
C28   H27   S    
N6    N17   A    
H36   N9    S    
N10   Ni2   S    
C4    H4    S    
C36   N5    A    
C1    N1    A    
C35   H29   S    
C9    C44   A    
C26   H21   S    
C14   C19   S    
C2    C8    A    
C43   N12   A    
N3    N5    A    
C11   C17   S    
C25   C27   S    
C12   C24   S    
N15   Ni4   S    
C32   C33   D    
N2    N4    A    
C27   H22   S    
N1    N7    A    
O3    S1    S    
C30   C32   S    
C1    H1    S    
C38   C39   A    
N13   Ni2   S    
C17   C19   S    
C34   C36   A    
O2    S1    D    
C37   N9    S    
C22   C24   D    
C7    C41   A    
N5    Ni1   S    
C10   C11   S    
C1    C39   A    
C13   H6    S    
N7    Ni3   S    
C31   H25   S    
C14   H9    S    
C20   C21   D    
C14   C15   S    
C30   H24   S    
N10   N16   A    
