data_mof_unit_14350.cif
_audit_creation_date              2012-10-26T20:22:30-0400
_audit_creation_method            fapswitch 2.2
_symmetry_space_group_name_H-M    P1
_symmetry_Int_Tables_number       1
_space_group_crystal_system       triclinic
_cell_length_a                    9.628553
_cell_length_b                    10.956609
_cell_length_c                    17.31192
_cell_angle_alpha                 92.319654
_cell_angle_beta                  87.249843
_cell_angle_gamma                 89.994797
_cell_volume                      1822.74124112

loop_
_atom_site_label
_atom_site_type_symbol
_atom_type_description
_atom_site_fract_x
_atom_site_fract_y
_atom_site_fract_z
_atom_type_partial_charge
C1    C     C_R   0.499968 0.737459 0.497497 0.570094
C2    C     C_R   0.078284 0.438119 0.442375 0.121899
C3    C     C_R   0.069308 0.561240 0.557467 0.334436
C4    C     C_R   0.930689 0.438723 0.442551 0.336667
C5    C     C_R   0.483291 0.500097 0.649344 0.593994
C6    C     C_R   0.516659 0.500160 0.350649 0.598886
C7    C     C_R   0.479181 0.502992 0.733604 0.024646
C8    C     C_R   0.519909 0.500764 0.266448 0.021992
C9    C     C_R   0.551910 0.413508 0.772338 -0.071565
C10   C     C_R   0.451020 0.594668 0.229607 -0.076586
C11   C     C_R   0.574237 0.432985 0.851812 0.194875
C12   C     C_R   0.499960 0.262630 0.502924 0.572088
C13   C     C_R   0.428290 0.580335 0.149882 0.229931
C14   C     C_R   0.509668 0.532624 0.892405 0.012861
C15   C     C_R   0.483195 0.477634 0.107859 0.145372
C16   C     C_R   0.429024 0.616739 0.855190 0.180015
C17   C     C_R   0.554876 0.385946 0.143923 0.217409
C18   C     C_R   0.419850 0.605448 0.774056 0.213826
C19   C     C_R   0.576869 0.399341 0.223955 0.194799
C20   C     C_2   0.522140 0.546146 0.976744 0.362452
C21   C     C_2   0.461690 0.464562 0.024677 0.412164
C22   C     C_3   0.600927 0.296372 0.730371 -0.385072
C23   C     C_R   0.625316 0.935477 0.505931 0.222621
C24   C     C_3   0.407448 0.711548 0.273764 -0.381408
C25   C     C_3   0.755709 0.124796 0.544132 -0.372459
C26   C     C_3   0.243156 0.875670 0.458087 -0.370973
C27   C     C_3   0.845960 0.632575 0.623630 -0.271739
C28   C     C_3   0.154029 0.367306 0.376420 -0.268911
C29   C     C_R   0.374257 0.064768 0.495640 0.222813
C30   C     C_R   0.624845 0.062998 0.516059 -0.055809
C31   C     C_R   0.374620 0.937270 0.485510 -0.056012
C32   C     C_R   0.500221 0.128422 0.505541 0.023541
C33   C     C_R   0.499456 0.871779 0.495600 0.022107
C34   C     C_R   0.921713 0.561847 0.557640 0.122238
Cu1   Cu    Cu3+1 0.359340 0.499980 0.500000 0.976215
Cu2   Cu    Cu3+1 0.640660 0.500020 0.500000 0.976186
H1    H     H_    0.572204 0.216828 0.765535 0.160053
H2    H     H_    0.639008 0.688917 0.963940 0.347345
H3    H     H_    0.277052 0.732674 0.873003 0.348802
H4    H     H_    0.600602 0.213047 0.133299 0.342517
H5    H     H_    0.295875 0.716133 0.147508 0.337867
H6    H     H_    0.715856 0.305590 0.856600 0.340879
H7    H     H_    0.821961 0.918128 0.477483 0.322499
H8    H     H_    0.178138 0.082432 0.525214 0.321431
H9    H     H_    0.729878 0.195836 0.589734 0.146847
H10   H     H_    0.824754 0.061003 0.572537 0.147943
H11   H     H_    0.815413 0.164812 0.494927 0.150634
H12   H     H_    0.550966 0.280532 0.674509 0.133236
H13   H     H_    0.268066 0.805029 0.412132 0.147970
H14   H     H_    0.184474 0.835267 0.507499 0.149623
H15   H     H_    0.173354 0.939605 0.430340 0.149354
H16   H     H_    0.824384 0.571737 0.672503 0.137660
H17   H     H_    0.908267 0.710825 0.645315 0.154776
H18   H     H_    0.750023 0.675638 0.606691 0.203390
H19   H     H_    0.091727 0.289012 0.354791 0.155154
H20   H     H_    0.175553 0.428067 0.327501 0.140091
H21   H     H_    0.249984 0.324290 0.393367 0.203736
H22   H     H_    0.212453 0.664604 0.596565 0.382808
H23   H     H_    0.715468 0.298913 0.719645 0.131302
H24   H     H_    0.787635 0.335179 0.403517 0.381419
H25   H     H_    0.442415 0.791756 0.240803 0.164318
H26   H     H_    0.292588 0.713786 0.283039 0.128407
H27   H     H_    0.455446 0.721882 0.330526 0.135623
H28   H     H_    0.722429 0.277205 0.226315 0.349667
H29   H     H_    0.366054 0.774322 0.761186 0.334795
H30   H     H_    0.350521 0.379061 0.947183 0.324476
N1    N     N_R   0.147930 0.499970 0.499980 -0.265294
N2    N     N_R   0.852070 0.500030 0.500020 -0.264457
O1    O     O_R   0.381260 0.680340 0.500000 -0.555386
O2    O     O_3   0.359763 0.694775 0.732341 -0.684815
O3    O     O_3   0.381291 0.366776 0.000008 -0.643185
O4    O     O_3   0.600241 0.640931 0.007285 -0.649359
O5    O     O_3   0.360436 0.707545 0.899742 -0.653983
O6    O     O_3   0.598589 0.283983 0.099729 -0.624151
O7    O     O_3   0.352569 0.663444 0.110614 -0.633154
O8    O     O_3   0.654342 0.355476 0.892693 -0.640536
O9    O     O_3   0.749093 0.871482 0.505941 -0.695605
O10   O     O_3   0.250440 0.128790 0.496114 -0.694938
O11   O     O_3   0.130729 0.621716 0.617980 -0.668727
O12   O     O_R   0.618740 0.319660 0.500000 -0.555152
O13   O     O_3   0.869264 0.378173 0.382072 -0.675588
O14   O     O_R   0.618830 0.680370 0.500010 -0.450581
O15   O     O_R   0.381170 0.319630 0.499990 -0.450917
O16   O     O_R   0.367440 0.500000 0.613600 -0.438908
O17   O     O_R   0.632560 0.500000 0.386400 -0.437681
O18   O     O_R   0.605010 0.500030 0.613600 -0.550211
O19   O     O_R   0.394990 0.499970 0.386400 -0.550544
O20   O     O_3   0.650144 0.314279 0.262551 -0.685048

loop_
_geom_bond_atom_site_label_1
_geom_bond_atom_site_label_2
_ccdc_geom_bond_type
C18   O2    S    
C22   H12   S    
C24   H25   S    
Cu1   Cu2   S    
C3    O11   S    
C28   H20   S    
C27   H18   S    
C1    C33   S    
C28   H21   S    
C6    O17   A    
C21   O3    S    
C29   C32   A    
C11   O8    S    
C26   H14   S    
C11   C14   A    
C9    C22   S    
H29   O2    S    
C7    C9    A    
Cu1   O19   S    
C29   O10   S    
C13   O7    S    
Cu2   O14   S    
C23   C33   A    
C31   C33   A    
C25   H11   S    
C26   C31   S    
C12   C32   S    
C28   H19   S    
C27   C34   S    
H2    O4    S    
C8    C19   A    
C4    O13   S    
C16   O5    S    
C23   C30   A    
C14   C20   S    
C2    N1    A    
Cu2   O12   S    
C26   H13   S    
C34   N2    A    
C22   H23   S    
C4    N2    A    
C5    O16   A    
Cu1   O15   S    
C6    C8    S    
C3    C34   A    
C10   C24   S    
C1    O14   A    
C22   H1    S    
C1    O1    A    
C6    O19   A    
C12   O15   A    
C2    C4    A    
H5    O7    S    
H24   O13   S    
H30   O3    S    
Cu1   N1    S    
C7    C18   A    
Cu2   N2    S    
C23   O9    S    
C9    C11   A    
H22   O11   S    
C5    O18   A    
C16   C18   A    
C19   O20   S    
C24   H27   S    
C13   C15   A    
C17   O6    S    
C14   C16   A    
C25   H9    S    
C27   H16   S    
C5    C7    S    
C25   C30   S    
C15   C17   A    
C24   H26   S    
C3    N1    A    
C10   C13   A    
Cu1   O16   S    
C27   H17   S    
Cu2   O17   S    
H7    O9    S    
H6    O8    S    
Cu2   O18   S    
H8    O10   S    
C29   C31   A    
C26   H15   S    
C30   C32   A    
C12   O12   A    
C17   C19   A    
H4    O6    S    
H3    O5    S    
C15   C21   S    
C20   C21   D    
Cu1   O1    S    
C8    C10   A    
C20   O4    S    
C2    C28   S    
C25   H10   S    
H28   O20   S    
