data_mof_unit_35138.cif
_audit_creation_date              2012-12-11T15:09:00-0500
_audit_creation_method            fapswitch 2.2
_symmetry_space_group_name_H-M    P1
_symmetry_Int_Tables_number       1
_space_group_crystal_system       triclinic
_cell_length_a                    19.335146
_cell_length_b                    11.361937
_cell_length_c                    18.699837
_cell_angle_alpha                 90.316489
_cell_angle_beta                  90.022693
_cell_angle_gamma                 89.856821
_cell_volume                      4107.99248264

loop_
_atom_site_label
_atom_site_type_symbol
_atom_type_description
_atom_site_fract_x
_atom_site_fract_y
_atom_site_fract_z
_atom_type_partial_charge
C1    C     C_R   0.271815 0.046803 0.852349 0.526686
C2    C     C_R   0.727618 0.044342 0.146676 0.529070
C3    C     C_R   0.771815 0.546803 0.852349 0.526686
C4    C     C_R   0.227618 0.544342 0.146676 0.529070
C5    C     C_3   0.520010 0.727118 0.964938 -0.112063
C6    C     C_3   0.480636 0.732956 0.036119 -0.113875
C7    C     C_3   0.020010 0.227118 0.964938 -0.112063
C8    C     C_3   0.980636 0.232956 0.036119 -0.113875
C9    C     C_3   0.313583 0.543460 0.046464 -0.256068
C10   C     C_3   0.687428 0.544887 0.952400 -0.256245
C11   C     C_3   0.813583 0.043460 0.046464 -0.256068
C12   C     C_3   0.187428 0.044887 0.952400 -0.256245
C13   C     C_3   0.326991 0.591288 0.971163 -0.252134
C14   C     C_3   0.676941 0.576497 0.031260 -0.249046
C15   C     C_3   0.826991 0.091287 0.971163 -0.252134
C16   C     C_3   0.176941 0.076498 0.031260 -0.249046
C17   C     C_3   0.183160 0.535140 0.024785 -0.211048
C18   C     C_3   0.819651 0.528518 0.971604 -0.199228
C19   C     C_3   0.683160 0.035140 0.024785 -0.211048
C20   C     C_3   0.319651 0.028518 0.971604 -0.199229
C21   C     C_3   0.239889 0.721775 0.065815 -0.088785
C22   C     C_3   0.764504 0.718838 0.940987 -0.096527
C23   C     C_3   0.739889 0.221775 0.065815 -0.088785
C24   C     C_3   0.264504 0.218838 0.940987 -0.096527
C25   C     C_3   0.241770 0.585617 0.073515 0.079707
C26   C     C_3   0.760045 0.584443 0.926838 0.084553
C27   C     C_3   0.741770 0.085617 0.073515 0.079706
C28   C     C_3   0.260045 0.084443 0.926838 0.084554
C29   C     C_3   0.259301 0.638930 0.937698 0.036792
C30   C     C_3   0.745172 0.621166 0.064972 0.039024
C31   C     C_3   0.759301 0.138930 0.937698 0.036792
C32   C     C_3   0.245172 0.121166 0.064972 0.039025
C33   C     C_3   0.200403 0.547780 0.945053 -0.235445
C34   C     C_3   0.804549 0.533309 0.051939 -0.257001
C35   C     C_3   0.700403 0.047780 0.945054 -0.235444
C36   C     C_3   0.304549 0.033309 0.051939 -0.257001
C37   C     C_3   0.234570 0.747052 0.983800 -0.216534
C38   C     C_3   0.766530 0.735769 0.024236 -0.199686
C39   C     C_3   0.734570 0.247052 0.983800 -0.216534
C40   C     C_3   0.266530 0.235769 0.024236 -0.199686
C41   C     C_3   0.503606 0.702052 0.460031 -0.227350
C42   C     C_3   0.496550 0.701763 0.539379 -0.229024
C43   C     C_3   0.003606 0.202052 0.460031 -0.227350
C44   C     C_3   0.996550 0.201763 0.539379 -0.229024
C45   C     C_R   0.445812 0.818414 0.862459 0.529685
C46   C     C_R   0.557378 0.817482 0.137856 0.539749
C47   C     C_R   0.945812 0.318414 0.862459 0.529684
C48   C     C_R   0.057378 0.317482 0.137856 0.539749
C49   C     C_3   0.564679 0.904616 0.473719 -0.216390
C50   C     C_3   0.435214 0.904243 0.527105 -0.215167
C51   C     C_3   0.064679 0.404616 0.473719 -0.216390
C52   C     C_3   0.935214 0.404243 0.527105 -0.215167
C53   C     C_3   0.440575 0.887212 0.444989 -0.264286
C54   C     C_3   0.559414 0.886755 0.555669 -0.263944
C55   C     C_3   0.940575 0.387212 0.444989 -0.264286
C56   C     C_3   0.059414 0.386754 0.555669 -0.263944
C57   C     C_3   0.510531 0.829409 0.430953 0.063002
C58   C     C_3   0.489562 0.828836 0.569277 0.062574
C59   C     C_3   0.010531 0.329409 0.430953 0.063002
C60   C     C_3   0.989562 0.328836 0.569277 0.062574
C61   C     C_3   0.179326 0.646568 0.459470 -0.228447
C62   C     C_3   0.820349 0.646167 0.540835 -0.227255
C63   C     C_3   0.679326 0.146568 0.459470 -0.228447
C64   C     C_3   0.320349 0.146167 0.540835 -0.227255
C65   C     C_3   0.184367 0.659924 0.538701 -0.227649
C66   C     C_3   0.815432 0.659743 0.461637 -0.227833
C67   C     C_3   0.684367 0.159924 0.538701 -0.227649
C68   C     C_3   0.315432 0.159743 0.461637 -0.227833
C69   C     C_3   0.252807 0.455471 0.472472 -0.213539
C70   C     C_3   0.747226 0.455192 0.526283 -0.214499
C71   C     C_3   0.752807 0.955471 0.472472 -0.213538
C72   C     C_3   0.247226 0.955192 0.526283 -0.214500
C73   C     C_3   0.304761 0.647656 0.442383 -0.265110
C74   C     C_3   0.695101 0.647304 0.558133 -0.264216
C75   C     C_3   0.804761 0.147656 0.442383 -0.265110
C76   C     C_3   0.195101 0.147304 0.558133 -0.264216
C77   C     C_3   0.240617 0.572603 0.429866 0.067915
C78   C     C_3   0.759304 0.571959 0.569987 0.067228
C79   C     C_3   0.740617 0.072603 0.429866 0.067915
C80   C     C_3   0.259303 0.071959 0.569987 0.067228
C81   C     C_3   0.252852 0.606001 0.567492 0.063648
C82   C     C_3   0.747108 0.606415 0.432462 0.064233
C83   C     C_3   0.752852 0.106001 0.567492 0.063648
C84   C     C_3   0.247108 0.106415 0.432462 0.064233
C85   C     C_3   0.247479 0.473647 0.554288 -0.265150
C86   C     C_3   0.752564 0.473927 0.444596 -0.263921
C87   C     C_3   0.747479 0.973647 0.554288 -0.265149
C88   C     C_3   0.252564 0.973927 0.444596 -0.263921
C89   C     C_R   0.270513 0.674578 0.861184 0.537440
C90   C     C_R   0.736623 0.648561 0.142915 0.533394
C91   C     C_R   0.770513 0.174578 0.861184 0.537440
C92   C     C_R   0.236623 0.148561 0.142915 0.533395
C93   C     C_3   0.317530 0.648336 0.524115 -0.217515
C94   C     C_3   0.682459 0.648900 0.476355 -0.217382
C95   C     C_3   0.817530 0.148337 0.524115 -0.217515
C96   C     C_3   0.182459 0.148900 0.476355 -0.217382
C97   C     C_R   0.273081 0.042818 0.645676 0.536665
C98   C     C_R   0.727027 0.043505 0.354149 0.535864
C99   C     C_R   0.773081 0.542818 0.645676 0.536665
C100  C     C_R   0.227027 0.543505 0.354149 0.535864
C101  C     C_R   0.468751 0.822828 0.645532 0.543272
C102  C     C_R   0.531302 0.823233 0.354568 0.542718
C103  C     C_R   0.968751 0.322828 0.645532 0.543272
C104  C     C_R   0.031302 0.323233 0.354568 0.542718
C105  C     C_R   0.260922 0.640035 0.643547 0.545607
C106  C     C_R   0.739001 0.640692 0.356538 0.541005
C107  C     C_R   0.760922 0.140035 0.643547 0.545607
C108  C     C_R   0.239001 0.140692 0.356538 0.541005
C109  C     C_3   0.486044 0.925050 0.035016 -0.108723
C110  C     C_3   0.525353 0.919206 0.962754 -0.110463
C111  C     C_3   0.986043 0.425050 0.035017 -0.108723
C112  C     C_3   0.025353 0.419206 0.962754 -0.110462
C113  C     C_3   0.434571 0.832299 0.007471 -0.162372
C114  C     C_3   0.571463 0.819742 0.992350 -0.159493
C115  C     C_3   0.934571 0.332298 0.007471 -0.162372
C116  C     C_3   0.071463 0.319742 0.992350 -0.159493
C117  C     C_3   0.474225 0.826066 0.936009 0.057329
C118  C     C_3   0.531538 0.825182 0.063548 0.056458
C119  C     C_3   0.974225 0.326065 0.936009 0.057329
C120  C     C_3   0.031538 0.325182 0.063548 0.056457
Cr1   Cr    Cr6+3 0.229620 0.836040 0.749110 0.987712
Cr2   Cr    Cr6+3 0.770380 0.836040 0.250890 0.988607
Cr3   Cr    Cr6+3 0.729620 0.336040 0.749110 0.987712
Cr4   Cr    Cr6+3 0.270380 0.336040 0.250890 0.988607
Cr5   Cr    Cr6+3 0.387630 0.990680 0.750730 0.982753
Cr6   Cr    Cr6+3 0.612370 0.990680 0.249270 0.983041
Cr7   Cr    Cr6+3 0.887630 0.490680 0.750730 0.982753
Cr8   Cr    Cr6+3 0.112370 0.490680 0.249270 0.983041
Cr9   Cr    Cr6+3 0.386020 0.676590 0.749210 0.988330
Cr10  Cr    Cr6+3 0.613980 0.676590 0.250790 0.986137
Cr11  Cr    Cr6+3 0.886020 0.176590 0.749210 0.988330
Cr12  Cr    Cr6+3 0.113980 0.176590 0.250790 0.986137
H1    H     H_    0.380197 0.831320 0.023596 0.086775
H2    H     H_    0.626336 0.811130 0.979822 0.084917
H3    H     H_    0.880196 0.331319 0.023596 0.086775
H4    H     H_    0.126336 0.311130 0.979821 0.084917
H5    H     H_    0.291513 0.752190 0.084012 0.098914
H6    H     H_    0.715149 0.755946 0.921200 0.096722
H7    H     H_    0.791513 0.252189 0.084013 0.098914
H8    H     H_    0.215149 0.255946 0.921200 0.096722
H9    H     H_    0.264720 0.822596 0.970932 0.092589
H10   H     H_    0.732306 0.806238 0.040753 0.091971
H11   H     H_    0.764721 0.322596 0.970932 0.092589
H12   H     H_    0.232306 0.306237 0.040753 0.091971
H13   H     H_    0.180551 0.766725 0.968694 0.133837
H14   H     H_    0.819190 0.759459 0.042037 0.140198
H15   H     H_    0.680552 0.266726 0.968695 0.133837
H16   H     H_    0.319190 0.259459 0.042037 0.140198
H17   H     H_    0.634052 0.082794 0.034212 0.140457
H18   H     H_    0.368386 0.076819 0.964184 0.147652
H19   H     H_    0.134052 0.582794 0.034212 0.140457
H20   H     H_    0.868386 0.576820 0.964184 0.147652
H21   H     H_    0.153340 0.578979 0.916655 0.131629
H22   H     H_    0.851787 0.562149 0.081124 0.123311
H23   H     H_    0.653340 0.078980 0.916656 0.131628
H24   H     H_    0.351787 0.062148 0.081124 0.123311
H25   H     H_    0.546599 0.644957 0.445346 0.137279
H26   H     H_    0.453477 0.645125 0.553605 0.136437
H27   H     H_    0.046599 0.144957 0.445346 0.137279
H28   H     H_    0.953477 0.145125 0.553605 0.136437
H29   H     H_    0.458290 0.658008 0.435482 0.114508
H30   H     H_    0.541871 0.657338 0.563592 0.114413
H31   H     H_    0.958290 0.158008 0.435482 0.114508
H32   H     H_    0.041871 0.157338 0.563592 0.114413
H33   H     H_    0.616749 0.896185 0.453220 0.113428
H34   H     H_    0.383149 0.895523 0.547452 0.113911
H35   H     H_    0.116749 0.396185 0.453220 0.113428
H36   H     H_    0.883149 0.395523 0.547452 0.113911
H37   H     H_    0.472757 0.007479 0.064041 0.108893
H38   H     H_    0.542574 0.996650 0.931754 0.108132
H39   H     H_    0.972757 0.507479 0.064041 0.108893
H40   H     H_    0.042573 0.496650 0.931754 0.108132
H41   H     H_    0.437360 0.972995 0.417087 0.109548
H42   H     H_    0.562572 0.972344 0.584396 0.110383
H43   H     H_    0.937360 0.472995 0.417087 0.109548
H44   H     H_    0.062572 0.472344 0.584396 0.110383
H45   H     H_    0.449492 0.996652 0.537735 0.119210
H46   H     H_    0.550265 0.997245 0.464070 0.117785
H47   H     H_    0.949492 0.496652 0.537735 0.119210
H48   H     H_    0.050265 0.497245 0.464070 0.117785
H49   H     H_    0.128978 0.609812 0.446190 0.135664
H50   H     H_    0.870824 0.609904 0.553927 0.135079
H51   H     H_    0.628978 0.109812 0.446190 0.135664
H52   H     H_    0.370825 0.109904 0.553927 0.135079
H53   H     H_    0.178581 0.734882 0.434199 0.113394
H54   H     H_    0.820766 0.734403 0.566748 0.114110
H55   H     H_    0.678581 0.234882 0.434199 0.113394
H56   H     H_    0.320765 0.234403 0.566748 0.114110
H57   H     H_    0.178780 0.753130 0.551883 0.135408
H58   H     H_    0.820971 0.752806 0.449110 0.134241
H59   H     H_    0.678780 0.253130 0.551883 0.135408
H60   H     H_    0.320971 0.252806 0.449110 0.134241
H61   H     H_    0.139229 0.617386 0.564451 0.115987
H62   H     H_    0.860598 0.617069 0.435587 0.115870
H63   H     H_    0.639229 0.117386 0.564451 0.115987
H64   H     H_    0.360598 0.117069 0.435587 0.115870
H65   H     H_    0.722347 0.881924 0.453098 0.113223
H66   H     H_    0.277740 0.881366 0.544837 0.112175
H67   H     H_    0.222347 0.381924 0.453098 0.113223
H68   H     H_    0.777740 0.381366 0.544837 0.112175
H69   H     H_    0.698124 0.939493 0.575185 0.109730
H70   H     H_    0.301929 0.939643 0.423333 0.108858
H71   H     H_    0.198124 0.439493 0.575185 0.109730
H72   H     H_    0.801929 0.439644 0.423333 0.108858
H73   H     H_    0.349588 0.609256 0.413395 0.109550
H74   H     H_    0.650320 0.608763 0.586680 0.110077
H75   H     H_    0.849588 0.109256 0.413395 0.109550
H76   H     H_    0.150320 0.108763 0.586680 0.110077
H77   H     H_    0.296584 0.737833 0.422057 0.107279
H78   H     H_    0.703123 0.737231 0.579480 0.107475
H79   H     H_    0.796584 0.237833 0.422057 0.107279
H80   H     H_    0.203123 0.237231 0.579480 0.107475
H81   H     H_    0.533010 0.643693 0.936941 0.122480
H82   H     H_    0.462790 0.654456 0.065714 0.124044
H83   H     H_    0.033010 0.143693 0.936941 0.122480
H84   H     H_    0.962790 0.154455 0.065714 0.124044
H85   H     H_    0.338441 0.730912 0.543416 0.113215
H86   H     H_    0.661680 0.731920 0.458073 0.113179
H87   H     H_    0.838441 0.230912 0.543416 0.113215
H88   H     H_    0.161680 0.231920 0.458073 0.113179
H89   H     H_    0.358023 0.581668 0.533838 0.118089
H90   H     H_    0.642015 0.582657 0.465976 0.118527
H91   H     H_    0.858023 0.081668 0.533838 0.118089
H92   H     H_    0.142015 0.082657 0.465976 0.118527
H93   H     H_    0.307014 0.429771 0.461498 0.118988
H94   H     H_    0.693068 0.429487 0.536912 0.117992
H95   H     H_    0.807014 0.929771 0.461498 0.118988
H96   H     H_    0.193068 0.929487 0.536912 0.117992
H97   H     H_    0.289993 0.426508 0.582099 0.108336
H98   H     H_    0.710122 0.427070 0.416360 0.108154
H99   H     H_    0.789993 0.926508 0.582099 0.108335
H100  H     H_    0.210122 0.927070 0.416360 0.108154
H101  H     H_    0.316500 0.447411 0.044854 0.134880
H102  H     H_    0.679293 0.450355 0.944187 0.134745
H103  H     H_    0.816500 0.947411 0.044854 0.134880
H104  H     H_    0.179293 0.950356 0.944187 0.134745
H105  H     H_    0.354851 0.573430 0.083614 0.108898
H106  H     H_    0.647022 0.588594 0.919641 0.105789
H107  H     H_    0.854851 0.073430 0.083614 0.108898
H108  H     H_    0.147022 0.088594 0.919641 0.105789
H109  H     H_    0.363372 0.663422 0.973880 0.115325
H110  H     H_    0.637358 0.644870 0.037223 0.126282
H111  H     H_    0.863372 0.163421 0.973879 0.115325
H112  H     H_    0.137358 0.144870 0.037223 0.126281
H113  H     H_    0.355921 0.527897 0.938251 0.137556
H114  H     H_    0.653395 0.502725 0.058925 0.136566
H115  H     H_    0.855921 0.027896 0.938251 0.137556
H116  H     H_    0.153395 0.002725 0.058925 0.136565
H117  H     H_    0.670059 0.946583 0.040285 0.093462
H118  H     H_    0.334844 0.943368 0.949469 0.091619
H119  H     H_    0.170059 0.446582 0.040285 0.093462
H120  H     H_    0.834845 0.443368 0.949469 0.091619
O1    O     O_R   0.214130 0.708570 0.829890 -0.525669
O2    O     O_R   0.785870 0.708570 0.170110 -0.528702
O3    O     O_R   0.714130 0.208570 0.829890 -0.525669
O4    O     O_R   0.285870 0.208570 0.170110 -0.528702
O5    O     O_R   0.446360 0.919990 0.675230 -0.505901
O6    O     O_R   0.553640 0.919990 0.324770 -0.506139
O7    O     O_R   0.946360 0.419990 0.675230 -0.505901
O8    O     O_R   0.053640 0.419990 0.324770 -0.506139
O9    O     O_R   0.457170 0.717300 0.668380 -0.530121
O10   O     O_R   0.542830 0.717300 0.331620 -0.530753
O11   O     O_R   0.957170 0.217300 0.668380 -0.530121
O12   O     O_R   0.042830 0.217300 0.331620 -0.530753
O13   O     O_R   0.320870 0.624890 0.673130 -0.507823
O14   O     O_R   0.679130 0.624890 0.326870 -0.510420
O15   O     O_R   0.820870 0.124890 0.673130 -0.507823
O16   O     O_R   0.179130 0.124890 0.326870 -0.510420
O17   O     O_3   0.334430 0.834430 0.749680 -0.290043
O18   O     O_3   0.665570 0.834430 0.250320 -0.283314
O19   O     O_3   0.834430 0.334430 0.749680 -0.290043
O20   O     O_3   0.165570 0.334430 0.250320 -0.283314
O21   O     O_R   0.236050 0.959150 0.825270 -0.523717
O22   O     O_R   0.763950 0.959150 0.174730 -0.517410
O23   O     O_R   0.736050 0.459150 0.825270 -0.523717
O24   O     O_R   0.263950 0.459150 0.174730 -0.517410
O25   O     O_R   0.332100 0.076650 0.832310 -0.538625
O26   O     O_R   0.667900 0.076650 0.167690 -0.541229
O27   O     O_R   0.832100 0.576650 0.832310 -0.538625
O28   O     O_R   0.167900 0.576650 0.167690 -0.541229
O29   O     O_R   0.446500 0.918620 0.826240 -0.506326
O30   O     O_R   0.553500 0.918620 0.173760 -0.507101
O31   O     O_R   0.946500 0.418620 0.826240 -0.506325
O32   O     O_R   0.053500 0.418620 0.173760 -0.507101
O33   O     O_R   0.457310 0.715830 0.831280 -0.526337
O34   O     O_R   0.542690 0.715830 0.168720 -0.525154
O35   O     O_R   0.957310 0.215830 0.831280 -0.526337
O36   O     O_R   0.042690 0.215830 0.168720 -0.525154
O37   O     O_R   0.321000 0.623520 0.824130 -0.515880
O38   O     O_R   0.679000 0.623520 0.175870 -0.521021
O39   O     O_R   0.821000 0.123520 0.824130 -0.515881
O40   O     O_R   0.179000 0.123520 0.175870 -0.521021
O41   O     O_R   0.213990 0.710040 0.667000 -0.531024
O42   O     O_R   0.786010 0.710040 0.333000 -0.532551
O43   O     O_R   0.713990 0.210040 0.667000 -0.531024
O44   O     O_R   0.286010 0.210040 0.333000 -0.532551
O45   O     O_R   0.235920 0.960520 0.674260 -0.512239
O46   O     O_R   0.764080 0.960520 0.325740 -0.512258
O47   O     O_R   0.735920 0.460520 0.674260 -0.512239
O48   O     O_R   0.264080 0.460520 0.325740 -0.512258
O49   O     O_R   0.331960 0.078120 0.669410 -0.536421
O50   O     O_R   0.668040 0.078120 0.330590 -0.537539
O51   O     O_R   0.831960 0.578120 0.669410 -0.536421
O52   O     O_R   0.168040 0.578120 0.330590 -0.537539
C121  C     C_3   0.189151 0.793093 0.115779 -0.243927
C122  C     C_3   0.111223 0.791788 0.098597 -0.413672
H121  H     H_    0.100075 0.816809 0.042692 0.115440
H122  H     H_    0.086719 0.706197 0.110060 0.175070
H123  H     H_    0.084931 0.857404 0.133522 0.128595
H124  H     H_    0.197192 0.769670 0.172581 0.169906
H125  H     H_    0.205732 0.884210 0.119950 0.121819
C123  C     C_3   0.819246 0.790880 0.897917 -0.252796
C124  C     C_3   0.896684 0.780227 0.915740 -0.424353
H126  H     H_    0.907337 0.784725 0.973788 0.120649
H127  H     H_    0.919931 0.699450 0.892590 0.175971
H128  H     H_    0.924472 0.854887 0.890733 0.125752
H129  H     H_    0.811591 0.779049 0.839541 0.171964
H130  H     H_    0.805821 0.882266 0.904499 0.131704
C125  C     C_3   0.689151 0.293093 0.115779 -0.243927
C126  C     C_3   0.611223 0.291788 0.098597 -0.413672
H131  H     H_    0.600075 0.316809 0.042692 0.115441
H132  H     H_    0.586719 0.206198 0.110060 0.175071
H133  H     H_    0.584932 0.357405 0.133522 0.128595
H134  H     H_    0.697193 0.269670 0.172581 0.169906
H135  H     H_    0.705732 0.384210 0.119950 0.121819
C127  C     C_3   0.319247 0.290880 0.897917 -0.252796
C128  C     C_3   0.396685 0.280226 0.915741 -0.424354
H136  H     H_    0.407337 0.284722 0.973788 0.120649
H137  H     H_    0.419931 0.199449 0.892590 0.175971
H138  H     H_    0.424473 0.354886 0.890735 0.125751
H139  H     H_    0.311592 0.279049 0.839541 0.171964
H140  H     H_    0.305822 0.382266 0.904500 0.131704
H141  H     H_    0.601729 0.830579 0.575606 0.109486
H142  H     H_    0.398400 0.831212 0.424455 0.109126
H143  H     H_    0.101729 0.330579 0.575606 0.109486
H144  H     H_    0.898400 0.331211 0.424455 0.109126
H145  H     H_    0.712098 0.962143 0.920871 0.110697
H146  H     H_    0.293349 0.945689 0.071560 0.106361
H147  H     H_    0.212098 0.462142 0.920871 0.110697
H148  H     H_    0.793349 0.445690 0.071560 0.106361

loop_
_geom_bond_atom_site_label_1
_geom_bond_atom_site_label_2
_ccdc_geom_bond_type
C90   O38   A    
C82   C94   S    
C55   C59   S    
C83   C87   S    
C73   C93   S    
C42   C58   S    
C29   C89   S    
C48   O32   A    
C75   C95   S    
C48   C120  S    
C24   H8    S    
C57   C102  S    
Cr6   O26   S    
C91   O39   A    
C59   C104  S    
Cr8   O8    S    
Cr2   O22   S    
C5    C6    S    
Cr10  O18   S    
Cr11  O15   S    
C121  H124  S    
C22   C38   S    
C29   C33   S    
C30   C38   S    
C77   C100  S    
C9    C13   S    
C75   H75   S    
C12   C16   S    
Cr3   O23   S    
C101  O5    A    
C95   H87   S    
C102  O10   A    
C127  C128  S    
C21   H5    S    
C60   C103  S    
C83   C107  S    
C113  H1    S    
C17   H19   S    
C18   H20   S    
C66   H62   S    
C109  C118  S    
C15   H111  S    
C16   H116  S    
C11   H103  S    
C50   C53   S    
C63   H51   S    
Cr6   O6    S    
C9    H101  S    
C46   O34   A    
C126  H133  S    
C7    C119  S    
C85   H97   S    
C62   C66   S    
C20   C28   S    
C96   H88   S    
C100  O52   A    
C43   C44   S    
C1    O25   A    
C2    O22   A    
C20   H118  S    
C11   C27   S    
C5    H81   S    
C122  H121  S    
C35   H145  S    
C58   C101  S    
C88   H100  S    
C65   H57   S    
C4    O28   A    
C70   H68   S    
Cr6   O18   S    
C3    C26   S    
Cr3   O47   S    
C70   H94   S    
C31   C91   S    
C36   H146  S    
C8    H84   S    
Cr12  O20   S    
Cr1   O1    S    
Cr11  O39   S    
C17   C25   S    
C54   H42   S    
C23   C125  S    
C19   C35   S    
C76   C96   S    
C32   C92   S    
C91   O3    A    
Cr9   O33   S    
C98   O50   A    
C99   O47   A    
C22   C26   S    
C61   C65   S    
C12   H108  S    
C5    C117  S    
C78   C99   S    
C73   C77   S    
C47   O35   A    
C104  O12   A    
C88   H70   S    
C75   C79   S    
C76   H76   S    
C126  H132  S    
C67   C83   S    
C80   C97   S    
Cr1   O41   S    
C69   C77   S    
C111  C112  S    
Cr10  O34   S    
Cr3   O43   S    
C71   C79   S    
C4    C25   S    
C53   H41   S    
C7    C8    S    
C34   H148  S    
C56   H44   S    
C32   C36   S    
C73   H77   S    
C35   H23   S    
C43   H27   S    
C33   H21   S    
C124  H127  S    
C105  O13   A    
C49   C57   S    
C123  C124  S    
C93   H85   S    
C108  O16   A    
C38   H14   S    
C52   C60   S    
C14   H110  S    
C61   C77   S    
C110  C114  S    
C43   C59   S    
C62   H54   S    
Cr5   O49   S    
C76   H80   S    
C90   O2    A    
Cr7   O19   S    
Cr8   O20   S    
C11   C15   S    
C109  H37   S    
Cr11  O11   S    
C81   C105  S    
C30   C34   S    
C10   C14   S    
C128  H137  S    
Cr2   O18   S    
C95   H91   S    
C102  O6    A    
Cr10  O14   S    
C7    C116  S    
Cr1   O45   S    
C92   O40   A    
C61   H53   S    
C114  H2    S    
C50   C58   S    
C21   C37   S    
C64   H56   S    
C47   O31   A    
C113  C117  S    
C16   H112  S    
C89   O37   A    
Cr5   O29   S    
C63   H55   S    
C9    H105  S    
C46   O30   A    
C123  H130  S    
Cr8   O32   S    
Cr1   O17   S    
C112  C116  S    
C69   C85   S    
Cr3   O19   S    
C21   C25   S    
Cr4   O20   S    
C62   C78   S    
C24   C28   S    
C2    O26   A    
C42   H30   S    
C3    O23   A    
C16   C32   S    
C115  C119  S    
C52   H47   S    
C72   C80   S    
C127  H140  S    
C84   C88   S    
C115  H3    S    
C66   H58   S    
C19   H17   S    
C20   H18   S    
Cr7   O7    S    
C82   C106  S    
C64   H52   S    
C97   O49   A    
C94   H90   S    
Cr7   O27   S    
Cr4   O44   S    
Cr8   O28   S    
C81   C85   S    
C98   O46   A    
C13   H113  S    
C41   H29   S    
C41   C42   S    
C74   C94   S    
C18   C26   S    
C30   C90   S    
C9    C25   S    
C33   H147  S    
C75   H79   S    
C37   H9    S    
C12   C28   S    
C13   C29   S    
C105  O41   A    
C54   C58   S    
C107  O43   A    
C45   C117  S    
C45   O33   A    
C46   C118  S    
C104  O8    A    
C73   H73   S    
C51   H35   S    
C125  H135  S    
C50   H34   S    
C1    C28   S    
C122  H122  S    
C2    C27   S    
Cr2   O42   S    
C116  C120  S    
Cr3   O3    S    
Cr4   O48   S    
C52   C55   S    
Cr12  O12   S    
C53   H142  S    
C64   C80   S    
C42   H26   S    
C17   C33   S    
Cr9   O9    S    
C110  C117  S    
C65   H61   S    
C34   H22   S    
C106  O14   A    
C122  H123  S    
C10   H102  S    
C40   H16   S    
C68   C84   S    
C76   C80   S    
C50   H45   S    
C97   O45   A    
C53   C57   S    
C19   H117  S    
C82   C86   S    
C17   H119  S    
C56   C60   S    
C86   H98   S    
C49   H33   S    
C62   H50   S    
C65   C81   S    
C6    H82   S    
C24   C127  S    
C68   H64   S    
C15   C31   S    
Cr10  O10   S    
C56   H143  S    
C41   H25   S    
C110  H38   S    
C15   H115  S    
C44   H28   S    
C31   C35   S    
C64   C68   S    
Cr9   O13   S    
C36   H24   S    
C49   H46   S    
C125  H134  S    
C103  O7    A    
C69   H93   S    
Cr2   O2    S    
C112  C119  S    
C116  H4    S    
C22   H6    S    
C61   H49   S    
C41   C57   S    
C128  H136  S    
C121  H125  S    
C109  C110  S    
C48   O36   A    
C124  H126  S    
C112  H40   S    
Cr5   O25   S    
C44   C60   S    
Cr6   O30   S    
C84   C108  S    
Cr1   O21   S    
C85   H71   S    
C72   H66   S    
C125  C126  S    
C20   C36   S    
Cr11  O19   S    
C121  C122  S    
C74   C78   S    
C29   C37   S    
C22   C123  S    
C44   H32   S    
C87   H69   S    
C7    H83   S    
C6    C118  S    
C111  H39   S    
C43   H31   S    
C101  O9    A    
C5    C114  S    
C70   C78   S    
C79   C98   S    
Cr4   O4    S    
C108  O44   A    
C63   C79   S    
C74   H78   S    
C23   H7    S    
Cr7   O51   S    
C67   H59   S    
Cr8   O52   S    
C66   C82   S    
C68   H60   S    
C11   H107  S    
C49   C54   S    
Cr5   O5    S    
C94   H86   S    
C51   C56   S    
C84   C96   S    
Cr7   O31   S    
C8    C115  S    
C3    O27   A    
C13   H109  S    
C18   H120  S    
C96   H92   S    
Cr6   O50   S    
Cr12  O40   S    
C23   C27   S    
C100  O48   A    
C19   C27   S    
C1    O21   A    
C109  C113  S    
C10   C26   S    
C47   C119  S    
Cr9   O37   S    
C89   O1    A    
C55   H144  S    
C38   H10   S    
C14   C30   S    
C67   H63   S    
C106  O42   A    
C72   C88   S    
C71   H65   S    
C63   C67   S    
C45   O29   A    
C4    O24   A    
C92   O4    A    
C124  H128  S    
Cr5   O17   S    
C111  C120  S    
Cr2   O46   S    
C6    C113  S    
Cr12  O16   S    
C81   C93   S    
C83   C95   S    
Cr10  O38   S    
C21   C121  S    
C18   C34   S    
C55   H43   S    
C114  C118  S    
C39   H11   S    
C10   H106  S    
C40   H12   S    
C107  O15   A    
C71   C87   S    
C51   C59   S    
C51   H48   S    
C70   C86   S    
C86   H72   S    
C99   O51   A    
C8    C120  S    
C74   H74   S    
C12   H104  S    
C71   H95   S    
C128  H138  S    
C111  C115  S    
C72   H96   S    
C54   H141  S    
C126  H131  S    
C52   H36   S    
Cr11  O35   S    
Cr4   O24   S    
Cr12  O36   S    
C87   H99   S    
C24   C40   S    
C31   C39   S    
C32   C40   S    
Cr9   O17   S    
C39   H15   S    
C127  H139  S    
C69   H67   S    
C103  O11   A    
C123  H129  S    
C93   H89   S    
C37   H13   S    
C23   C39   S    
C14   H114  S    
