data_mof_unit_29751.cif
_audit_creation_date              2012-10-26T21:05:45-0400
_audit_creation_method            fapswitch 2.2
_symmetry_space_group_name_H-M    P1
_symmetry_Int_Tables_number       1
_space_group_crystal_system       triclinic
_cell_length_a                    13.083625
_cell_length_b                    9.094699
_cell_length_c                    7.800895
_cell_angle_alpha                 89.999714
_cell_angle_beta                  95.8008
_cell_angle_gamma                 90.000363
_cell_volume                      923.487973936

loop_
_atom_site_label
_atom_site_type_symbol
_atom_type_description
_atom_site_fract_x
_atom_site_fract_y
_atom_site_fract_z
_atom_type_partial_charge
C1    C     C_R   0.500000 0.220095 0.500000 0.551138
C2    C     C_R   0.870406 0.482484 0.708945 0.197649
C3    C     C_R   0.134362 0.545810 0.595586 0.212407
C4    C     C_R   0.865637 0.545812 0.404409 0.212405
C5    C     C_R   0.027639 0.531837 0.581982 -0.020064
C6    C     C_R   0.972360 0.531837 0.418013 -0.020065
C7    C     C_1   0.500000 0.065385 0.500000 0.006276
C8    C     C_1   0.500000 0.934612 0.499999 0.007553
C9    C     C_R   0.500000 0.779907 0.500000 0.550307
C10   C     C_R   0.299964 0.502890 0.468670 0.581522
C11   C     C_R   0.700036 0.502891 0.531329 0.581522
C12   C     C_R   0.812836 0.511210 0.548982 0.020216
C13   C     C_R   0.187163 0.511207 0.451015 0.020216
C14   C     C_R   0.024334 0.508107 0.272547 -0.038800
C15   C     C_R   0.975665 0.508109 0.727448 -0.038800
C16   C     C_R   0.129594 0.482484 0.291050 0.197650
Cl1   Cl    Cl    0.803499 0.623692 0.213073 -0.486931
Cl2   Cl    Cl    0.196500 0.623700 0.786913 -0.486930
Cl3   Cl    Cl    0.817650 0.401125 0.885161 -0.495795
Cl4   Cl    Cl    0.182350 0.401139 0.114828 -0.495796
Cu1   Cu    Cu3+1 0.500010 0.500000 0.669080 1.183668
Cu2   Cu    Cu3+1 0.499990 0.500000 0.330920 1.183667
H1    H     H_    0.982161 0.493064 0.147425 0.221283
H2    H     H_    0.017837 0.493062 0.852569 0.221283
N1    N     N_1   0.499980 0.500000 0.076820 -0.021590
N2    N     N_1   0.500020 0.500000 0.923180 -0.021590
O1    O     O_R   0.500000 0.288400 0.642760 -0.497829
O2    O     O_R   0.500000 0.711600 0.357240 -0.496174
O3    O     O_R   0.500000 0.288400 0.357240 -0.497829
O4    O     O_R   0.500000 0.711600 0.642760 -0.496173
O5    O     O_R   0.349000 0.500000 0.619590 -0.459817
O6    O     O_R   0.651000 0.500000 0.380410 -0.459818
O7    O     O_R   0.348990 0.500000 0.334020 -0.457381
O8    O     O_R   0.651010 0.500000 0.665980 -0.457379

loop_
_geom_bond_atom_site_label_1
_geom_bond_atom_site_label_2
_ccdc_geom_bond_type
C14   H1    S    
C11   C12   S    
Cu2   O3    S    
C4    C12   A    
Cu1   O4    S    
C3    C13   A    
C16   Cl4   S    
C2    C12   A    
C1    O3    A    
Cu1   O1    S    
C7    C8    T    
Cu2   O2    S    
Cu1   Cu2   S    
C2    C15   A    
Cu1   O5    S    
Cu2   O6    S    
C9    O4    A    
C4    Cl1   S    
C15   H2    S    
Cu1   N2    S    
C11   O6    A    
C10   O7    A    
C5    C6    A    
C14   C16   A    
C5    C15   A    
C6    C14   A    
C3    Cl2   S    
C4    C6    A    
C13   C16   A    
C2    Cl3   S    
C1    O1    A    
Cu2   O7    S    
Cu1   O8    S    
N1    N2    T    
C1    C7    S    
C10   O5    A    
C10   C13   S    
C11   O8    A    
C9    O2    A    
C8    C9    S    
C3    C5    A    
Cu2   N1    S    
