data_mof_unit_52925.cif
_audit_creation_date              2012-10-26T20:31:40-0400
_audit_creation_method            fapswitch 2.2
_symmetry_space_group_name_H-M    P1
_symmetry_Int_Tables_number       1
_space_group_crystal_system       triclinic
_cell_length_a                    15.893598
_cell_length_b                    10.840164
_cell_length_c                    9.553281
_cell_angle_alpha                 90.521087
_cell_angle_beta                  89.598717
_cell_angle_gamma                 90.257533
_cell_volume                      1645.80263026

loop_
_atom_site_label
_atom_site_type_symbol
_atom_type_description
_atom_site_fract_x
_atom_site_fract_y
_atom_site_fract_z
_atom_type_partial_charge
C1    C     C_R   0.498076 0.262425 0.499386 0.545216
C2    C     C_R   0.489159 0.129508 0.497994 0.007728
C3    C     C_R   0.484604 0.063249 0.371118 -0.157743
C4    C     C_R   0.340240 0.499882 0.500521 0.547730
C5    C     C_R   0.485251 0.934575 0.371911 -0.150344
C6    C     C_R   0.490495 0.871128 0.499568 0.012693
C7    C     C_R   0.482802 0.938336 0.624371 0.019294
C8    C     C_3   0.534717 0.936103 0.754055 -0.273684
C9    C     C_3   0.533366 0.075874 0.753070 -0.256609
C10   C     C_R   0.571177 0.530325 0.073184 0.177295
C11   C     C_R   0.432684 0.457363 0.074595 -0.021506
C12   C     C_3   0.949718 0.444309 0.635301 -0.236355
C13   C     C_R   0.432624 0.457562 0.925952 -0.017454
C14   C     C_R   0.571338 0.529229 0.925716 0.158456
C15   C     C_3   0.619145 0.647294 0.918408 -0.274263
C16   C     C_R   0.498718 0.737823 0.500314 0.554635
C17   C     C_3   0.617563 0.650493 0.077685 -0.078935
C18   C     C_R   0.659797 0.500217 0.499551 0.566448
C19   C     C_3   0.047270 0.443310 0.636755 -0.224391
C20   C     C_3   0.049777 0.428723 0.373496 -0.208757
C21   C     C_3   0.952373 0.426630 0.373849 -0.193810
C22   C     C_1   0.749489 0.501185 0.498772 0.000119
C23   C     C_3   0.917376 0.503805 0.498728 0.059528
C24   C     C_3   0.083024 0.502344 0.501557 0.048070
C25   C     C_2   0.918409 0.712310 0.372459 0.213564
C26   C     C_2   0.703239 0.640014 0.141991 0.598777
C27   C     C_3   0.952730 0.638595 0.492975 -0.055189
C28   C     C_3   0.050809 0.636727 0.492671 -0.184128
C29   C     C_1   0.825034 0.502290 0.498587 -0.066166
C30   C     C_1   0.175118 0.500968 0.502277 -0.080036
C31   C     C_1   0.250620 0.500279 0.501705 -0.036022
C32   C     C_R   0.482091 0.065365 0.623364 0.017644
Cu1   Cu    Cu3+1 0.500000 0.499980 0.640670 0.941727
Cu2   Cu    Cu3+1 0.500000 0.500020 0.359330 0.963335
H1    H     H_    0.925579 0.348092 0.644013 0.124306
H2    H     H_    0.377676 0.424095 0.129895 0.122431
H3    H     H_    0.069791 0.346620 0.645467 0.121728
H4    H     H_    0.377561 0.424635 0.871114 0.121883
H5    H     H_    0.682441 0.634656 0.870105 0.158165
H6    H     H_    0.581304 0.721039 0.871483 0.120242
H7    H     H_    0.578926 0.727128 0.121755 0.109680
H8    H     H_    0.073126 0.471312 0.274913 0.139846
H9    H     H_    0.073749 0.332430 0.375592 0.112303
H10   H     H_    0.929874 0.329527 0.381854 0.110765
H11   H     H_    0.928927 0.462018 0.272816 0.161561
H12   H     H_    0.070182 0.494955 0.730342 0.125024
H13   H     H_    0.074264 0.691238 0.583838 0.096700
H14   H     H_    0.077511 0.681047 0.397427 0.159699
H15   H     H_    0.931926 0.687446 0.590242 0.074551
H16   H     H_    0.868959 0.779053 0.392209 0.145618
H17   H     H_    0.812454 0.547154 0.152993 0.351621
H18   H     H_    0.925855 0.496421 0.728240 0.132466
H19   H     H_    0.485006 0.110108 0.271457 0.137556
H20   H     H_    0.485841 0.885637 0.272573 0.133795
H21   H     H_    0.499373 0.896962 0.844238 0.133177
H22   H     H_    0.598608 0.897743 0.735040 0.137999
H23   H     H_    0.497061 0.116605 0.841874 0.141035
H24   H     H_    0.596303 0.118064 0.734126 0.149224
N1    N     N_R   0.500530 0.500930 0.147930 -0.251829
N2    N     N_R   0.500530 0.500890 0.852020 -0.236976
O1    O     O_R   0.500000 0.319640 0.618810 -0.500076
O2    O     O_2   0.725675 0.716204 0.229262 -0.524077
O3    O     O_R   0.756733 0.543551 0.102438 -0.704588
O4    O     O_R   0.500010 0.319680 0.381230 -0.506436
O5    O     O_R   0.379430 0.499990 0.618840 -0.505581
O6    O     O_R   0.379440 0.500030 0.381260 -0.508081
O7    O     O_R   0.499990 0.680320 0.618770 -0.500801
O8    O     O_R   0.500000 0.680360 0.381190 -0.506683
O9    O     O_R   0.620560 0.499970 0.618740 -0.503451
O10   O     O_R   0.620570 0.500010 0.381160 -0.468846
O11   O     O_2   0.943877 0.696326 0.252787 -0.520822

loop_
_geom_bond_atom_site_label_1
_geom_bond_atom_site_label_2
_ccdc_geom_bond_type
C18   O10   A    
C20   H8    S    
C26   O3    S    
C28   H13   S    
C6    C7    A    
C25   O11   D    
C22   C29   T    
C23   C27   S    
C25   C27   S    
C21   H10   S    
C14   N2    A    
Cu2   O10   S    
C9    H23   S    
Cu1   O9    S    
C8    H22   S    
C18   O9    A    
Cu2   O4    S    
C10   N1    A    
C26   O2    D    
C19   H12   S    
Cu1   O5    S    
C7    C8    S    
C13   N2    A    
C18   C22   S    
C12   H1    S    
C4    O6    A    
C5    C6    A    
C3    H19   S    
C12   C23   S    
C15   H5    S    
C13   H4    S    
Cu2   N1    S    
C16   O8    A    
C17   C26   S    
C23   C29   S    
C12   C19   S    
Cu1   O1    S    
Cu2   O6    S    
C12   H18   S    
C28   H14   S    
Cu1   Cu2   S    
Cu1   N2    S    
C21   H11   S    
C21   C23   S    
C30   C31   T    
C17   H7    S    
C15   H6    S    
C24   C30   S    
C10   C17   S    
C6    C16   S    
C4    C31   S    
C1    O4    A    
C24   C28   S    
C5    H20   S    
C11   C13   A    
C20   H9    S    
H17   O3    S    
C20   C21   S    
C8    H21   S    
C2    C32   A    
C1    C2    S    
C10   C14   A    
Cu2   O8    S    
C27   C28   S    
C15   C17   S    
C20   C24   S    
C4    O5    A    
C9    H24   S    
C2    C3    A    
C7    C32   A    
C19   H3    S    
C9    C32   S    
C14   C15   S    
C16   O7    A    
C19   C24   S    
C25   H16   S    
C11   N1    A    
Cu1   O7    S    
C27   H15   S    
C1    O1    A    
C8    C9    S    
C3    C5    A    
C11   H2    S    
