data_mof_unit_34115.cif
_audit_creation_date              2012-12-10T16:57:46-0500
_audit_creation_method            fapswitch 2.2
_symmetry_space_group_name_H-M    P1
_symmetry_Int_Tables_number       1
_space_group_crystal_system       triclinic
_cell_length_a                    7.754202
_cell_length_b                    8.596418
_cell_length_c                    19.151277
_cell_angle_alpha                 91.197756
_cell_angle_beta                  85.464732
_cell_angle_gamma                 93.18807
_cell_volume                      1270.45130636

loop_
_atom_site_label
_atom_site_type_symbol
_atom_type_description
_atom_site_fract_x
_atom_site_fract_y
_atom_site_fract_z
_atom_type_partial_charge
C1    C     C_R   0.544692 0.794440 0.499279 0.917052
C2    C     C_R   0.455309 0.205557 0.500734 0.917609
C3    C     C_2   0.560718 0.956068 0.512490 -0.271769
C4    C     C_2   0.439278 0.043920 0.487540 -0.274197
C5    C     C_R   0.501611 0.501025 0.634519 0.941126
C6    C     C_R   0.498762 0.500859 0.365494 0.941349
C7    C     C_R   0.354313 0.487744 0.753958 0.529211
C8    C     C_R   0.649186 0.537555 0.247669 0.529271
C9    C     C_R   0.359275 0.505512 0.825697 0.554126
C10   C     C_R   0.646191 0.536452 0.175622 0.552975
C11   C     C_R   0.515816 0.548786 0.854538 -0.174948
C12   C     C_R   0.491201 0.499027 0.144640 -0.175277
C13   C     C_R   0.669586 0.578051 0.810891 -0.099889
C14   C     C_R   0.336491 0.459955 0.186321 -0.098496
C15   C     C_R   0.662997 0.557426 0.738750 -0.317634
C16   C     C_R   0.340991 0.464251 0.258988 -0.319620
C17   C     C_R   0.506515 0.512823 0.710162 -0.249758
C18   C     C_R   0.496334 0.501748 0.289713 -0.251550
C19   C     C_R   0.495213 0.510564 0.069364 0.436662
C20   C     C_R   0.516746 0.544463 0.929900 0.437442
H1    H     H_    0.779548 0.580458 0.704569 0.209862
H2    H     H_    0.223842 0.434038 0.291740 0.209579
H3    H     H_    0.014385 0.382217 0.447334 0.226160
H4    H     H_    0.985614 0.617781 0.552668 0.225263
N1    N     N_R   0.622177 0.448372 0.959174 -0.092470
N2    N     N_R   0.390292 0.607336 0.040171 -0.091048
N3    N     N_R   0.612563 0.432666 0.028105 -0.069988
N4    N     N_R   0.399839 0.622963 0.971186 -0.066951
N5    N     N_2   0.950330 0.457950 0.481240 -0.151551
N6    N     N_2   0.049670 0.542050 0.518760 -0.152159
O1    O     O_R   0.389250 0.738570 0.504600 -0.644459
O2    O     O_R   0.610750 0.261430 0.495400 -0.643471
O3    O     O_R   0.678400 0.711620 0.492580 -0.566134
O4    O     O_R   0.321600 0.288380 0.507420 -0.567254
O5    O     O_R   0.355380 0.513500 0.607880 -0.559128
O6    O     O_R   0.644620 0.486500 0.392120 -0.557956
O7    O     O_R   0.644530 0.486550 0.595850 -0.638571
O8    O     O_R   0.355470 0.513450 0.404150 -0.637362
Zn1   Zn    Zn3+2 0.306930 0.517990 0.508030 1.025953
Zn2   Zn    Zn3+2 0.693070 0.482010 0.491970 1.026959
F1    F     F_    0.201586 0.441467 0.727758 -0.633165
F2    F     F_    0.800677 0.578376 0.276064 -0.632719
F3    F     F_    0.212265 0.473051 0.867483 -0.597496
F4    F     F_    0.794061 0.577576 0.135861 -0.601150
C21   C     C_2   0.837664 0.634345 0.837208 0.592324
H5    H     H_    0.955345 0.632024 0.802587 0.120252
O9    O     O_2   0.846967 0.688891 0.896234 -0.500254
C22   C     C_2   0.169830 0.408781 0.157381 0.590985
H6    H     H_    0.051207 0.404293 0.191590 0.120722
O10   O     O_2   0.162666 0.365636 0.096509 -0.498606
C23   C     C_2   0.678286 0.009812 0.567899 0.479347
H7    H     H_    0.654138 0.114378 0.599050 0.082505
O11   O     O_2   0.801753 0.935472 0.580319 -0.549172
C24   C     C_2   0.321673 0.990145 0.432150 0.481810
H8    H     H_    0.345978 0.885704 0.400928 0.082433
O12   O     O_2   0.197971 0.064293 0.419844 -0.546775

loop_
_geom_bond_atom_site_label_1
_geom_bond_atom_site_label_2
_ccdc_geom_bond_type
C2    C4    S    
C6    O8    A    
C15   C17   A    
N5    N6    D    
C5    O7    A    
N1    N3    A    
C9    C11   A    
N2    N4    A    
O1    Zn1   S    
C13   C15   A    
C15   H1    S    
C16   H2    S    
C2    O4    A    
C22   O10   D    
C12   C14   A    
C1    O3    A    
C16   C18   A    
C21   H5    S    
C13   C21   S    
C11   C13   A    
C10   C12   A    
O5    Zn1   S    
H3    N5    S    
N5    Zn2   S    
C8    C10   A    
C22   H6    S    
C8    F2    S    
N6    Zn1   S    
O7    Zn2   S    
C24   O12   D    
C21   O9    D    
O8    Zn1   S    
C6    C18   S    
C14   C16   A    
C11   C20   S    
C9    F3    S    
H4    N6    S    
C5    C17   S    
C20   N1    A    
C10   F4    S    
C23   H7    S    
O3    Zn2   S    
C5    O5    A    
C1    O1    A    
O2    Zn2   S    
C19   N3    A    
C12   C19   S    
C2    O2    A    
C1    C3    S    
C7    C9    A    
C19   N2    A    
C3    C23   S    
C24   H8    S    
O6    Zn2   S    
C14   C22   S    
C20   N4    A    
C4    C24   S    
C8    C18   A    
C3    C4    D    
O4    Zn1   S    
C7    F1    S    
C6    O6    A    
C23   O11   D    
C7    C17   A    
