data_mof_unit_44851.cif
_audit_creation_date              2013-03-05T16:09:36-0500
_audit_creation_method            fapswitch 2.2
_symmetry_space_group_name_H-M    P1
_symmetry_Int_Tables_number       1
_space_group_crystal_system       triclinic
_cell_length_a                    10.535858
_cell_length_b                    10.621103
_cell_length_c                    9.881647
_cell_angle_alpha                 90.572516
_cell_angle_beta                  104.70014
_cell_angle_gamma                 89.851958
_cell_volume                      1069.53158262

loop_
_atom_site_label
_atom_site_type_symbol
_atom_site_description
_atom_site_fract_x
_atom_site_fract_y
_atom_site_fract_z
_atom_type_partial_charge
O1    O     O_R   0.499990 0.316750 0.614620 -0.546026
O2    O     O_R   0.500010 0.683250 0.385380 -0.550949
O3    O     O_R   0.499990 0.316780 0.385290 -0.602680
O4    O     O_R   0.500010 0.683220 0.614710 -0.618976
C1    C     C_R   0.500825 0.260222 0.500171 0.914066
C2    C     C_R   0.497347 0.739467 0.499787 0.901115
O5    O     O_R   0.317810 0.500000 0.571850 -0.583488
O6    O     O_R   0.682190 0.500000 0.428150 -0.595762
O7    O     O_R   0.317810 0.500030 0.342520 -0.599638
O8    O     O_R   0.682190 0.499970 0.657480 -0.593849
C3    C     C_R   0.256221 0.503821 0.440543 0.883374
C4    C     C_R   0.743342 0.504476 0.559244 0.872916
Zn1   Zn    Zn3+2 0.500000 0.499980 0.653120 1.001829
Zn2   Zn    Zn3+2 0.500000 0.500020 0.346880 0.993795
C5    C     C_R   0.566923 0.590017 0.091382 0.539720
C6    C     C_R   0.429960 0.412646 0.907245 0.549371
C7    C     C_R   0.569919 0.588392 0.948107 0.039734
C8    C     C_R   0.434357 0.408762 0.052076 0.027391
H1    H     H_    0.864791 0.630070 0.405824 0.209730
H2    H     H_    0.135675 0.621588 0.600931 0.173793
C9    C     C_2   0.113846 0.525333 0.406471 0.076584
C10   C     C_2   0.884578 0.528127 0.593504 0.042393
C11   C     C_2   0.069026 0.587669 0.504665 -0.192759
C12   C     C_2   0.930630 0.592311 0.499777 -0.256042
C13   C     C_R   0.393573 0.065717 0.413989 -0.296240
C14   C     C_R   0.598649 0.933267 0.592131 -0.293767
H3    H     H_    0.312744 0.118316 0.349012 0.150062
H4    H     H_    0.676987 0.880705 0.661199 0.152812
C15   C     C_R   0.390926 0.935755 0.411489 0.205458
C16   C     C_R   0.600680 0.062902 0.595688 0.208806
C17   C     C_R   0.495332 0.871545 0.500081 -0.059770
C18   C     C_R   0.500009 0.127667 0.501828 -0.066385
N1    N     N_R   0.499970 0.499970 0.857200 -0.167610
N2    N     N_R   0.500030 0.500030 0.142800 -0.164390
F1    F     F_    0.633940 0.679933 0.179068 -0.672555
F2    F     F_    0.358002 0.326656 0.817663 -0.655891
N3    N     N_2   0.972233 0.481717 0.717983 -0.285719
H5    H     H_    0.001964 0.548500 0.796005 0.222934
C19   C     C_3   0.945889 0.358638 0.765527 -0.747532
H6    H     H_    0.032608 0.326398 0.847151 0.242829
H7    H     H_    0.927400 0.289865 0.677258 0.245887
H8    H     H_    0.860393 0.362637 0.811576 0.237935
N4    N     N_2   0.025729 0.480754 0.278681 -0.305207
H9    H     H_    0.930483 0.462519 0.281810 0.251128
C20   C     C_3   0.073604 0.396961 0.186395 -0.796473
H10   H     H_    0.989791 0.361339 0.102475 0.222319
H11   H     H_    0.125138 0.315102 0.245098 0.237029
H12   H     H_    0.139132 0.448945 0.134633 0.264351
N5    N     N_2   0.644304 0.679708 0.897908 -0.232778
H13   H     H_    0.620119 0.770814 0.918556 0.235794
C21   C     C_3   0.784570 0.658916 0.939082 -0.709888
H14   H     H_    0.832950 0.721829 0.878215 0.208816
H15   H     H_    0.808180 0.559854 0.918064 0.243990
H16   H     H_    0.824282 0.679983 0.052350 0.259162
N6    N     N_2   0.375995 0.305725 0.103528 -0.239895
H17   H     H_    0.278299 0.294746 0.052581 0.230367
C22   C     C_3   0.447778 0.189027 0.104003 -0.696027
H18   H     H_    0.447391 0.159105 0.995957 0.247517
H19   H     H_    0.400621 0.113492 0.149676 0.226064
H20   H     H_    0.550831 0.199708 0.166950 0.244772
N7    N     N_2   0.279909 0.869802 0.329445 -0.320397
H21   H     H_    0.191885 0.905571 0.340384 0.225484
C23   C     C_3   0.279368 0.851825 0.184012 -0.752566
H22   H     H_    0.255985 0.941741 0.126731 0.219525
H23   H     H_    0.203041 0.781584 0.135607 0.236619
H24   H     H_    0.375751 0.816348 0.173628 0.280254
N8    N     N_2   0.704024 0.127392 0.691896 -0.318037
H25   H     H_    0.795414 0.093694 0.689733 0.218407
C24   C     C_3   0.688262 0.132131 0.833236 -0.755357
H26   H     H_    0.689469 0.035557 0.875947 0.229574
H27   H     H_    0.594560 0.179037 0.835377 0.282066
H28   H     H_    0.769967 0.186478 0.901626 0.220877

loop_
_geom_bond_atom_site_label_1
_geom_bond_atom_site_label_2
_geom_bond_distance
_ccdc_geom_bond_type
Zn2   N2    2.016729 S    
C24   H28   1.109266 S    
C16   C18   1.402900 A    
N6    H17   1.031008 S    
C23   H23   1.110321 S    
Zn1   N1    2.016727 S    
N3    H5    1.031169 S    
C6    N1    1.358922 A    
C13   H3    1.084799 S    
N4    C20   1.446729 S    
C5    N2    1.365015 A    
C14   H4    1.085366 S    
C16   N8    1.422667 S    
H2    C11   1.087765 S    
O6    C4    1.292602 A    
C11   C12   1.447342 S    
C21   H16   1.111619 S    
C1    C18   1.408212 S    
C13   C18   1.393656 A    
N6    C22   1.449733 S    
C2    C17   1.402900 S    
C23   H24   1.110783 S    
C14   C17   1.389708 A    
N3    C19   1.444628 S    
C6    C8    1.421133 A    
C9    N4    1.440842 S    
C20   H10   1.111036 S    
C6    F2    1.356226 S    
O5    C3    1.296105 A    
C8    N2    1.376018 A    
O7    C3    1.295771 A    
C22   H18   1.109931 S    
O2    C2    1.279813 A    
O3    Zn2   1.986601 S    
O8    C4    1.295465 A    
C8    N6    1.416859 S    
O1    C1    1.277113 A    
C5    F1    1.355670 S    
C14   C16   1.377047 A    
C19   H8    1.108008 S    
C10   C12   1.341768 D    
C9    C11   1.349426 D    
N4    H9    1.030709 S    
C13   C15   1.380540 A    
C24   H26   1.111867 S    
O2    Zn2   1.979203 S    
C15   N7    1.423972 S    
C22   H19   1.103308 S    
O4    C2    1.282435 A    
O1    Zn1   1.979203 S    
N7    H21   1.031668 S    
C21   H15   1.110188 S    
N8    H25   1.031597 S    
O3    C1    1.287700 A    
C4    C10   1.461696 S    
O5    Zn1   1.883393 S    
C21   H14   1.110612 S    
C19   H7    1.110891 S    
C15   C17   1.400293 A    
N5    H13   1.031544 S    
C20   H11   1.111307 S    
C7    N5    1.418365 S    
C19   H6    1.110174 S    
C24   H27   1.109558 S    
O7    Zn2   1.909050 S    
C22   H20   1.111355 S    
O6    Zn2   1.883392 S    
C20   H12   1.109014 S    
C7    N1    1.372150 A    
N8    C24   1.448128 S    
C5    C7    1.424062 A    
C10   N3    1.429035 S    
H1    C12   1.087705 S    
C3    C9    1.469393 S    
N7    C23   1.446428 S    
C23   H22   1.109930 S    
O4    Zn1   1.986601 S    
N5    C21   1.446801 S    
O8    Zn1   1.909050 S    
