data_mof_unit_28874.cif
_audit_creation_date              2013-03-05T16:44:37-0500
_audit_creation_method            fapswitch 2.2
_symmetry_space_group_name_H-M    P1
_symmetry_Int_Tables_number       1
_space_group_crystal_system       triclinic
_cell_length_a                    27.710942
_cell_length_b                    10.790912
_cell_length_c                    9.892687
_cell_angle_alpha                 89.093617
_cell_angle_beta                  88.364011
_cell_angle_gamma                 90.659803
_cell_volume                      2956.38621099

loop_
_atom_site_label
_atom_site_type_symbol
_atom_site_description
_atom_site_fract_x
_atom_site_fract_y
_atom_site_fract_z
_atom_type_partial_charge
O1    O     O_R   0.500010 0.316790 0.614690 -0.600028
O2    O     O_R   0.500000 0.316760 0.385350 -0.642543
C1    C     C_R   0.499487 0.260384 0.500547 0.938894
O3    O     O_R   0.428760 0.500040 0.614660 -0.581848
O4    O     O_R   0.428750 0.500000 0.385310 -0.594273
C2    C     C_R   0.406037 0.501557 0.501742 0.932090
Zn1   Zn    Zn3+2 0.500000 0.500020 0.653130 1.038597
Zn2   Zn    Zn3+2 0.500000 0.499980 0.346870 0.968994
O5    O     O_R   0.500000 0.683240 0.614650 -0.580859
O6    O     O_R   0.499990 0.683210 0.385310 -0.647209
O7    O     O_R   0.571250 0.500000 0.614690 -0.585700
O8    O     O_R   0.571240 0.499960 0.385340 -0.637005
C3    C     C_R   0.499693 0.739994 0.498199 0.898821
C4    C     C_R   0.593871 0.499692 0.498599 0.932930
C5    C     C_R   0.177350 0.411403 0.498163 0.554675
O9    O     O_2   0.202247 0.305270 0.484256 -0.522733
N1    N     N_R   0.201403 0.520631 0.513926 -0.354125
C6    C     C_R   0.178101 0.630629 0.528178 0.520293
C7    C     C_R   0.278197 0.524338 0.389296 -0.123269
C8    C     C_R   0.328182 0.518573 0.385369 -0.137241
C9    C     C_R   0.327810 0.504917 0.630643 -0.111768
C10   C     C_R   0.277463 0.509996 0.635382 0.204090
C11   C     C_R   0.252835 0.519530 0.513355 0.295060
C12   C     C_R   0.101637 0.520656 0.512164 -0.100407
C13   C     C_R   0.127131 0.409180 0.496268 -0.110769
C14   C     C_R   0.102143 0.297255 0.481258 -0.194655
C15   C     C_R   0.127073 0.634212 0.528484 -0.014197
C16   C     C_R   0.353321 0.507717 0.505918 -0.112451
H1    H     H_    0.346996 0.498692 0.724182 0.228799
H2    H     H_    0.121130 0.210181 0.475218 0.214887
C17   C     C_R   0.646504 0.499513 0.496599 -0.234879
C18   C     C_R   0.975538 0.409988 0.461505 0.027390
C19   C     C_R   0.973676 0.619467 0.555398 -0.157286
C20   C     C_R   0.949283 0.514100 0.506234 0.011215
C21   C     C_R   0.950854 0.315354 0.394214 -0.199797
C22   C     C_R   0.901040 0.316579 0.383692 0.685611
C23   C     C_R   0.874163 0.413265 0.440372 -0.121381
C24   C     C_R   0.898350 0.512727 0.501627 -0.206164
C25   C     C_R   0.871678 0.610636 0.558419 -0.242546
C26   C     C_R   0.821173 0.605822 0.554664 0.601773
N2    N     N_R   0.798655 0.508849 0.494710 -0.355485
C27   C     C_R   0.823672 0.414287 0.436944 0.569142
C28   C     C_R   0.721492 0.439955 0.599313 0.053395
C29   C     C_R   0.671022 0.437133 0.599092 0.609546
C30   C     C_R   0.672328 0.564873 0.394531 -0.305043
C31   C     C_R   0.722623 0.567200 0.391912 0.199764
C32   C     C_R   0.747135 0.504937 0.494939 0.195763
O10   O     O_2   0.799428 0.321555 0.377717 -0.456416
C33   C     C_R   0.025834 0.406072 0.481518 -0.044392
C34   C     C_R   0.050622 0.517783 0.511366 0.010528
C35   C     C_R   0.024611 0.626419 0.540152 0.086386
C36   C     C_R   0.052278 0.294832 0.474576 0.593011
H3    H     H_    0.969677 0.241951 0.342948 0.237234
O11   O     O_2   0.204709 0.734688 0.542363 -0.544253
C37   C     C_R   0.100478 0.745559 0.541899 0.125667
H4    H     H_    0.347048 0.523054 0.288070 0.226530
H5    H     H_    0.258952 0.531739 0.295801 0.160848
C38   C     C_R   0.946191 0.712756 0.619428 0.509371
C39   C     C_R   0.896033 0.708526 0.620084 0.646575
O12   O     O_2   0.794471 0.696658 0.610275 -0.461041
C40   C     C_R   0.050038 0.739505 0.547065 -0.097945
H6    H     H_    0.653334 0.617022 0.319118 0.183278
H7    H     H_    0.030795 0.825847 0.549393 0.228171
C41   C     C_R   0.513646 0.061693 0.611741 -0.120790
C42   C     C_R   0.501282 0.128911 0.498015 -0.041488
C43   C     C_R   0.494071 0.068816 0.375986 -0.168077
H8    H     H_    0.486397 0.121478 0.285339 0.163239
C44   C     C_R   0.493192 0.940723 0.371175 0.152531
C45   C     C_R   0.502294 0.872467 0.492135 -0.045215
C46   C     C_R   0.515825 0.934997 0.608141 -0.114978
C47   C     C_3   0.497024 0.922298 0.751596 0.731888
C48   C     C_3   0.491822 0.061967 0.751384 0.452138
H9    H     H_    0.514110 0.112281 0.824933 0.015385
C49   C     C_R   0.459603 0.464891 0.075400 0.025067
N3    N     N_R   0.499670 0.499140 0.142800 -0.136295
C50   C     C_R   0.537878 0.548958 0.065805 0.212318
C51   C     C_R   0.538142 0.544816 0.922665 -0.088573
H10   H     H_    0.569446 0.577010 0.863821 0.170785
N4    N     N_R   0.499670 0.499180 0.857150 -0.147723
C52   C     C_R   0.459482 0.465649 0.932786 0.046823
C53   C     C_3   0.435347 0.341731 0.932593 0.450623
C54   C     C_3   0.435160 0.341620 0.085771 0.419923
H11   H     H_    0.458639 0.270419 0.887254 0.079721
H12   H     H_    0.457586 0.268318 0.131232 0.014899
C55   C     C_3   0.123803 0.872572 0.550233 -0.685238
H13   H     H_    0.096786 0.947711 0.556423 0.237447
H14   H     H_    0.145488 0.878261 0.642602 0.270944
H15   H     H_    0.146754 0.891905 0.458329 0.265850
F1    F     F_    0.967022 0.802921 0.692985 -0.607963
F2    F     F_    0.871619 0.800681 0.683071 -0.543451
C56   C     C_3   0.749954 0.636494 0.280178 -0.767488
H16   H     H_    0.725245 0.678467 0.206245 0.236896
H17   H     H_    0.771940 0.712046 0.323253 0.261852
H18   H     H_    0.774157 0.572077 0.225012 0.247906
C57   C     C_3   0.479111 0.883336 0.239028 -0.785301
H19   H     H_    0.446660 0.822977 0.255107 0.266103
H20   H     H_    0.469914 0.954179 0.161491 0.229319
H21   H     H_    0.509643 0.829736 0.196148 0.238589
F3    F     F_    0.453216 0.859082 0.764086 -0.573093
C58   C     C_3   0.250298 0.503979 0.769300 -0.790334
H22   H     H_    0.275083 0.494870 0.855105 0.261664
H23   H     H_    0.229105 0.589727 0.783235 0.249569
H24   H     H_    0.225341 0.422689 0.772369 0.251742
C59   C     C_3   0.534870 0.874109 0.848190 -0.980650
H25   H     H_    0.567971 0.933379 0.843710 0.214983
H26   H     H_    0.519766 0.872259 0.953129 0.253213
H27   H     H_    0.545233 0.779316 0.819790 0.262495
F4    F     F_    0.443795 0.096398 0.750366 -0.583774
C60   C     C_3   0.581003 0.606022 0.128429 -0.827114
H28   H     H_    0.570040 0.664841 0.214290 0.261594
H29   H     H_    0.605662 0.531056 0.158602 0.257125
H30   H     H_    0.601322 0.667527 0.055206 0.208871
F5    F     F_    0.389568 0.347216 0.880797 -0.573133
F6    F     F_    0.389241 0.349586 0.143429 -0.588799
F7    F     F_    0.645758 0.372465 0.697292 -0.664219
C61   C     C_3   0.748202 0.374909 0.710129 -0.721702
H31   H     H_    0.723437 0.329823 0.786605 0.283528
H32   H     H_    0.771578 0.302158 0.666133 0.255097
H33   H     H_    0.771031 0.442835 0.763116 0.235042
F8    F     F_    0.879579 0.222143 0.317900 -0.580008
F9    F     F_    0.030483 0.181615 0.473426 -0.661380

loop_
_geom_bond_atom_site_label_1
_geom_bond_atom_site_label_2
_geom_bond_distance
_ccdc_geom_bond_type
C43   C44   1.383765 A    
C47   C59   1.528873 S    
N3    C50   1.384949 A    
C19   C38   1.415987 A    
C26   O12   1.349627 S    
C21   H3    1.078795 S    
N2    C27   1.363996 A    
C57   H19   1.110512 S    
C35   C40   1.405653 A    
C12   C15   1.420301 A    
C4    C17   1.458109 S    
C8    H4    1.082283 S    
C41   C48   1.492175 S    
C59   H26   1.107982 S    
C53   C54   1.515181 S    
C57   H21   1.108538 S    
C51   H10   1.081598 S    
C7    H5    1.083080 S    
Zn1   O7    2.000006 S    
N1    C11   1.425272 S    
C3    C45   1.430716 S    
C22   C23   1.403645 A    
C60   H29   1.107773 S    
C24   C25   1.411114 A    
C52   C53   1.488266 S    
O7    C4    1.292654 A    
C15   C37   1.422778 A    
C5    C13   1.392196 A    
C5    O9    1.350684 S    
C30   H6    1.079935 S    
C61   H31   1.109521 S    
C5    N1    1.360706 A    
C23   C27   1.400714 A    
C40   H7    1.079066 S    
O5    C3    1.296395 A    
C2    C16   1.462535 S    
C48   F4    1.386148 S    
C29   F7    1.359874 S    
C50   C60   1.492812 S    
C46   C47   1.501403 S    
C41   C46   1.370178 A    
C51   N4    1.355211 A    
C43   H8    1.081600 S    
C49   C52   1.410824 A    
C9    C10   1.396348 A    
C1    C42   1.420752 S    
C49   C54   1.486517 S    
O3    Zn1   2.021118 S    
C59   H25   1.111606 S    
C53   H11   1.102597 S    
N1    C6    1.365108 A    
C55   H14   1.110018 S    
C12   C34   1.413907 A    
C44   C57   1.514571 S    
C10   C58   1.505062 S    
C17   C29   1.403932 A    
C18   C21   1.408992 A    
C12   C13   1.410701 A    
C54   F6    1.383669 S    
O3    C2    1.297849 A    
C49   N3    1.361803 A    
C60   H30   1.111357 S    
C56   H16   1.110928 S    
C44   C45   1.425355 A    
C31   C56   1.505843 S    
C8    C16   1.402171 A    
C34   C35   1.411804 A    
C38   C39   1.389995 A    
C55   H13   1.111113 S    
C47   F3    1.387081 S    
C58   H24   1.110254 S    
O1    C1    1.291594 A    
C39   F2    1.358624 S    
C18   C20   1.415438 A    
C37   C55   1.513041 S    
C7    C11   1.396676 A    
C28   C29   1.398622 A    
C23   C24   1.412650 A    
C14   C36   1.385248 A    
C28   C61   1.508734 S    
C56   H17   1.109867 S    
C36   F9    1.356952 S    
Zn2   O8    2.021118 S    
C33   C36   1.415128 A    
C25   C39   1.403899 A    
C58   H23   1.109946 S    
C19   C20   1.415911 A    
N2    C32   1.427747 S    
C27   O10   1.349625 S    
C50   C51   1.417269 A    
C26   N2    1.364511 A    
C9    C16   1.404134 A    
O8    C4    1.299516 A    
C14   H2    1.083791 S    
C54   H12   1.109124 S    
C25   C26   1.401470 A    
Zn1   N4    2.017942 S    
C55   H15   1.110211 S    
Zn1   O5    2.007501 S    
C31   C32   1.407117 A    
O1    Zn1   2.019357 S    
O2    Zn2   2.007503 S    
C6    C15   1.414914 A    
C48   H9    1.111786 S    
O6    C3    1.282169 A    
O4    Zn2   2.000009 S    
C57   H20   1.111225 S    
C19   C35   1.416195 A    
C61   H33   1.110243 S    
C41   C42   1.382456 A    
C7    C8    1.386713 A    
O2    C1    1.282937 A    
C13   C14   1.397320 A    
C47   C48   1.515668 S    
C42   C43   1.397619 A    
C60   H28   1.106070 S    
C56   H18   1.110264 S    
O4    C2    1.297142 A    
C9    H1    1.081850 S    
C37   C40   1.397952 A    
C58   H22   1.110907 S    
C61   H32   1.109853 S    
Zn2   N3    2.019246 S    
C45   C46   1.398620 A    
C22   F8    1.358269 S    
C38   F1    1.357504 S    
C18   C33   1.414359 A    
C6    O11   1.347622 S    
N4    C52   1.365854 A    
C30   C31   1.393128 A    
Zn2   O6    2.019356 S    
C33   C34   1.419837 A    
C17   C30   1.397739 A    
C53   F5    1.383202 S    
C10   C11   1.406530 A    
C21   C22   1.387465 A    
C20   C24   1.413352 A    
C28   C32   1.409434 A    
C59   H27   1.104071 S    
