data_mof_unit_33308.cif
_audit_creation_date              2012-10-26T20:19:18-0400
_audit_creation_method            fapswitch 2.2
_symmetry_space_group_name_H-M    P1
_symmetry_Int_Tables_number       1
_space_group_crystal_system       triclinic
_cell_length_a                    15.083672
_cell_length_b                    13.004523
_cell_length_c                    11.662989
_cell_angle_alpha                 99.759564
_cell_angle_beta                  93.891789
_cell_angle_gamma                 90.290595
_cell_volume                      2249.13683826

loop_
_atom_site_label
_atom_site_type_symbol
_atom_type_description
_atom_site_fract_x
_atom_site_fract_y
_atom_site_fract_z
_atom_type_partial_charge
C1    C     C_R   0.498693 0.299055 0.478694 0.551193
C2    C     C_R   0.508336 0.876625 0.644745 -0.135988
C3    C     C_R   0.503570 0.139226 0.566419 -0.129727
C4    C     C_R   0.496430 0.860773 0.433581 -0.129727
C5    C     C_R   0.503120 0.031218 0.556009 0.048259
C6    C     C_R   0.496880 0.968782 0.443991 0.048260
C7    C     C_R   0.412578 0.406599 0.022100 -0.178233
C8    C     C_R   0.587419 0.593403 0.977900 -0.178224
C9    C     C_R   0.421332 0.414964 0.144251 0.043967
C10   C     C_R   0.578667 0.585037 0.855749 0.043959
C11   C     C_R   0.538219 0.539644 0.156879 0.044404
C12   C     C_R   0.501307 0.700945 0.521306 0.551197
C13   C     C_R   0.461780 0.460356 0.843121 0.044401
C14   C     C_R   0.531878 0.533733 0.034094 0.008746
C15   C     C_R   0.468120 0.466268 0.965906 0.008734
C16   C     C_R   0.328525 0.500169 0.500236 0.550777
C17   C     C_R   0.671475 0.499829 0.499764 0.550778
C18   C     C_R   0.820069 0.504875 0.605133 -0.123523
C19   C     C_R   0.179931 0.495120 0.394865 -0.123576
C20   C     C_R   0.768283 0.499411 0.499698 -0.024437
C21   C     C_R   0.231717 0.500573 0.500300 -0.024421
C22   C     C_R   0.809107 0.493789 0.394589 -0.135939
C23   C     C_R   0.034661 0.487132 0.287568 0.256975
C24   C     C_R   0.190893 0.506168 0.605407 -0.135931
C25   C     C_R   0.901382 0.493705 0.394107 -0.028945
C26   C     C_R   0.098617 0.506241 0.605888 -0.028915
C27   C     C_R   0.953530 0.499766 0.500214 0.004063
C28   C     C_R   0.046470 0.500180 0.499780 0.004074
C29   C     C_R   0.912721 0.505542 0.606654 0.026888
C30   C     C_R   0.087279 0.494424 0.393341 0.026838
C31   C     C_R   0.942051 0.488013 0.289000 -0.116806
C32   C     C_R   0.057949 0.511940 0.710998 -0.116878
C33   C     C_3   0.075210 0.381703 0.124693 -0.017855
C34   C     C_R   0.965337 0.512844 0.712428 0.256959
C35   C     C_3   0.120248 0.378981 0.011536 -0.369219
C36   C     C_3   0.924938 0.618340 0.875340 -0.017849
C37   C     C_3   0.879636 0.621183 0.988315 -0.369127
C38   C     C_R   0.502072 0.814317 0.533625 0.000759
C39   C     C_R   0.497928 0.185683 0.466375 0.000758
C40   C     C_R   0.491158 0.015300 0.344132 -0.138114
C41   C     C_R   0.508841 0.984700 0.655868 -0.138114
C42   C     C_R   0.491664 0.123375 0.355255 -0.135990
Cu1   Cu    Cu3+1 0.506660 0.507730 0.615930 0.936234
Cu2   Cu    Cu3+1 0.493340 0.492270 0.384070 0.936229
H1    H     H_    0.788044 0.509205 0.686175 0.170165
H2    H     H_    0.508352 0.186873 0.652523 0.121915
H3    H     H_    0.512811 0.841967 0.723045 0.129837
H4    H     H_    0.487189 0.158033 0.276955 0.129837
H5    H     H_    0.486324 0.968248 0.257775 0.103753
H6    H     H_    0.513675 0.031752 0.742225 0.103754
H7    H     H_    0.413125 0.408433 0.789787 0.112553
H8    H     H_    0.586875 0.591568 0.210212 0.112559
H9    H     H_    0.621856 0.631228 0.813347 0.120241
H10   H     H_    0.378143 0.368773 0.186654 0.120242
H11   H     H_    0.006600 0.348837 0.102812 0.137414
H12   H     H_    0.211957 0.490819 0.313827 0.170108
H13   H     H_    0.113598 0.331899 0.178632 0.123013
H14   H     H_    0.188939 0.411568 0.030155 0.147933
H15   H     H_    0.123171 0.297270 0.965144 0.096923
H16   H     H_    0.081899 0.425752 0.954779 0.184191
H17   H     H_    0.886816 0.668306 0.821332 0.123023
H18   H     H_    0.993607 0.650956 0.897452 0.137509
H19   H     H_    0.917685 0.574191 0.045119 0.184067
H20   H     H_    0.876908 0.702896 0.034783 0.096965
H21   H     H_    0.810859 0.588905 0.969444 0.147823
H22   H     H_    0.362733 0.353952 0.972150 0.079107
H23   H     H_    0.637264 0.646051 0.027851 0.079093
H24   H     H_    0.769163 0.489533 0.312965 0.125829
H25   H     H_    0.230836 0.510421 0.687032 0.125818
H26   H     H_    0.901971 0.483958 0.207650 0.107571
H27   H     H_    0.098029 0.515996 0.792349 0.107501
H28   H     H_    0.491647 0.813126 0.347477 0.121914
N1    N     N_R   0.516670 0.519360 0.790130 -0.228994
N2    N     N_R   0.483330 0.480640 0.209870 -0.228999
O1    O     O_R   0.504720 0.354460 0.582000 -0.508035
O2    O     O_3   0.926509 0.514189 0.816682 -0.570603
O3    O     O_R   0.495280 0.645540 0.418000 -0.508035
O4    O     O_R   0.493480 0.341410 0.386200 -0.507747
O5    O     O_R   0.506520 0.658590 0.613800 -0.507744
O6    O     O_R   0.375880 0.506510 0.597910 -0.507926
O7    O     O_R   0.624120 0.493490 0.402090 -0.507923
O8    O     O_R   0.364640 0.493450 0.402110 -0.510521
O9    O     O_R   0.635360 0.506550 0.597890 -0.510517
O10   O     O_3   0.073475 0.485854 0.183313 -0.570530

loop_
_geom_bond_atom_site_label_1
_geom_bond_atom_site_label_2
_ccdc_geom_bond_type
C19   H12   S    
C25   C31   A    
C26   C32   A    
C16   C21   S    
C27   C29   A    
Cu1   O9    S    
C35   H14   S    
Cu2   O3    S    
C19   C21   A    
C24   C26   A    
Cu2   O8    S    
C5    C6    A    
C10   N1    A    
C2    C41   A    
Cu1   O5    S    
C40   H5    S    
C12   O5    A    
C17   C20   S    
C35   H15   S    
C10   H9    S    
C11   H8    S    
C36   O2    S    
C13   H7    S    
Cu1   N1    S    
C31   H26   S    
C22   C25   A    
C37   H21   S    
C8    C14   A    
C39   C42   A    
C18   C20   A    
C40   C42   A    
C3    C39   A    
C1    O4    A    
C36   H18   S    
C37   H19   S    
C24   H25   S    
C32   H27   S    
Cu1   O1    S    
C23   O10   S    
C1    O1    A    
C23   C30   A    
Cu2   O4    S    
C4    C6    A    
Cu2   O7    S    
C11   C14   A    
Cu1   O6    S    
C29   C34   A    
C35   H16   S    
C17   O9    A    
C23   C31   A    
Cu1   Cu2   S    
C2    C38   A    
C12   O3    A    
C16   O8    A    
C33   H11   S    
C18   C29   A    
C42   H4    S    
Cu2   N2    S    
C22   H24   S    
C13   N1    A    
C13   C15   A    
C6    C40   A    
C9    N2    A    
C36   H17   S    
C18   H1    S    
C41   H6    S    
C4    H28   S    
C37   H20   S    
C7    C9    A    
C5    C41   A    
C36   C37   S    
C33   H13   S    
C20   C22   A    
C3    C5    A    
C11   N2    A    
C2    H3    S    
C25   C27   A    
C3    H2    S    
C26   C28   A    
C28   C30   A    
C7    H22   S    
C7    C15   A    
C33   C35   S    
C17   O7    A    
C12   C38   S    
C33   O10   S    
C1    C39   S    
C8    H23   S    
C8    C10   A    
C21   C24   A    
C34   O2    S    
C27   C28   A    
C14   C15   A    
C9    H10   S    
C16   O6    A    
C4    C38   A    
C19   C30   A    
C32   C34   A    
