data_mof_unit_63570.cif
_audit_creation_date              2012-12-10T16:43:18-0500
_audit_creation_method            fapswitch 2.2
_symmetry_space_group_name_H-M    P1
_symmetry_Int_Tables_number       1
_space_group_crystal_system       triclinic
_cell_length_a                    18.434801
_cell_length_b                    18.435279
_cell_length_c                    18.472418
_cell_angle_alpha                 119.753099
_cell_angle_beta                  90.410478
_cell_angle_gamma                 119.716986
_cell_volume                      4458.66228452

loop_
_atom_site_label
_atom_site_type_symbol
_atom_type_description
_atom_site_fract_x
_atom_site_fract_y
_atom_site_fract_z
_atom_type_partial_charge
C1    C     C_R   0.361378 0.000208 0.138436 0.851851
C2    C     C_2   0.803260 0.998806 0.691110 -0.296289
C3    C     C_2   0.720977 0.939829 0.777087 -0.158998
C4    C     C_R   0.638824 0.000323 0.861737 0.849828
C5    C     C_2   0.696673 0.004330 0.808936 -0.293532
C6    C     C_2   0.280986 0.443728 0.724208 -0.164688
C7    C     C_2   0.192251 0.387784 0.691319 -0.295213
C8    C     C_2   0.337273 0.556084 0.778053 -0.164504
C9    C     C_2   0.304587 0.612265 0.808962 -0.297501
C10   C     C_2   0.281027 0.059990 0.337102 -0.160628
C11   C     C_2   0.192294 0.995694 0.304640 -0.293798
C12   C     C_R   0.114488 0.805599 0.584202 -0.174209
C13   C     C_2   0.337145 0.057527 0.280865 -0.161397
C14   C     C_2   0.304450 0.001069 0.192226 -0.294211
C15   C     C_2   0.768891 0.930932 0.218858 -0.279086
C16   C     C_R   0.638150 0.277029 0.138529 0.851427
C17   C     C_2   0.795601 0.991609 0.307042 -0.377932
C18   C     C_2   0.702820 0.920999 0.163292 0.511231
C19   C     C_2   0.697010 0.000524 0.193532 -0.391229
C20   C     C_2   0.775965 0.556357 0.219214 -0.161459
C21   C     C_2   0.808930 0.612251 0.307800 -0.296849
C22   C     C_2   0.722333 0.444008 0.162903 -0.163306
C23   C     C_R   0.180551 0.899132 0.664167 0.098356
C24   C     C_2   0.690867 0.387727 0.195363 -0.295918
C25   C     C_R   0.138402 0.277086 0.638315 0.852525
C26   C     C_R   0.861757 0.722966 0.361648 0.846625
C27   C     C_R   0.861123 0.999807 0.638305 0.853955
C28   C     C_R   0.361431 0.722930 0.861805 0.843112
C29   C     C_R   0.138433 0.999641 0.361472 0.852251
C30   C     C_R   0.859134 0.999018 0.360619 0.897788
C31   C     C_R   0.139999 0.998380 0.638481 0.783586
C32   C     C_R   0.639207 0.999144 0.139329 0.880368
C33   C     C_R   0.359878 0.998334 0.858362 0.783102
C34   C     C_R   0.235145 0.899114 0.718789 0.098062
C35   C     C_R   0.221745 0.805565 0.691516 -0.173552
C36   C     C_R   0.155010 0.714279 0.613289 -0.138005
C37   C     C_R   0.101587 0.714295 0.559838 -0.138807
C38   C     C_3   0.605666 0.744330 0.072612 0.079266
C39   C     C_3   0.634013 0.674291 0.018146 -0.330524
C40   C     C_3   0.580332 0.573643 0.009443 -0.965473
C41   C     C_R   0.303743 0.993186 0.797245 -0.072221
C42   C     C_R   0.320193 0.085070 0.818005 -0.205490
C43   C     C_R   0.266937 0.085087 0.764725 -0.206424
C44   C     C_R   0.196004 0.993220 0.689456 -0.072197
C45   C     C_2   0.779627 0.942360 0.723415 -0.159440
H1    H     H_    0.373451 0.157288 0.877135 0.156609
H2    H     H_    0.234426 0.954610 0.156246 0.151829
H3    H     H_    0.794027 0.885170 0.185854 0.193521
H4    H     H_    0.263533 0.801740 0.728789 0.146936
H5    H     H_    0.767565 0.033238 0.341658 0.156139
H6    H     H_    0.736950 0.070590 0.259346 0.119246
H7    H     H_    0.789397 0.593852 0.185680 0.176525
H8    H     H_    0.799203 0.578160 0.343642 0.149600
H9    H     H_    0.707639 0.406874 0.091956 0.176547
H10   H     H_    0.701762 0.421537 0.265235 0.151030
H11   H     H_    0.145606 0.643351 0.593368 0.137603
H12   H     H_    0.719851 0.063630 0.798273 0.151084
H13   H     H_    0.050742 0.643381 0.498454 0.137289
H14   H     H_    0.073446 0.801801 0.538595 0.146600
H15   H     H_    0.279896 0.157315 0.783548 0.155673
H16   H     H_    0.803060 0.894635 0.709419 0.178423
H17   H     H_    0.779494 0.045116 0.701354 0.151017
H18   H     H_    0.698133 0.883167 0.791477 0.178741
H19   H     H_    0.534515 0.705099 0.038579 0.159385
H20   H     H_    0.610586 0.756410 0.138497 0.122591
H21   H     H_    0.624350 0.658041 0.950980 0.233193
H22   H     H_    0.705463 0.712995 0.050342 0.217169
H23   H     H_    0.314654 0.406268 0.710606 0.175537
H24   H     H_    0.590563 0.587928 0.075793 0.266268
H25   H     H_    0.602256 0.524545 0.969334 0.268295
H26   H     H_    0.508624 0.532610 0.976030 0.264007
H27   H     H_    0.156214 0.421785 0.701318 0.150262
H28   H     H_    0.408403 0.593315 0.793313 0.177777
H29   H     H_    0.234532 0.578452 0.797476 0.151523
H30   H     H_    0.314800 0.116474 0.408037 0.176561
H31   H     H_    0.156224 0.936629 0.234783 0.150992
H32   H     H_    0.408240 0.105332 0.314498 0.177010
O1    O     O_3   0.500000 0.000000 0.000000 -0.493652
O2    O     O_R   0.054120 0.939900 0.325040 -0.645915
O3    O     O_R   0.884120 0.060070 0.444330 -0.647616
O4    O     O_R   0.325020 0.939940 0.054210 -0.641352
O5    O     O_R   0.175860 0.060090 0.615830 -0.638865
O6    O     O_R   0.884120 0.939900 0.324160 -0.645265
O7    O     O_R   0.055710 0.939940 0.615850 -0.644980
O8    O     O_R   0.885720 0.939940 0.614980 -0.639021
O9    O     O_R   0.174930 0.060060 0.445830 -0.642216
O10   O     O_R   0.054120 0.229160 0.614300 -0.643972
O11   O     O_R   0.885050 0.770830 0.325070 -0.643184
O12   O     O_R   0.614240 0.229150 0.054160 -0.642379
O13   O     O_R   0.614240 0.060060 0.885070 -0.645251
O14   O     O_R   0.614900 0.229170 0.174980 -0.644800
O15   O     O_R   0.445840 0.770840 0.885740 -0.639433
O16   O     O_R   0.615830 0.060100 0.175880 -0.657113
O17   O     O_R   0.324090 0.939910 0.884220 -0.643969
O18   O     O_R   0.615830 0.939930 0.055710 -0.583095
O19   O     O_R   0.444240 0.060060 0.884190 -0.637652
O20   O     O_3   0.654860 0.835141 0.076358 -0.610200
O21   O     O_R   0.325020 0.770840 0.885120 -0.649170
O22   O     O_R   0.445840 0.060100 0.175010 -0.642517
O23   O     O_R   0.614900 0.939900 0.885710 -0.641087
O24   O     O_3   0.999960 0.000000 0.500040 -0.488475
O25   O     O_R   0.174930 0.229160 0.614920 -0.643310
O26   O     O_R   0.885720 0.770850 0.445880 -0.649262
O27   O     O_R   0.885050 0.060100 0.614330 -0.645065
Zn1   Zn    Zn3+2 0.542440 0.085830 0.956610 0.964482
Zn2   Zn    Zn3+2 0.543390 0.085850 0.129220 0.963111
Zn3   Zn    Zn3+2 0.543390 0.914160 0.957530 0.986185
Zn4   Zn    Zn3+2 0.370780 0.914160 0.956640 0.963702
Zn5   Zn    Zn3+2 0.957510 0.914170 0.543430 0.962833
Zn6   Zn    Zn3+2 0.956570 0.085840 0.542520 0.969362
Zn7   Zn    Zn3+2 0.956570 0.914150 0.370820 0.960209
Zn8   Zn    Zn3+2 0.129180 0.085840 0.543400 0.963498

loop_
_geom_bond_atom_site_label_1
_geom_bond_atom_site_label_2
_ccdc_geom_bond_type
C15   C18   S    
O27   Zn6   S    
O19   Zn1   S    
C40   H26   S    
C41   C42   A    
O25   Zn8   S    
C35   C36   A    
C21   C26   S    
C33   O17   A    
C1    O22   A    
C5    H12   S    
C22   H9    S    
O10   Zn6   S    
O24   Zn8   S    
C12   C23   A    
O17   Zn4   S    
C31   O5    A    
C40   H25   S    
O1    Zn1   S    
C36   C37   A    
C18   C19   D    
O8    Zn5   S    
C11   H31   S    
C38   C39   S    
C26   O26   A    
C25   O25   A    
O24   Zn5   S    
C27   O27   A    
C25   O10   A    
O21   Zn4   S    
O1    Zn4   S    
C34   C35   A    
C42   H1    S    
C30   O6    A    
C27   O8    A    
O11   Zn7   S    
C8    C9    D    
C35   H4    S    
C2    C27   S    
C18   O20   S    
C42   C43   A    
C38   H19   S    
C37   H13   S    
C30   O3    A    
C6    H23   S    
C32   O16   A    
O4    Zn4   S    
C16   O12   A    
C16   C24   S    
C13   C14   D    
C17   C30   S    
C12   H14   S    
O14   Zn2   S    
C34   C41   A    
C15   H3    S    
C38   O20   S    
C19   C32   S    
C4    O13   A    
C2    C45   D    
C13   H32   S    
C31   C44   S    
C40   H24   S    
C7    H27   S    
C6    C8    S    
O24   Zn6   S    
C3    C45   S    
C31   O7    A    
O1    Zn3   S    
C24   H10   S    
O5    Zn8   S    
O9    Zn8   S    
C43   C44   A    
C36   H11   S    
O16   Zn2   S    
C10   H30   S    
O15   Zn3   S    
C29   O2    A    
C38   H20   S    
C23   C34   A    
C28   O15   A    
C29   O9    A    
C6    C7    D    
O18   Zn3   S    
C43   H15   S    
C20   C22   S    
C4    O23   A    
C39   H21   S    
O6    Zn7   S    
C9    H29   S    
O12   Zn1   S    
C33   O19   A    
C39   C40   S    
C28   O21   A    
C15   C17   D    
O22   Zn2   S    
O23   Zn3   S    
C39   H22   S    
O13   Zn1   S    
C4    C5    S    
C3    C5    D    
C10   C13   S    
C17   H5    S    
C14   H2    S    
C3    H18   S    
O24   Zn7   S    
O7    Zn5   S    
C7    C25   S    
O2    Zn7   S    
O26   Zn5   S    
C33   C41   S    
C20   H7    S    
C21   H8    S    
C45   H16   S    
C8    H28   S    
O1    Zn2   S    
C22   C24   D    
C10   C11   D    
C23   C44   A    
C19   H6    S    
C32   O18   A    
C20   C21   D    
C11   C29   S    
C16   O14   A    
C26   O11   A    
C12   C37   A    
O3    Zn6   S    
C1    C14   S    
C1    O4    A    
C2    H17   S    
C9    C28   S    
