data_mof_unit_58450.cif
_audit_creation_date              2012-12-11T17:14:07-0500
_audit_creation_method            fapswitch 2.2
_symmetry_space_group_name_H-M    P1
_symmetry_Int_Tables_number       1
_space_group_crystal_system       triclinic
_cell_length_a                    18.217766
_cell_length_b                    7.091954
_cell_length_c                    13.014654
_cell_angle_alpha                 90.038607
_cell_angle_beta                  71.864881
_cell_angle_gamma                 89.987963
_cell_volume                      1597.95935003

loop_
_atom_site_label
_atom_site_type_symbol
_atom_type_description
_atom_site_fract_x
_atom_site_fract_y
_atom_site_fract_z
_atom_type_partial_charge
O1    O     O_R   0.453880 0.506200 0.150010 -0.536405
O2    O     O_R   0.546120 0.006200 0.849990 -0.536292
O3    O     O_R   0.604080 0.177770 0.007280 -0.539226
O4    O     O_R   0.395920 0.677770 0.992720 -0.539183
C1    C     C_R   0.635988 0.344495 0.001729 0.730072
C2    C     C_R   0.364013 0.844519 0.998266 0.730033
O5    O     O_R   0.458010 0.176640 0.159130 -0.543026
O6    O     O_R   0.541990 0.676640 0.840870 -0.542985
O7    O     O_R   0.399010 0.004010 0.002930 -0.536009
O8    O     O_R   0.600990 0.504010 0.997070 -0.536103
C3    C     C_R   0.442934 0.345653 0.201834 0.690572
C4    C     C_R   0.557053 0.845470 0.798168 0.690516
O9    O     O_3   0.480810 0.338440 0.948570 -0.374026
O10   O     O_3   0.519190 0.838440 0.051430 -0.374281
V1    V     V_3+5 0.503560 0.064490 0.009540 1.423329
V2    V     V_3+5 0.496440 0.564490 0.990460 1.423494
C5    C     C_R   0.584348 0.937744 0.505133 -0.161508
C6    C     C_R   0.415027 0.448210 0.493982 -0.161535
H1    H     H_    0.486809 0.929428 0.649218 0.108004
H2    H     H_    0.512559 0.439911 0.349914 0.108509
H3    H     H_    0.663908 0.966339 0.297317 0.124730
H4    H     H_    0.335253 0.482096 0.701459 0.124493
H5    H     H_    0.548925 0.971289 0.454360 0.121038
H6    H     H_    0.450171 0.486836 0.544331 0.121109
C7    C     C_R   0.592777 0.858194 0.681267 -0.035604
C8    C     C_R   0.407239 0.359266 0.318739 -0.036630
C9    C     C_R   0.954564 0.837041 0.383490 -0.220977
C10   C     C_R   0.045688 0.329689 0.616759 -0.220095
C11   C     C_R   0.925073 0.855261 0.494947 -0.119308
C12   C     C_R   0.075044 0.344527 0.505135 -0.119671
C13   C     C_R   0.846357 0.891288 0.545611 0.168608
C14   C     C_R   0.153469 0.383220 0.454103 0.168344
C15   C     C_R   0.793911 0.885967 0.483133 0.059457
C16   C     C_R   0.205917 0.384288 0.516612 0.059628
C17   C     C_R   0.826196 0.886503 0.368038 0.032902
C18   C     C_R   0.173602 0.388547 0.631682 0.032729
C19   C     C_R   0.711376 0.885141 0.528588 0.078127
C20   C     C_R   0.288448 0.386114 0.471165 0.077923
C21   C     C_R   0.664948 0.922607 0.460956 0.138354
C22   C     C_R   0.334568 0.429972 0.538353 0.138274
C23   C     C_R   0.698958 0.940257 0.349601 -0.208386
C24   C     C_R   0.300413 0.451130 0.649491 -0.208038
C25   C     C_R   0.777881 0.915455 0.303406 -0.183817
C26   C     C_R   0.221681 0.423684 0.695972 -0.184243
C27   C     C_R   0.672805 0.837748 0.637381 -0.226153
C28   C     C_R   0.327382 0.335610 0.362908 -0.226508
C29   C     C_R   0.548739 0.911182 0.615424 -0.175513
C30   C     C_R   0.450820 0.418661 0.383980 -0.174307
C31   C     C_R   0.906610 0.861147 0.319419 -0.071842
C32   C     C_R   0.093404 0.360166 0.680574 -0.071907
H7    H     H_    0.703472 0.782762 0.689492 0.126305
H8    H     H_    0.297106 0.276394 0.311372 0.126805
H9    H     H_    0.016119 0.816169 0.346532 0.114072
H10   H     H_    0.984336 0.306208 0.653932 0.113373
H11   H     H_    0.965002 0.852587 0.541698 0.136732
H12   H     H_    0.035168 0.336819 0.458419 0.136884
H13   H     H_    0.800852 0.921768 0.216111 0.123975
H14   H     H_    0.198656 0.432899 0.783179 0.124514
C33   C     C_1   0.216287 0.858685 0.000397 -0.185133
C34   C     C_1   0.783714 0.358718 0.999595 -0.184898
C35   C     C_1   0.283585 0.852563 0.999204 -0.188005
C36   C     C_1   0.716417 0.352532 0.000790 -0.187778
O11   O     O_R   0.899030 0.205490 0.002790 -0.536576
O12   O     O_R   0.100970 0.705490 0.997210 -0.536796
O13   O     O_R   0.042000 0.536370 0.840840 -0.540882
O14   O     O_R   0.958000 0.036370 0.159160 -0.540701
C37   C     C_R   0.057631 0.368101 0.798152 0.691392
C38   C     C_R   0.942429 0.868267 0.201854 0.691376
O15   O     O_R   0.895930 0.535070 0.992690 -0.539009
O16   O     O_R   0.104070 0.035070 0.007310 -0.538837
O17   O     O_R   0.953870 0.707520 0.150040 -0.538083
O18   O     O_R   0.046130 0.207520 0.849960 -0.537954
C39   C     C_R   0.864140 0.366739 0.998653 0.729101
C40   C     C_R   0.135861 0.866714 0.001343 0.728847
O19   O     O_3   0.019200 0.374340 0.051340 -0.373928
O20   O     O_3   0.980800 0.874340 0.948660 -0.373960
V3    V     V_3+5 0.996440 0.648350 0.990470 1.426037
V4    V     V_3+5 0.003560 0.148350 0.009530 1.426662
C41   C     C_3   0.825673 0.966195 0.659829 -0.819786
H15   H     H_    0.872932 0.056914 0.669204 0.205855
H16   H     H_    0.773908 0.058297 0.680083 0.216176
H17   H     H_    0.817721 0.847849 0.718065 0.207374
C42   C     C_3   0.173614 0.453948 0.339145 -0.819870
H18   H     H_    0.125742 0.541537 0.328954 0.206999
H19   H     H_    0.224786 0.547971 0.317856 0.215837
H20   H     H_    0.182306 0.333379 0.282149 0.207213

loop_
_geom_bond_atom_site_label_1
_geom_bond_atom_site_label_2
_ccdc_geom_bond_type
O14   C38   A    
C31   C38   S    
C9    C11   A    
O12   V3    S    
O15   V3    S    
O1    C3    A    
O2    C4    A    
C2    O7    A    
C18   C32   A    
C21   C23   A    
O5    C3    A    
C5    H5    S    
C6    H6    S    
C2    C35   S    
O20   V4    S    
H1    C29   S    
O16   V4    S    
C27   H7    S    
C28   H8    S    
C34   C39   S    
C34   C36   T    
C37   O18   A    
C5    C21   A    
C6    C22   A    
O18   V4    S    
C10   C32   A    
C26   H14   S    
O13   C37   A    
C17   C31   A    
C13   C15   A    
O15   C39   A    
C12   C14   A    
C17   C25   A    
C32   C37   S    
C7    C29   A    
C8    C30   A    
C22   C24   A    
O6    V2    S    
C23   C25   A    
C24   C26   A    
O14   V4    S    
C33   C35   T    
O13   V3    S    
O20   V3    S    
O4    C2    A    
C41   H16   S    
C10   H10   S    
O11   C39   A    
C3    C8    S    
C12   H12   S    
C15   C19   A    
C14   C16   A    
O4    V2    S    
O16   C40   A    
C42   H18   S    
O6    C4    A    
O1    V2    S    
O2    V1    S    
O19   V3    S    
C33   C40   S    
H2    C30   S    
H3    C23   S    
C42   H19   S    
C18   C26   A    
C19   C27   A    
C7    C27   A    
O17   V3    S    
O3    V1    S    
C14   C42   S    
C16   C20   A    
C5    C29   A    
O3    C1    A    
C6    C30   A    
C41   H17   S    
C9    H9    S    
C13   C41   S    
C11   H11   S    
C4    C7    S    
C10   C12   A    
O7    V1    S    
C1    O8    A    
C19   C21   A    
O8    V2    S    
C20   C22   A    
H4    C24   S    
C38   O17   A    
O5    V1    S    
C15   C17   A    
C1    C36   S    
C16   C18   A    
O19   V4    S    
C20   C28   A    
C25   H13   S    
C41   H15   S    
C42   H20   S    
C11   C13   A    
O9    V2    S    
O12   C40   A    
O10   V1    S    
C8    C28   A    
C9    C31   A    
O11   V4    S    
