data_mof_unit_6395.cif
_audit_creation_date              2012-12-10T17:17:29-0500
_audit_creation_method            fapswitch 2.2
_symmetry_space_group_name_H-M    P1
_symmetry_Int_Tables_number       1
_space_group_crystal_system       triclinic
_cell_length_a                    10.186251
_cell_length_b                    10.80451
_cell_length_c                    12.300067
_cell_angle_alpha                 90.62805
_cell_angle_beta                  109.425781
_cell_angle_gamma                 96.002845
_cell_volume                      1268.14012149

loop_
_atom_site_label
_atom_site_type_symbol
_atom_type_description
_atom_site_fract_x
_atom_site_fract_y
_atom_site_fract_z
_atom_type_partial_charge
C1    C     C_R   0.054001 0.732820 0.496239 0.950565
C2    C     C_R   0.200341 0.497667 0.838089 -0.104730
C3    C     C_2   0.091585 0.866009 0.505721 -0.386071
C4    C     C_R   0.132285 0.504548 0.714045 0.852938
C5    C     C_2   0.012667 0.936590 0.541713 -0.143531
C6    C     C_2   0.928753 0.136497 0.528922 -0.381555
C7    C     C_2   0.034543 0.069221 0.539080 -0.156071
C8    C     C_2   0.432946 0.510981 0.510136 -0.125178
C9    C     C_2   0.567273 0.488197 0.490659 -0.139727
C10   C     C_R   0.950274 0.267708 0.511038 0.936683
C11   C     C_R   0.865243 0.486860 0.285921 0.873552
C12   C     C_R   0.413078 0.471596 0.994113 0.082027
C13   C     C_R   0.732432 0.331420 0.990188 -0.190598
C14   C     C_R   0.785666 0.459383 0.164787 -0.062841
C15   C     C_R   0.151199 0.561869 0.913863 -0.187402
C16   C     C_R   0.228830 0.575122 0.030619 -0.147397
C17   C     C_R   0.360439 0.533432 0.070580 -0.182355
C18   C     C_3   0.526989 0.218996 0.771793 -0.930577
C19   C     C_R   0.323382 0.438880 0.881332 0.031048
C20   C     C_R   0.552147 0.442464 0.025601 0.033177
C21   C     C_R   0.592992 0.360957 0.953959 0.144655
C22   C     C_R   0.493091 0.310789 0.849189 0.164020
C23   C     C_R   0.359580 0.350099 0.814349 -0.203023
C24   C     C_R   0.653006 0.497281 0.125237 -0.244628
C25   C     C_R   0.827496 0.378573 0.096327 -0.205373
H1    H     H_    0.931004 0.348057 0.126695 0.159456
H2    H     H_    0.629410 0.568406 0.175982 0.152606
H3    H     H_    0.054610 0.604354 0.882487 0.157567
H4    H     H_    0.417341 0.547868 0.161879 0.132156
H5    H     H_    0.189859 0.622771 0.089468 0.146379
H6    H     H_    0.283039 0.309317 0.734786 0.173147
H7    H     H_    0.135517 0.110629 0.536519 0.184127
H8    H     H_    0.435155 0.189014 0.693712 0.239908
H9    H     H_    0.612410 0.262432 0.742558 0.246001
H10   H     H_    0.560084 0.134590 0.819387 0.239953
H11   H     H_    0.923762 0.896720 0.565200 0.186386
H12   H     H_    0.828043 0.094671 0.531468 0.150935
H13   H     H_    0.180121 0.906291 0.482089 0.149476
H14   H     H_    0.564554 0.414763 0.428785 0.165245
H15   H     H_    0.435796 0.583967 0.572459 0.168383
H16   H     H_    0.684768 0.622277 0.603222 0.160125
H17   H     H_    0.315092 0.378096 0.396375 0.159485
H18   H     H_    0.767848 0.269043 0.939190 0.153908
N1    N     N_2   0.313640 0.446500 0.454900 -0.195172
N2    N     N_2   0.686360 0.553430 0.545150 -0.191663
O1    O     O_R   0.936910 0.692950 0.509080 -0.608792
O2    O     O_R   0.138320 0.658600 0.480130 -0.606268
O3    O     O_R   0.002900 0.525670 0.675280 -0.610660
O4    O     O_R   0.204310 0.491320 0.646330 -0.609284
O5    O     O_R   0.861680 0.341400 0.519870 -0.606943
O6    O     O_R   0.063090 0.307050 0.490920 -0.616658
O7    O     O_R   0.795690 0.508680 0.353670 -0.608773
O8    O     O_R   0.997100 0.474330 0.324720 -0.610184
Zn1   Zn    Zn3+2 0.865520 0.522940 0.519330 0.932469
Zn2   Zn    Zn3+2 0.134480 0.477060 0.480670 0.929075

loop_
_geom_bond_atom_site_label_1
_geom_bond_atom_site_label_2
_ccdc_geom_bond_type
C12   C17   A    
C6    C10   S    
C19   C23   A    
C9    N2    D    
C6    C7    D    
C11   O7    A    
C17   H4    S    
C18   H10   S    
C2    C4    S    
C11   O8    A    
C24   H2    S    
C9    H14   S    
C4    O4    A    
O1    Zn1   S    
C2    C19   A    
C6    H12   S    
C13   C21   A    
O4    Zn2   S    
C21   C22   A    
O3    Zn1   S    
C2    C15   A    
C18   H9    S    
N1    Zn2   S    
C13   C25   A    
C15   H3    S    
O5    Zn1   S    
H17   N1    S    
C12   C20   A    
C10   O6    A    
C12   C19   A    
C11   C14   S    
O7    Zn1   S    
N2    Zn1   S    
O6    Zn2   S    
O8    Zn2   S    
C14   C25   A    
C18   H8    S    
C1    O1    A    
C16   C17   A    
C16   H5    S    
C15   C16   A    
C10   O5    A    
C5    H11   S    
C8    N1    D    
C13   H18   S    
C20   C21   A    
O2    Zn2   S    
C4    O3    A    
C14   C24   A    
C5    C7    S    
H16   N2    S    
C22   C23   A    
C1    O2    A    
C7    H7    S    
C8    H15   S    
C3    C5    D    
C25   H1    S    
C18   C22   S    
C20   C24   A    
C3    H13   S    
C8    C9    S    
C1    C3    S    
C23   H6    S    
