data_mof_unit_11471.cif
_audit_creation_date              2012-12-11T15:48:01-0500
_audit_creation_method            fapswitch 2.2
_symmetry_space_group_name_H-M    P1
_symmetry_Int_Tables_number       1
_space_group_crystal_system       triclinic
_cell_length_a                    6.920103
_cell_length_b                    17.586239
_cell_length_c                    19.482647
_cell_angle_alpha                 108.580713
_cell_angle_beta                  89.425499
_cell_angle_gamma                 90.474887
_cell_volume                      2247.2779459

loop_
_atom_site_label
_atom_site_type_symbol
_atom_type_description
_atom_site_fract_x
_atom_site_fract_y
_atom_site_fract_z
_atom_type_partial_charge
O1    O     O_R   0.494330 0.415710 0.413720 -0.541828
O2    O     O_R   0.819360 0.430070 0.560210 -0.541564
O3    O     O_R   0.994320 0.584290 0.586280 -0.540625
C1    C     C_R   0.650221 0.415823 0.582556 0.720018
O4    O     O_R   0.823740 0.406290 0.412670 -0.540462
O5    O     O_R   0.998730 0.560340 0.437690 -0.538190
C2    C     C_R   0.655220 0.383464 0.384615 0.697340
O6    O     O_R   0.489920 0.439660 0.562310 -0.545612
O7    O     O_3   0.662330 0.550570 0.508380 -0.368967
V1    V     V_3+5 0.935370 0.490620 0.498440 1.393066
O8    O     O_R   0.328720 0.569930 0.439790 -0.540445
C3    C     C_R   0.160685 0.585069 0.418239 0.712064
O9    O     O_R   0.324340 0.593710 0.587330 -0.547017
C4    C     C_R   0.155039 0.616623 0.615520 0.679934
V2    V     V_3+5 0.435940 0.509380 0.501560 1.386314
O10   O     O_3   0.159110 0.449430 0.491620 -0.370086
C5    C     C_R   0.312755 0.721478 0.719859 -0.160282
H1    H     H_    0.453939 0.701041 0.697400 0.117407
C6    C     C_R   0.301730 0.785352 0.784779 -0.155260
H2    H     H_    0.434924 0.812324 0.810211 0.119217
C7    C     C_R   0.121560 0.814062 0.816261 -0.048901
C8    C     C_R   0.952766 0.776812 0.781179 -0.157572
C9    C     C_R   0.963786 0.712974 0.716250 -0.152697
C10   C     C_R   0.143914 0.684620 0.684523 -0.044655
C11   C     C_R   0.290300 0.626957 0.315020 -0.216457
C12   C     C_R   0.151972 0.635270 0.369902 -0.086348
C13   C     C_R   0.000726 0.689999 0.377285 -0.218309
C14   C     C_R   0.988725 0.738650 0.332021 0.079840
C15   C     C_R   0.129959 0.729863 0.276793 0.020174
C16   C     C_R   0.277189 0.672172 0.267362 0.076761
C17   C     C_R   0.838335 0.794994 0.339614 0.127710
C18   C     C_R   0.839990 0.844964 0.296079 -0.216008
C19   C     C_R   0.982799 0.839071 0.242471 0.063666
C20   C     C_R   0.123248 0.777844 0.230395 -0.033739
C21   C     C_R   0.254974 0.763552 0.171449 0.072874
C22   C     C_R   0.392020 0.700597 0.159096 0.148522
C23   C     C_R   0.406020 0.658293 0.208978 -0.221391
C24   C     C_R   0.984012 0.891183 0.199216 0.111135
C25   C     C_R   0.108853 0.873342 0.137630 -0.117857
C26   C     C_R   0.242896 0.810987 0.125424 -0.253966
H3    H     H_    0.404731 0.583295 0.307985 0.117845
H4    H     H_    0.895807 0.695094 0.419931 0.135918
H5    H     H_    0.724267 0.887787 0.304127 0.141838
H6    H     H_    0.338619 0.800491 0.079210 0.144029
C27   C     C_R   0.474076 0.191415 0.874011 -0.226902
C28   C     C_R   0.623522 0.137020 0.871616 -0.085765
C29   C     C_R   0.776445 0.129934 0.822448 -0.229747
C30   C     C_R   0.777640 0.174638 0.774369 0.104162
C31   C     C_R   0.627234 0.229342 0.776620 0.039644
C32   C     C_R   0.474319 0.238724 0.827517 0.068326
C33   C     C_R   0.928411 0.165697 0.724294 -0.191275
C34   C     C_R   0.926632 0.207147 0.674170 -0.178198
C35   C     C_R   0.774021 0.259576 0.672953 0.063040
C36   C     C_R   0.630877 0.274656 0.727963 -0.019977
C37   C     C_R   0.492890 0.335286 0.735039 0.054049
C38   C     C_R   0.339215 0.342642 0.784683 -0.207583
C39   C     C_R   0.325891 0.294646 0.829859 0.127561
C40   C     C_R   0.759652 0.297145 0.618528 0.066709
C41   C     C_R   0.640296 0.366412 0.632088 -0.138398
C42   C     C_R   0.515072 0.388664 0.693899 0.068628
H7    H     H_    0.359700 0.196903 0.913392 0.140029
H8    H     H_    0.892098 0.087964 0.820252 0.124139
H9    H     H_    0.048171 0.126102 0.723585 0.126969
H10   H     H_    0.051144 0.199844 0.638879 0.120835
H11   H     H_    0.225862 0.385746 0.788618 0.136949
C43   C     C_R   0.797531 0.263051 0.290620 -0.176025
H12   H     H_    0.928054 0.269200 0.322206 0.128287
C44   C     C_R   0.783224 0.199995 0.225446 -0.204424
H13   H     H_    0.903385 0.158950 0.209219 0.127103
C45   C     C_R   0.616165 0.188759 0.182417 -0.056724
C46   C     C_R   0.461103 0.244570 0.206418 0.141657
C47   C     C_R   0.477438 0.306506 0.272919 -0.182485
C48   C     C_R   0.643895 0.316425 0.315375 -0.065807
O11   O     O_R   0.774940 0.060470 0.937800 -0.537901
O12   O     O_R   0.440880 0.093730 0.087350 -0.540720
O13   O     O_R   0.266130 0.939630 0.062280 -0.536359
C49   C     C_R   0.608785 0.118394 0.114561 0.684214
O14   O     O_R   0.445480 0.069960 0.939820 -0.543240
O15   O     O_R   0.270770 0.915690 0.913690 -0.539366
C50   C     C_R   0.614897 0.086020 0.919131 0.709844
O16   O     O_R   0.770300 0.084410 0.086380 -0.546322
O17   O     O_3   0.602600 0.949510 0.991670 -0.366838
V3    V     V_3+5 0.329470 0.009370 0.001550 1.392831
O18   O     O_R   0.940760 0.906160 0.912560 -0.542722
C51   C     C_R   0.110211 0.882823 0.884739 0.690097
O19   O     O_R   0.936150 0.929930 0.060100 -0.545727
C52   C     C_R   0.103322 0.918543 0.084693 0.702704
V4    V     V_3+5 0.828930 0.990450 0.998310 1.389020
O20   O     O_3   0.105670 0.050490 0.008320 -0.367850
C53   C     C_3   0.519475 0.673896 0.091964 -0.373859
C54   C     C_3   0.702199 0.724890 0.101075 -0.729381
H14   H     H_    0.666904 0.789645 0.116408 0.228219
H15   H     H_    0.793102 0.714069 0.143525 0.233069
H16   H     H_    0.785748 0.707608 0.049508 0.213555
H17   H     H_    0.563280 0.610330 0.080642 0.177568
H18   H     H_    0.438988 0.674860 0.043260 0.170885
H19   H     H_    0.514904 0.612162 0.200802 0.125428
C55   C     C_3   0.856061 0.259490 0.544218 -0.346886
C56   C     C_3   0.706946 0.229980 0.483847 -0.745254
H20   H     H_    0.606773 0.186182 0.496014 0.225459
H21   H     H_    0.621624 0.279918 0.476853 0.211601
H22   H     H_    0.782093 0.199746 0.431747 0.208993
H23   H     H_    0.960021 0.301494 0.531664 0.196922
H24   H     H_    0.941617 0.205775 0.541061 0.171581
C57   C     C_3   0.416975 0.470989 0.719679 -0.341743
C58   C     C_3   0.491087 0.522504 0.793825 -0.779310
H25   H     H_    0.454510 0.495777 0.836747 0.234616
H26   H     H_    0.650473 0.529791 0.791692 0.226462
H27   H     H_    0.424111 0.582855 0.808836 0.218525
H28   H     H_    0.445047 0.507528 0.683962 0.188431
H29   H     H_    0.257546 0.464166 0.720901 0.166472
C59   C     C_3   0.153657 0.307092 0.880927 -0.343276
C60   C     C_3   0.205021 0.363607 0.955921 -0.775025
H30   H     H_    0.329699 0.340428 0.978462 0.229697
H31   H     H_    0.242660 0.423929 0.952727 0.228473
H32   H     H_    0.079238 0.369428 0.993030 0.220119
H33   H     H_    0.031097 0.333595 0.859989 0.185472
H34   H     H_    0.097957 0.249101 0.884399 0.178963
C61   C     C_3   0.278297 0.242979 0.163321 -0.345633
C62   C     C_3   0.318469 0.267116 0.095803 -0.725486
H35   H     H_    0.373539 0.329795 0.111719 0.213224
H36   H     H_    0.426260 0.227260 0.059576 0.215966
H37   H     H_    0.182310 0.263492 0.065215 0.213916
H38   H     H_    0.204973 0.183893 0.149474 0.194789
H39   H     H_    0.169960 0.285880 0.196428 0.167250
H40   H     H_    0.360134 0.348832 0.291120 0.116394
H41   H     H_    0.811562 0.797094 0.803713 0.116589
H42   H     H_    0.830576 0.685925 0.690882 0.118665
C63   C     C_3   0.672226 0.803789 0.392978 -0.349928
C64   C     C_3   0.728599 0.857615 0.468470 -0.754720
H43   H     H_    0.854091 0.832769 0.489075 0.223865
H44   H     H_    0.766303 0.918624 0.467054 0.229415
H45   H     H_    0.604946 0.862446 0.506348 0.218686
H46   H     H_    0.544812 0.830734 0.375307 0.184192
H47   H     H_    0.621508 0.744321 0.394554 0.180344
C65   C     C_3   0.862445 0.967655 0.221526 -0.362637
C66   C     C_3   0.934707 0.028017 0.292090 -0.785131
H48   H     H_    0.930467 0.002916 0.337548 0.237386
H49   H     H_    0.085505 0.046385 0.284781 0.224686
H50   H     H_    0.842003 0.082154 0.306936 0.219647
H51   H     H_    0.866968 0.999969 0.181455 0.188857
H52   H     H_    0.707475 0.953185 0.226148 0.170007

loop_
_geom_bond_atom_site_label_1
_geom_bond_atom_site_label_2
_ccdc_geom_bond_type
C43   C44   A    
C57   H28   S    
C64   H44   S    
C21   C22   A    
C40   C55   S    
C25   C52   S    
C1    O6    A    
C29   H8    S    
C23   H19   S    
C8    H41   S    
C53   H17   S    
C2    C48   S    
C35   C36   A    
C62   H35   S    
C66   H49   S    
C12   C13   A    
C65   H51   S    
C7    C8    A    
C14   C15   A    
C6    C7    A    
C60   H30   S    
O5    C3    A    
C59   H33   S    
O19   V4    S    
C39   C59   S    
C58   H25   S    
C55   H23   S    
C38   C39   A    
C20   C21   A    
C28   C29   A    
C4    C10   S    
C65   H52   S    
C63   H47   S    
O8    V2    S    
O14   V3    S    
C30   C33   A    
C29   C30   A    
C44   H13   S    
C9    C10   A    
C45   C46   A    
O1    V2    S    
C24   C65   S    
O7    V1    S    
C62   H37   S    
C60   H32   S    
C43   H12   S    
C57   H29   S    
C41   C42   A    
O11   C50   A    
O9    C4    A    
C45   C49   S    
O13   V3    S    
C59   C60   S    
C62   H36   S    
C19   C20   A    
C14   C17   A    
V3    O20   S    
C66   H50   S    
C7    C51   S    
C5    C10   A    
V2    O10   S    
C33   C34   A    
C33   H9    S    
O18   C51   A    
C34   H10   S    
C11   H3    S    
C54   H14   S    
O4    C2    A    
O19   C52   A    
C47   C48   A    
C11   C12   A    
C61   H38   S    
C43   C48   A    
C15   C20   A    
O17   V3    S    
C16   C23   A    
C3    C12   S    
O2    C1    A    
C15   C16   A    
C54   H15   S    
C38   H11   S    
C56   H20   S    
C49   O16   A    
C61   C62   S    
C37   C38   A    
C5    H1    S    
O12   C49   A    
O13   C52   A    
O3    C4    A    
C61   H39   S    
C30   C31   A    
C56   H21   S    
C55   C56   S    
O6    V2    S    
O9    V2    S    
C64   H45   S    
O2    V1    S    
O15   C51   A    
C34   C35   A    
C63   C64   S    
C57   C58   S    
C22   C53   S    
C11   C16   A    
C36   C37   A    
C22   C23   A    
O1    C2    A    
C32   C39   A    
C17   C18   A    
O18   V4    S    
C65   C66   S    
O5    V1    S    
C35   C40   A    
C53   H18   S    
C66   H48   S    
C19   C24   A    
C46   C61   S    
C18   C19   A    
C6    H2    S    
C21   C26   A    
C40   C41   A    
O4    V1    S    
C17   C63   S    
O3    V1    S    
V1    O10   S    
C54   H16   S    
O15   V3    S    
C13   H4    S    
O12   V3    S    
C53   C54   S    
C24   C25   A    
C58   H26   S    
C27   C32   A    
O17   V4    S    
C1    C41   S    
C27   H7    S    
C5    C6    A    
C18   H5    S    
C64   H43   S    
O14   C50   A    
O7    V2    S    
O16   V4    S    
C63   H46   S    
C25   C26   A    
C27   C28   A    
C26   H6    S    
C56   H22   S    
C46   C47   A    
V4    O20   S    
C44   C45   A    
C31   C32   A    
C47   H40   S    
C13   C14   A    
C59   H34   S    
C8    C9    A    
C28   C50   S    
O11   V4    S    
C37   C42   A    
C55   H24   S    
C42   C57   S    
C31   C36   A    
O8    C3    A    
C9    H42   S    
C60   H31   S    
C58   H27   S    
