data_mof_unit_66238.cif
_audit_creation_date              2012-12-10T21:15:54-0500
_audit_creation_method            fapswitch 2.2
_symmetry_space_group_name_H-M    P1
_symmetry_Int_Tables_number       1
_space_group_crystal_system       triclinic
_cell_length_a                    13.655096
_cell_length_b                    16.748545
_cell_length_c                    17.608983
_cell_angle_alpha                 90.035627
_cell_angle_beta                  90.106664
_cell_angle_gamma                 83.033844
_cell_volume                      3997.49068531

loop_
_atom_site_label
_atom_site_type_symbol
_atom_type_description
_atom_site_fract_x
_atom_site_fract_y
_atom_site_fract_z
_atom_type_partial_charge
C1    C     C_R   0.500148 0.499990 0.646766 0.911275
C2    C     C_R   0.499852 0.500010 0.353234 0.911277
C3    C     C_R   0.500368 0.572106 0.152334 -0.211943
C4    C     C_R   0.499632 0.427893 0.847666 -0.211943
C5    C     C_R   0.499472 0.499599 0.113610 -0.018599
C6    C     C_R   0.500528 0.500401 0.886390 -0.018599
C7    C     C_1   0.499826 0.499878 0.033680 0.078060
C8    C     C_1   0.500174 0.500122 0.966320 0.078060
C9    C     C_R   0.556000 0.161905 0.552074 -0.263353
C10   C     C_R   0.444000 0.838095 0.447926 -0.263353
C11   C     C_R   0.555415 0.246115 0.551497 0.015688
C12   C     C_R   0.444585 0.753885 0.448503 0.015688
C13   C     C_R   0.444199 0.257894 0.448015 0.007056
C14   C     C_R   0.555801 0.742106 0.551985 0.007056
C15   C     C_R   0.442563 0.173823 0.446438 0.099855
C16   C     C_R   0.557437 0.826177 0.553562 0.099855
C17   C     C_R   0.499225 0.124495 0.499229 0.077245
C18   C     C_R   0.500775 0.875505 0.500771 0.077245
C19   C     C_1   0.499801 0.036573 0.499798 0.049732
C20   C     C_1   0.500199 0.963427 0.500202 0.049732
C21   C     C_R   0.686093 0.485722 0.500014 0.917477
C22   C     C_R   0.313907 0.514278 0.499986 0.917476
C23   C     C_1   0.210400 0.525263 0.500025 -0.154899
C24   C     C_1   0.789600 0.474737 0.499975 -0.154899
C25   C     C_2   0.019171 0.534639 0.500134 0.482336
C26   C     C_2   0.980829 0.465361 0.499866 0.482336
C27   C     C_1   0.877177 0.467613 0.499926 0.035781
C28   C     C_1   0.122823 0.532387 0.500074 0.035781
C29   C     C_R   0.498437 0.427128 0.152484 0.674180
C30   C     C_R   0.501563 0.572872 0.847516 0.674181
C31   C     C_R   0.498466 0.427250 0.231195 -0.261579
C32   C     C_R   0.501533 0.572750 0.768804 -0.261579
C33   C     C_R   0.499560 0.499899 0.270792 -0.135175
C34   C     C_R   0.500440 0.500101 0.729208 -0.135176
C35   C     C_R   0.500389 0.572385 0.231017 -0.180278
C36   C     C_R   0.499612 0.427615 0.768983 -0.180278
H1    H     H_    0.497675 0.370729 0.260934 0.192780
H2    H     H_    0.502325 0.629271 0.739066 0.192780
H3    H     H_    0.501154 0.629071 0.260532 0.179304
H4    H     H_    0.498846 0.370928 0.739468 0.179304
H5    H     H_    0.501139 0.628169 0.121740 0.191838
H6    H     H_    0.498861 0.371830 0.878260 0.191838
H7    H     H_    0.600622 0.126241 0.593600 0.179418
H8    H     H_    0.399378 0.873758 0.406400 0.179418
H9    H     H_    0.599514 0.274201 0.592438 0.140755
H10   H     H_    0.400486 0.725799 0.407562 0.140755
H11   H     H_    0.400599 0.295549 0.407458 0.156512
H12   H     H_    0.599401 0.704451 0.592542 0.156513
N1    N     N_R   0.499970 0.292770 0.499970 -0.108080
N2    N     N_R   0.500030 0.707230 0.500030 -0.108079
O1    O     O_R   0.500000 0.433430 0.610870 -0.625979
O2    O     O_R   0.500000 0.566570 0.389130 -0.625979
O3    O     O_R   0.500010 0.566520 0.610900 -0.625567
O4    O     O_R   0.499990 0.433480 0.389100 -0.625568
O5    O     O_R   0.640340 0.423880 0.499970 -0.610911
O6    O     O_R   0.359660 0.576120 0.500030 -0.610911
O7    O     O_R   0.640350 0.556960 0.500000 -0.597573
O8    O     O_R   0.359650 0.443040 0.500000 -0.597572
Zn1   Zn    Zn3+2 0.500000 0.411140 0.499980 0.975005
Zn2   Zn    Zn3+2 0.500000 0.588860 0.500020 0.975005
F1    F     F_    0.038532 0.393103 0.499515 -0.648813
F2    F     F_    0.961468 0.606897 0.500485 -0.648813
F3    F     F_    0.497500 0.356727 0.114325 -0.645779
F4    F     F_    0.502499 0.643272 0.885675 -0.645779
I1    I     I_    0.353826 0.125181 0.363623 -0.275770
I2    I     I_    0.646174 0.874819 0.636377 -0.275770

loop_
_geom_bond_atom_site_label_1
_geom_bond_atom_site_label_2
_ccdc_geom_bond_type
C22   O8    A    
C6    C8    S    
C31   C33   A    
C21   O7    A    
C11   N1    A    
C32   H2    S    
C1    O1    A    
O5    Zn1   S    
C5    C29   A    
C19   C20   T    
N1    Zn1   S    
C24   C27   T    
C3    C35   A    
O4    Zn1   S    
N2    Zn2   S    
C4    H6    S    
C29   F3    S    
C25   C26   D    
C21   O5    A    
C7    C8    T    
C29   C31   A    
C16   C18   A    
C23   C28   T    
C25   C28   S    
C30   C32   A    
C9    C11   A    
C26   C27   S    
C14   N2    A    
C16   I2    S    
C2    O2    A    
C10   C18   A    
C13   N1    A    
C10   C12   A    
C2    C33   S    
C4    C6    A    
C17   C19   S    
C26   F1    S    
C1    C34   S    
C30   F4    S    
C25   F2    S    
C13   C15   A    
C35   H3    S    
C6    C30   A    
C14   C16   A    
C11   H9    S    
C9    H7    S    
C22   O6    A    
C10   H8    S    
C15   I1    S    
C31   H1    S    
C36   H4    S    
O1    Zn1   S    
C4    C36   A    
C34   C36   A    
C18   C20   S    
C12   H10   S    
C2    O4    A    
C21   C24   S    
C9    C17   A    
C5    C7    S    
C1    O3    A    
C22   C23   S    
C3    H5    S    
O7    Zn2   S    
C14   H12   S    
O2    Zn2   S    
C33   C35   A    
O8    Zn1   S    
C15   C17   A    
C13   H11   S    
O3    Zn2   S    
O6    Zn2   S    
C12   N2    A    
C3    C5    A    
C32   C34   A    
