data_mof_unit_14135.cif
_audit_creation_date              2013-03-05T15:49:19-0500
_audit_creation_method            fapswitch 2.2
_symmetry_space_group_name_H-M    P1
_symmetry_Int_Tables_number       1
_space_group_crystal_system       triclinic
_cell_length_a                    20.656065
_cell_length_b                    22.744945
_cell_length_c                    6.9365
_cell_angle_alpha                 89.977984
_cell_angle_beta                  86.624573
_cell_angle_gamma                 90.000517
_cell_volume                      3253.25990032

loop_
_atom_site_label
_atom_site_type_symbol
_atom_site_description
_atom_site_fract_x
_atom_site_fract_y
_atom_site_fract_z
_atom_type_partial_charge
O1    O     O_R   0.387100 0.552640 0.378490 -0.587759
O2    O     O_R   0.612900 0.052640 0.621510 -0.587549
O3    O     O_R   0.249610 0.559600 0.072250 -0.602456
O4    O     O_R   0.750390 0.059600 0.927750 -0.602622
O5    O     O_R   0.249120 0.447360 0.902040 -0.602867
O6    O     O_R   0.750880 0.947360 0.097960 -0.602840
C1    C     C_R   0.227710 0.574121 0.244811 0.932934
C2    C     C_R   0.772289 0.074121 0.755151 0.932558
O7    O     O_R   0.386610 0.559560 0.048860 -0.584577
O8    O     O_R   0.613390 0.059560 0.951140 -0.584704
O9    O     O_R   0.387100 0.447320 0.878470 -0.586148
O10   O     O_R   0.612900 0.947320 0.121530 -0.586049
C3    C     C_R   0.407911 0.574817 0.213521 0.934273
C4    C     C_R   0.592092 0.074809 0.786385 0.934210
O11   O     O_R   0.249120 0.552680 0.402050 -0.599922
O12   O     O_R   0.750880 0.052680 0.597950 -0.599843
O13   O     O_3   0.318110 0.463180 0.223790 -0.277625
O14   O     O_3   0.681890 0.963180 0.776210 -0.277629
V1    V     V_3+5 0.318110 0.506830 0.948930 1.173388
V2    V     V_3+5 0.681890 0.006830 0.051070 1.173022
O15   O     O_R   0.386610 0.440400 0.548840 -0.592239
O16   O     O_R   0.613390 0.940400 0.451160 -0.592386
C5    C     C_R   0.407931 0.425164 0.713882 0.926018
C6    C     C_R   0.592063 0.925161 0.286209 0.925893
O17   O     O_R   0.249610 0.440440 0.572240 -0.606705
O18   O     O_R   0.750390 0.940440 0.427760 -0.606687
C7    C     C_R   0.227308 0.426314 0.744814 0.923192
C8    C     C_R   0.772694 0.926315 0.255222 0.923156
V3    V     V_3+5 0.318110 0.493170 0.448930 1.164192
V4    V     V_3+5 0.681890 0.993170 0.551070 1.164043
O19   O     O_3   0.318110 0.536820 0.723940 -0.265773
O20   O     O_3   0.681890 0.036820 0.276060 -0.265884
C9    C     C_R   0.174276 0.382746 0.762727 -0.122112
C10   C     C_R   0.825723 0.882749 0.237360 -0.122166
C11   C     C_R   0.150422 0.357057 0.596848 -0.181352
C12   C     C_R   0.849652 0.857102 0.403263 -0.181326
C13   C     C_R   0.100117 0.316198 0.612882 -0.134757
C14   C     C_R   0.899946 0.816235 0.387230 -0.134682
C15   C     C_R   0.072176 0.300532 0.795455 0.242641
C16   C     C_R   0.927796 0.800518 0.204632 0.242615
C17   C     C_R   0.096750 0.325276 0.961221 -0.162101
C18   C     C_R   0.903152 0.825226 0.038858 -0.162178
C19   C     C_R   0.147115 0.366188 0.945296 -0.166534
C20   C     C_R   0.852802 0.866147 0.054781 -0.166581
C21   C     C_R   0.896088 0.187384 0.887154 -0.103224
C22   C     C_R   0.103799 0.687299 0.112687 -0.103939
C23   C     C_R   0.846998 0.145346 0.903104 -0.151484
C24   C     C_R   0.152884 0.645257 0.096755 -0.151685
C25   C     C_R   0.850852 0.135925 0.554695 -0.105765
C26   C     C_R   0.149268 0.636004 0.445217 -0.105495
C27   C     C_R   0.900028 0.178013 0.538856 -0.126838
C28   C     C_R   0.100099 0.678093 0.461037 -0.126909
C29   C     C_R   0.923839 0.203398 0.704698 0.225914
C30   C     C_R   0.076175 0.703399 0.295173 0.225518
C31   C     C_2   0.018661 0.257458 0.819033 -0.237731
C32   C     C_2   0.981283 0.757425 0.181037 -0.237730
C33   C     C_2   0.976825 0.247015 0.681515 -0.204768
C34   C     C_2   0.023207 0.747028 0.318368 -0.204793
C35   C     C_R   0.824167 0.118798 0.737237 -0.131359
C36   C     C_R   0.175832 0.618794 0.262665 -0.132424
H1    H     H_    0.170791 0.368224 0.454107 0.133585
H2    H     H_    0.829349 0.868310 0.546014 0.133553
H3    H     H_    0.826788 0.133910 0.045789 0.139513
H4    H     H_    0.172997 0.633752 0.954055 0.139882
H5    H     H_    0.833986 0.116715 0.423930 0.128198
H6    H     H_    0.166227 0.616862 0.576012 0.128674
H7    H     H_    0.981975 0.270114 0.544607 0.134597
H8    H     H_    0.018148 0.770181 0.455136 0.134648
H9    H     H_    0.076425 0.313371 0.103456 0.103186
H10   H     H_    0.923407 0.813284 0.896612 0.103165
H11   H     H_    0.911244 0.207716 0.017969 0.106521
H12   H     H_    0.088551 0.707567 0.981827 0.106648
H13   H     H_    0.164575 0.384899 0.076047 0.133316
H14   H     H_    0.835286 0.884825 0.924011 0.133356
H15   H     H_    0.013510 0.234312 0.955861 0.127083
H16   H     H_    0.986341 0.734229 0.044344 0.127173
H17   H     H_    0.084293 0.296375 0.482055 0.098914
H18   H     H_    0.915834 0.796443 0.518078 0.098895
H19   H     H_    0.920172 0.190203 0.396688 0.095576
H20   H     H_    0.080053 0.690348 0.603219 0.095839
C37   C     C_R   0.576383 0.361824 0.657452 -0.078577
C38   C     C_R   0.423916 0.861480 0.349860 -0.079233
H21   H     H_    0.534334 0.447497 0.634958 0.114642
H22   H     H_    0.466008 0.947120 0.372543 0.114895
H23   H     H_    0.623711 0.378862 0.612269 0.168053
H24   H     H_    0.376832 0.878314 0.398535 0.168026
C39   C     C_R   0.461958 0.382269 0.712336 -0.111044
C40   C     C_R   0.538027 0.882258 0.288316 -0.111366
C41   C     C_R   0.476824 0.096697 0.857015 -0.181636
C42   C     C_R   0.522842 0.597037 0.138240 -0.180798
C43   C     C_R   0.426445 0.135251 0.905655 -0.175051
C44   C     C_R   0.572815 0.635805 0.087342 -0.175233
C45   C     C_R   0.434834 0.196233 0.888934 0.171453
C46   C     C_R   0.564328 0.696728 0.105693 0.171189
C47   C     C_R   0.493543 0.219468 0.799273 0.037533
C48   C     C_R   0.506153 0.719628 0.199536 0.037259
C49   C     C_R   0.546484 0.179338 0.762266 0.027591
C50   C     C_R   0.453534 0.679306 0.238999 0.027642
C51   C     C_R   0.502798 0.280859 0.752571 0.068849
C52   C     C_R   0.497069 0.780896 0.248031 0.068823
C53   C     C_R   0.566600 0.301611 0.699619 -0.018110
C54   C     C_R   0.433538 0.801400 0.305508 -0.017799
C55   C     C_R   0.619113 0.261657 0.681841 0.330031
C56   C     C_R   0.381194 0.761311 0.325620 0.329943
C57   C     C_R   0.607922 0.201477 0.704628 -0.307885
C58   C     C_R   0.392381 0.701203 0.300797 -0.308166
C59   C     C_R   0.450722 0.322137 0.748241 -0.187023
C60   C     C_R   0.549138 0.822250 0.249957 -0.187065
C61   C     C_R   0.525000 0.401549 0.667296 -0.182378
C62   C     C_R   0.475204 0.901299 0.338011 -0.181959
C63   C     C_R   0.537723 0.117748 0.792814 -0.143507
C64   C     C_R   0.462250 0.617805 0.206508 -0.144189
H25   H     H_    0.400722 0.308628 0.762562 0.123209
H26   H     H_    0.599115 0.808839 0.232220 0.123017
H27   H     H_    0.469387 0.050066 0.881984 0.123230
H28   H     H_    0.530235 0.550488 0.111611 0.123302
H29   H     H_    0.381496 0.117534 0.969771 0.126336
H30   H     H_    0.617395 0.618330 0.020031 0.126200
H31   H     H_    0.648895 0.171976 0.683752 0.154731
H32   H     H_    0.351589 0.671579 0.323526 0.155666
N1    N     N_R   0.684601 0.281250 0.639713 0.234638
O21   O     O_R   0.709685 0.320708 0.748826 -0.393016
O22   O     O_R   0.722742 0.251924 0.518582 -0.392025
N2    N     N_R   0.315892 0.780692 0.372243 0.234585
O23   O     O_R   0.289935 0.820396 0.265877 -0.392851
O24   O     O_R   0.278626 0.751001 0.494826 -0.392494
N3    N     N_2   0.387056 0.232786 0.984460 -0.128866
H33   H     H_    0.340823 0.215411 0.991455 0.162512
C65   C     C_3   0.404997 0.255333 0.169090 -0.893757
H34   H     H_    0.366807 0.285844 0.228020 0.245979
H35   H     H_    0.451417 0.280002 0.153010 0.266175
H36   H     H_    0.410026 0.218623 0.273012 0.249720
N4    N     N_2   0.611264 0.733596 0.007616 -0.128877
H37   H     H_    0.657554 0.716363 0.997021 0.162304
C66   C     C_3   0.591740 0.756437 0.824985 -0.891920
H38   H     H_    0.629393 0.787156 0.763973 0.245963
H39   H     H_    0.545313 0.780953 0.844790 0.266106
H40   H     H_    0.585990 0.719905 0.720934 0.249528

loop_
_geom_bond_atom_site_label_1
_geom_bond_atom_site_label_2
_geom_bond_distance
_ccdc_geom_bond_type
C19   H13   1.082848 S    
C66   H40   1.111744 S    
V4    O20   2.150161 S    
C41   H27   1.084072 S    
C32   H16   1.084894 S    
C21   H11   1.081215 S    
O13   V3    1.704395 S    
C42   C64   1.394372 A    
O4    C2    1.297301 A    
V1    O19   1.702961 S    
C56   C58   1.395585 A    
C66   H38   1.110500 S    
C15   C17   1.402049 A    
C37   C53   1.412368 A    
C7    C9    1.476913 S    
O9    V1    2.005071 S    
C25   H5    1.082834 S    
C38   C62   1.392488 A    
N2    O24   1.301562 A    
C11   C13   1.393575 A    
C65   H34   1.110504 S    
C3    C64   1.487190 S    
O3    C1    1.297309 A    
C2    C35   1.476687 S    
C23   H3    1.082891 S    
C49   C63   1.426643 A    
C47   C51   1.443473 A    
C24   H4    1.082887 S    
O12   V4    2.005873 S    
C45   N3    1.423985 S    
C18   H10   1.083508 S    
C46   N4    1.424028 S    
C2    O12   1.295998 A    
C60   H26   1.076555 S    
C44   H30   1.083263 S    
C59   H25   1.076507 S    
O7    C3    1.295401 A    
C9    C11   1.405481 A    
O5    C7    1.296073 A    
O7    V1    2.009239 S    
O6    C8    1.295988 A    
O8    V2    2.008938 S    
C25   C27   1.395368 A    
C48   C50   1.436015 A    
C26   C28   1.395338 A    
H21   C61   1.083721 S    
O3    V1    2.008151 S    
O14   V4    1.703913 S    
C42   H28   1.084080 S    
C41   C43   1.387302 A    
C22   H12   1.081207 S    
C40   C62   1.392054 A    
C24   C36   1.405386 A    
C31   H15   1.084898 S    
C16   C18   1.402012 A    
C8    C10   1.476906 S    
C53   C55   1.414916 A    
C5    C39   1.481902 S    
C17   C19   1.395292 A    
O10   V2    2.004799 S    
C18   C20   1.395248 A    
C33   H7    1.084863 S    
V2    O20   1.703442 S    
C12   H2    1.082883 S    
O1    V3    2.004156 S    
C28   C30   1.402018 A    
O11   V3    2.005723 S    
C21   C23   1.393337 A    
O17   V3    2.007172 S    
C4    C63   1.487005 S    
C22   C24   1.393368 A    
C52   C60   1.429459 A    
C23   C35   1.405403 A    
C50   C64   1.426692 A    
C9    C19   1.405805 A    
C10   C20   1.405819 A    
C11   H1    1.082887 S    
O8    C4    1.295680 A    
C29   C33   1.478890 S    
C1    O11   1.295914 A    
C14   H18   1.081155 S    
C16   C32   1.478853 S    
C38   H24   1.080726 S    
C13   H17   1.081151 S    
H22   C62   1.083725 S    
C27   C29   1.402045 A    
C46   C48   1.430807 A    
N3    C65   1.448064 S    
C43   C45   1.401722 A    
C6    C40   1.482012 S    
C42   C44   1.387292 A    
C22   C30   1.406159 A    
C44   C46   1.401621 A    
C38   C54   1.412308 A    
C55   C57   1.395543 A    
C20   H14   1.082846 S    
C26   H6    1.082829 S    
N1    O21   1.301333 A    
O5    V1    2.005273 S    
C34   H8    1.084872 S    
C51   C53   1.427384 A    
C37   C61   1.392499 A    
C43   H29   1.083276 S    
O18   V4    2.007581 S    
C31   C33   1.345493 D    
N4    H37   1.032002 S    
O16   C6    1.297306 A    
O1    C3    1.300108 A    
N3    H33   1.032014 S    
C55   N1    1.437766 S    
C1    C36   1.476682 S    
C51   C59   1.429418 A    
C17   H9    1.083510 S    
C52   C54   1.427296 A    
C30   C34   1.478893 S    
C66   H39   1.110876 S    
C41   C63   1.394211 A    
O16   V4    2.009729 S    
C58   H32   1.083095 S    
C25   C35   1.405796 A    
C47   C49   1.435974 A    
C39   C61   1.391975 A    
C15   C31   1.478880 S    
O6    V2    2.005122 S    
O10   C6    1.298372 A    
O18   C8    1.297378 A    
C50   C58   1.401378 A    
C54   C56   1.414939 A    
O2    V4    2.004429 S    
C26   C36   1.405807 A    
C65   H36   1.111738 S    
O15   C5    1.297586 A    
C49   C57   1.401434 A    
V3    O19   2.150837 S    
C12   C14   1.393616 A    
C14   C16   1.406240 A    
C45   C47   1.430962 A    
O15   V3    2.009427 S    
C40   C60   1.406938 A    
C48   C52   1.443334 A    
O9    C5    1.298113 A    
O13   V1    2.149238 S    
C10   C12   1.405469 A    
C32   C34   1.345458 D    
O14   V2    2.149915 S    
O2    C4    1.299814 A    
C27   H19   1.083497 S    
N1    O22   1.301567 A    
C21   C29   1.406130 A    
O4    V2    2.007743 S    
C39   C59   1.406918 A    
C13   C15   1.406222 A    
N4    C66   1.448112 S    
C57   H31   1.083119 S    
C56   N2    1.437743 S    
C28   H20   1.083492 S    
C37   H23   1.080724 S    
N2    O23   1.301331 A    
C65   H35   1.110876 S    
O17   C7    1.297370 A    
