data_mof_unit_43292.cif
_audit_creation_date              2013-03-05T16:40:50-0500
_audit_creation_method            fapswitch 2.2
_symmetry_space_group_name_H-M    P1
_symmetry_Int_Tables_number       1
_space_group_crystal_system       triclinic
_cell_length_a                    10.687606
_cell_length_b                    19.254037
_cell_length_c                    18.421104
_cell_angle_alpha                 90.930854
_cell_angle_beta                  90.406275
_cell_angle_gamma                 90.502554
_cell_volume                      3789.94146074

loop_
_atom_site_label
_atom_site_type_symbol
_atom_site_description
_atom_site_fract_x
_atom_site_fract_y
_atom_site_fract_z
_atom_type_partial_charge
O1    O     O_R   0.500010 0.398180 0.560840 -0.620497
O2    O     O_R   0.499990 0.601820 0.439160 -0.621413
O3    O     O_R   0.499950 0.398180 0.439210 -0.603045
O4    O     O_R   0.500050 0.601820 0.560790 -0.579014
C1    C     C_R   0.501497 0.365449 0.499330 0.982426
C2    C     C_R   0.496671 0.634442 0.500731 0.963066
O5    O     O_R   0.316790 0.500010 0.560810 -0.609390
O6    O     O_R   0.683210 0.499990 0.439190 -0.594025
O7    O     O_R   0.316730 0.500000 0.439190 -0.641549
O8    O     O_R   0.683270 0.500000 0.560810 -0.641607
C3    C     C_R   0.260053 0.501066 0.499538 0.948471
C4    C     C_R   0.739844 0.500005 0.500394 0.979520
Zn1   Zn    Zn3+2 0.500040 0.500000 0.581210 0.986126
Zn2   Zn    Zn3+2 0.499960 0.500000 0.418790 0.983609
H1    H     H_    0.303428 0.747886 0.307743 0.140675
H2    H     H_    0.691303 0.250384 0.683902 0.144115
C5    C     C_R   0.201006 0.724620 0.404739 -0.124340
C6    C     C_R   0.785693 0.277709 0.585374 -0.118911
H3    H     H_    0.208201 0.777034 0.426615 0.150688
H4    H     H_    0.770988 0.227220 0.559931 0.161392
C7    C     C_R   0.138629 0.673333 0.443745 -0.157716
C8    C     C_R   0.848324 0.330007 0.547937 -0.111043
H5    H     H_    0.096133 0.686792 0.495191 0.135308
H6    H     H_    0.881534 0.319613 0.493453 0.169621
C9    C     C_R   0.130680 0.605020 0.416224 0.163116
C10   C     C_R   0.868121 0.395419 0.580939 0.155469
C11   C     C_R   0.180994 0.589461 0.347657 -0.012041
C12   C     C_R   0.825045 0.407822 0.651810 -0.020930
H7    H     H_    0.172044 0.537558 0.324566 0.143134
H8    H     H_    0.840411 0.457934 0.678107 0.139256
C13   C     C_R   0.244111 0.640727 0.308999 -0.120690
C14   C     C_R   0.760520 0.355775 0.688552 -0.121510
H9    H     H_    0.284663 0.628153 0.256781 0.142970
H10   H     H_    0.725928 0.365837 0.742767 0.142512
C15   C     C_R   0.254478 0.708215 0.337649 -0.099920
C16   C     C_R   0.741005 0.290724 0.655385 -0.107139
C17   C     C_R   0.934106 0.551621 0.460522 0.299101
C18   C     C_R   0.065304 0.449904 0.539000 0.304845
C19   C     C_R   0.872122 0.501341 0.501702 -0.246721
C20   C     C_R   0.127581 0.500200 0.497946 -0.251933
C21   C     C_R   0.935897 0.450742 0.541493 -0.167092
C22   C     C_R   0.063635 0.550607 0.457597 -0.169280
C23   C     C_R   0.516168 0.747106 0.441420 -0.188802
C24   C     C_R   0.459415 0.255151 0.558641 -0.182196
H11   H     H_    0.551330 0.721293 0.393101 0.203344
H12   H     H_    0.415689 0.283169 0.603060 0.210095
C25   C     C_R   0.507324 0.818584 0.442303 -0.225006
C26   C     C_R   0.465294 0.183808 0.561533 -0.224706
H13   H     H_    0.537775 0.846963 0.395173 0.182775
H14   H     H_    0.422593 0.157371 0.606710 0.186386
C27   C     C_R   0.465805 0.853593 0.504564 -0.084154
C28   C     C_R   0.523169 0.146469 0.505921 -0.085648
C29   C     C_R   0.427393 0.816641 0.566127 0.217488
C30   C     C_R   0.579638 0.180308 0.446999 0.197083
C31   C     C_R   0.436199 0.744048 0.565171 0.374281
C32   C     C_R   0.561768 0.252458 0.440395 0.333826
C33   C     C_R   0.483749 0.709566 0.502877 -0.185843
C34   C     C_R   0.506025 0.289905 0.498365 -0.183652
C35   C     C_R   0.548173 0.961721 0.561399 -0.078997
C36   C     C_R   0.438489 0.038981 0.450964 -0.109443
H15   H     H_    0.592948 0.931848 0.603441 0.162925
H16   H     H_    0.395735 0.068945 0.408271 0.143601
C37   C     C_R   0.563463 0.033272 0.561584 -0.138498
C38   C     C_R   0.421816 0.967584 0.451285 -0.157676
H17   H     H_    0.618370 0.058682 0.604130 0.147821
H18   H     H_    0.366846 0.942420 0.408606 0.145146
C39   C     C_R   0.509492 0.071613 0.505984 0.180684
C40   C     C_R   0.476558 0.928898 0.506527 0.173609
C41   C     C_R   0.584476 0.541114 0.725708 -0.049920
C42   C     C_R   0.408763 0.463533 0.274400 -0.118563
H19   H     H_    0.648541 0.572532 0.694695 0.183302
H20   H     H_    0.340193 0.435258 0.305460 0.173447
C43   C     C_R   0.592376 0.541257 0.802168 0.225566
C44   C     C_R   0.400891 0.463572 0.197944 0.218850
C45   C     C_R   0.507713 0.499218 0.841588 -0.023616
C46   C     C_R   0.491481 0.501557 0.158537 -0.025739
C47   C     C_R   0.422211 0.457120 0.802087 -0.302328
C48   C     C_R   0.583180 0.539472 0.197824 -0.303475
H21   H     H_    0.356000 0.424284 0.830014 0.186767
H22   H     H_    0.653704 0.569268 0.169707 0.189693
C49   C     C_R   0.420239 0.458029 0.726040 0.000886
C50   C     C_R   0.585647 0.538146 0.273847 0.028240
H23   H     H_    0.354674 0.425243 0.696115 0.195335
H24   H     H_    0.656069 0.567686 0.303648 0.196488
N1    N     N_R   0.500020 0.499980 0.689440 -0.131356
N2    N     N_R   0.499980 0.500020 0.310560 -0.122643
C51   C     C_R   0.504150 0.437354 0.961525 -0.153677
C52   C     C_R   0.494578 0.563358 0.038861 -0.150360
H25   H     H_    0.508864 0.388038 0.932604 0.145065
H26   H     H_    0.490124 0.612629 0.067896 0.147960
C53   C     C_R   0.500383 0.437853 0.037738 -0.079197
C54   C     C_R   0.497770 0.562858 0.962656 -0.071467
H27   H     H_    0.502162 0.388959 0.065969 0.145988
H28   H     H_    0.495273 0.611803 0.934564 0.160643
C55   C     C_R   0.495036 0.500868 0.077312 0.158621
C56   C     C_R   0.503803 0.499868 0.922966 0.154019
O9    O     O_3   0.403939 0.707589 0.626574 -0.546811
C57   C     C_3   0.277526 0.686333 0.620523 0.116246
H29   H     H_    0.264094 0.649699 0.573819 0.104455
H30   H     H_    0.214777 0.731783 0.614132 0.153323
C58   C     C_3   0.240315 0.648434 0.688951 -0.665049
H31   H     H_    0.250995 0.683602 0.737020 0.271230
H32   H     H_    0.141223 0.630940 0.684485 0.202677
H33   H     H_    0.300468 0.602307 0.696246 0.251613
O10   O     O_3   0.609747 0.287161 0.381456 -0.574073
C59   C     C_3   0.519531 0.285291 0.324738 0.193679
H34   H     H_    0.437309 0.317604 0.338893 0.146404
H35   H     H_    0.485057 0.231537 0.312546 0.153018
C60   C     C_3   0.578415 0.313604 0.256188 -0.710720
H36   H     H_    0.656508 0.279779 0.238563 0.280698
H37   H     H_    0.507380 0.315141 0.211977 0.208460
H38   H     H_    0.615503 0.366904 0.266610 0.251190
N3    N     N_R   0.689450 0.581490 0.837859 0.195015
O11   O     O_R   0.731051 0.638226 0.808690 -0.358868
O12   O     O_R   0.748586 0.556893 0.893693 -0.366784
N4    N     N_R   0.299076 0.427153 0.162226 0.196496
O13   O     O_R   0.246326 0.452594 0.104718 -0.360075
O14   O     O_R   0.248014 0.373320 0.192380 -0.394636
N5    N     N_R   0.865424 0.604711 0.423634 0.205826
O15   O     O_R   0.789656 0.644749 0.459659 -0.420676
O16   O     O_R   0.882245 0.615013 0.354741 -0.398064
N6    N     N_R   0.133447 0.396228 0.575175 0.207947
O17   O     O_R   0.206590 0.355410 0.538273 -0.429968
O18   O     O_R   0.118347 0.386074 0.644225 -0.407568
N7    N     N_R   0.377855 0.852252 0.628818 0.202411
O19   O     O_R   0.298527 0.902522 0.621007 -0.381495
O20   O     O_R   0.407557 0.832774 0.693975 -0.312925
N8    N     N_R   0.659648 0.142197 0.397577 0.218379
O21   O     O_R   0.683512 0.164674 0.332918 -0.349309
O22   O     O_R   0.721251 0.088586 0.420176 -0.370627

loop_
_geom_bond_atom_site_label_1
_geom_bond_atom_site_label_2
_geom_bond_distance
_ccdc_geom_bond_type
C37   H17   1.083494 S    
C58   H31   1.110566 S    
C51   C53   1.404662 A    
C11   H7    1.082922 S    
C29   C31   1.401530 A    
N8    O21   1.300073 A    
O9    C57   1.411363 S    
C19   C21   1.406704 A    
O5    C3    1.278022 A    
O4    Zn1   2.002198 S    
C44   C46   1.419170 A    
C1    C34   1.455564 S    
O1    C1    1.287830 A    
C38   C40   1.398749 A    
C8    H6    1.083096 S    
C46   C48   1.406209 A    
C26   C28   1.393485 A    
C60   H37   1.110370 S    
C46   C55   1.496856 S    
C48   H22   1.083109 S    
C59   H34   1.111245 S    
C54   C56   1.408132 A    
C43   N3    1.438193 S    
N4    O13   1.301256 A    
C36   H16   1.083690 S    
C17   C22   1.386072 A    
C41   H19   1.081969 S    
C52   C54   1.404313 A    
C36   C39   1.399247 A    
C24   C34   1.398189 A    
C42   C44   1.410321 A    
C13   H9    1.082561 S    
C41   C43   1.410352 A    
C29   N7    1.439937 S    
C26   H14   1.083990 S    
C52   C55   1.406113 A    
C58   H32   1.110608 S    
C43   C45   1.420138 A    
C2    C33   1.454147 S    
O2    C2    1.288416 A    
H1    C15   1.082295 S    
C10   C12   1.404880 A    
C49   H23   1.081130 S    
C28   C30   1.411469 A    
C45   C56   1.499811 S    
C37   C39   1.396553 A    
C47   H21   1.083044 S    
C30   C32   1.410984 A    
C35   H15   1.083363 S    
C11   C13   1.398003 A    
C12   C14   1.398014 A    
Zn2   N2    1.993726 S    
C18   C21   1.384358 A    
C25   H13   1.083761 S    
C60   H38   1.110187 S    
C25   C27   1.397869 A    
C24   H12   1.083722 S    
C50   N2    1.359288 A    
C30   N8    1.448736 S    
C5    C7    1.397899 A    
C27   C29   1.410143 A    
C38   H18   1.083540 S    
O7    Zn2   1.996636 S    
C35   C40   1.402405 A    
C53   H27   1.083124 S    
O7    C3    1.269715 A    
C48   C50   1.401127 A    
C17   N5    1.440187 S    
C47   C49   1.401275 A    
O6    C4    1.275858 A    
C44   N4    1.438811 S    
C51   C56   1.407515 A    
C31   O9    1.384985 S    
C54   H28   1.082917 S    
C23   H11   1.083575 S    
C45   C47   1.407113 A    
C18   N6    1.439175 S    
N5    O16   1.301149 A    
O8    C4    1.270330 A    
N4    O14   1.301443 A    
O4    C2    1.281505 A    
C52   H26   1.083025 S    
C58   H33   1.110320 S    
C50   H24   1.080659 S    
C31   C33   1.416082 A    
N7    O19   1.301359 A    
C13   C15   1.397748 A    
O1    Zn1   1.990035 S    
N6    O18   1.301015 A    
C42   N2    1.360602 A    
C14   C16   1.397957 A    
C41   N1    1.360176 A    
N3    O11   1.301388 A    
C7    C9    1.403580 A    
O6    Zn2   1.991614 S    
C6    C8    1.398188 A    
C35   C37   1.385826 A    
C28   C39   1.447409 S    
C20   C22   1.410435 A    
O3    C1    1.283187 A    
O8    Zn1   1.996637 S    
N8    O22   1.301642 A    
C9    C22   1.487430 S    
N5    O15   1.300905 A    
O3    Zn2   2.002199 S    
C9    C11   1.405142 A    
C57   C58   1.520340 S    
O10   C59   1.416493 S    
C57   H30   1.114425 S    
C36   C38   1.384755 A    
C4    C19   1.413774 S    
C7    H5    1.082477 S    
C17   C19   1.404000 A    
C60   H36   1.110256 S    
H2    C16   1.082309 S    
C18   C20   1.404414 A    
C6    C16   1.398035 A    
C59   H35   1.114421 S    
C12   H8    1.083276 S    
C5    H3    1.082471 S    
C32   C34   1.416576 A    
C6    H4    1.082057 S    
C27   C40   1.453309 S    
C3    C20   1.415858 S    
O2    Zn2   1.990033 S    
C32   O10   1.383350 S    
C23   C33   1.397101 A    
C53   C55   1.407054 A    
O5    Zn1   1.991613 S    
C57   H29   1.111333 S    
C8    C10   1.403269 A    
Zn1   N1    1.993724 S    
N7    O20   1.301289 A    
C51   H25   1.082957 S    
C42   H20   1.081604 S    
C5    C15   1.397942 A    
N6    O17   1.300705 A    
C23   C25   1.380140 A    
C49   N1    1.359333 A    
C24   C26   1.377490 A    
C10   C21   1.485402 S    
C14   H10   1.082499 S    
N3    O12   1.301334 A    
C59   C60   1.521664 S    
