data_mof_unit_25164.cif
_audit_creation_date              2012-12-10T17:40:29-0500
_audit_creation_method            fapswitch 2.2
_symmetry_space_group_name_H-M    P1
_symmetry_Int_Tables_number       1
_space_group_crystal_system       triclinic
_cell_length_a                    13.783392
_cell_length_b                    15.067184
_cell_length_c                    15.840796
_cell_angle_alpha                 89.086417
_cell_angle_beta                  70.745331
_cell_angle_gamma                 89.555989
_cell_volume                      3105.33932835

loop_
_atom_site_label
_atom_site_type_symbol
_atom_type_description
_atom_site_fract_x
_atom_site_fract_y
_atom_site_fract_z
_atom_type_partial_charge
C1    C     C_R   0.499778 0.671342 0.499820 0.794647
C2    C     C_R   0.500420 0.328688 0.499440 0.797806
C3    C     C_R   0.375428 0.466028 0.094232 -0.218642
C4    C     C_R   0.624295 0.465797 0.906588 -0.227736
C5    C     C_R   0.304913 0.464583 0.048855 -0.226729
C6    C     C_R   0.694996 0.465562 0.951823 -0.221343
C7    C     C_R   0.407772 0.185979 0.520112 -0.212836
C8    C     C_R   0.592643 0.814123 0.477036 -0.211780
C9    C     C_R   0.500853 0.231911 0.498123 -0.078092
C10   C     C_R   0.499581 0.768189 0.499013 -0.086966
C11   C     C_R   0.594058 0.185454 0.474365 -0.228194
C12   C     C_R   0.406458 0.814721 0.520414 -0.231250
C13   C     C_R   0.595417 0.092674 0.474541 0.057090
C14   C     C_R   0.405095 0.907485 0.520054 0.068069
C15   C     C_R   0.500817 0.046627 0.497082 0.036469
C16   C     C_R   0.499712 0.953521 0.497596 0.034841
C17   C     C_R   0.407099 0.093680 0.519496 0.077351
C18   C     C_R   0.593389 0.906461 0.476092 0.075379
C19   C     C_R   0.688462 0.044635 0.453468 0.136434
C20   C     C_R   0.311973 0.955545 0.541998 0.132180
C21   C     C_R   0.686611 0.952138 0.454326 -0.214484
C22   C     C_R   0.313843 0.048031 0.541555 -0.216386
C23   C     C_R   0.437810 0.498891 0.671982 0.802738
C24   C     C_R   0.562210 0.499206 0.327997 0.798079
C25   C     C_R   0.231784 0.536859 0.428671 0.573770
C26   C     C_R   0.767871 0.461153 0.570397 0.571625
C27   C     C_R   0.179435 0.466534 0.572191 -0.089378
C28   C     C_R   0.820470 0.534025 0.428245 -0.090952
C29   C     C_R   0.075797 0.467678 0.574731 0.007307
C30   C     C_R   0.923986 0.532075 0.425627 0.009871
C31   C     C_R   0.051479 0.499851 0.500150 0.054941
C32   C     C_R   0.948185 0.499384 0.500132 0.063664
C33   C     C_R   0.130318 0.532377 0.425437 -0.066997
C34   C     C_R   0.869342 0.465983 0.574451 -0.087851
C35   C     C_R   0.995953 0.437682 0.650173 -0.181000
C36   C     C_R   0.003836 0.561512 0.350012 -0.194877
C37   C     C_R   0.893949 0.437993 0.650567 -0.187269
C38   C     C_R   0.105841 0.560086 0.349293 -0.184407
C39   C     C_R   0.401486 0.492196 0.769889 -0.060003
C40   C     C_R   0.598539 0.493013 0.230158 -0.056829
C41   C     C_R   0.265135 0.474069 0.911531 -0.189989
C42   C     C_R   0.734992 0.477113 0.088634 -0.188904
C43   C     C_R   0.296857 0.483131 0.818807 -0.188850
C44   C     C_R   0.703352 0.486128 0.181131 -0.187572
C45   C     C_R   0.473689 0.491491 0.814412 -0.250370
C46   C     C_R   0.526151 0.490551 0.185908 -0.245821
C47   C     C_R   0.444230 0.477980 0.907239 0.077458
C48   C     C_R   0.555643 0.478355 0.093257 0.081393
C49   C     C_R   0.337812 0.472057 0.956094 0.169260
C50   C     C_R   0.662163 0.473659 0.044344 0.170145
C51   C     C_R   0.517431 0.472846 0.952834 0.068509
C52   C     C_R   0.482357 0.472928 0.047873 0.069587
Cu1   Cu    Cu3+1 0.402580 0.500010 0.499990 0.963397
Cu2   Cu    Cu3+1 0.597420 0.499990 0.500010 0.972247
H1    H     H_    0.223801 0.458885 0.086888 0.145512
H2    H     H_    0.776139 0.460104 0.913853 0.141166
H3    H     H_    0.198483 0.439527 0.628465 0.146727
H4    H     H_    0.801416 0.561702 0.372223 0.147343
H5    H     H_    0.012230 0.414295 0.709151 0.132046
H6    H     H_    0.987616 0.584887 0.291003 0.135507
H7    H     H_    0.834527 0.416324 0.711016 0.155744
H8    H     H_    0.165437 0.580290 0.288431 0.166405
H9    H     H_    0.446929 0.500015 0.225148 0.194251
H10   H     H_    0.552592 0.503956 0.775390 0.191380
H11   H     H_    0.760759 0.487676 0.214118 0.152016
H12   H     H_    0.239618 0.483310 0.785594 0.149784
H13   H     H_    0.183744 0.468487 0.948450 0.132523
H14   H     H_    0.816467 0.472719 0.051666 0.132741
H15   H     H_    0.343356 0.458735 0.165835 0.157732
H16   H     H_    0.655923 0.457533 0.835262 0.159765
H17   H     H_    0.335556 0.222043 0.538402 0.156637
H18   H     H_    0.664759 0.778019 0.460147 0.157383
H19   H     H_    0.665043 0.222326 0.455574 0.179234
H20   H     H_    0.335458 0.777914 0.538450 0.179380
H21   H     H_    0.758445 0.915797 0.438244 0.173936
H22   H     H_    0.241941 0.084388 0.558747 0.173893
N1    N     N_R   0.256170 0.500070 0.500040 -0.219704
N2    N     N_R   0.743830 0.499930 0.499960 -0.212854
O1    O     O_R   0.417730 0.629750 0.499970 -0.600773
O2    O     O_R   0.582270 0.370250 0.500030 -0.582071
O3    O     O_R   0.582270 0.629730 0.499980 -0.577088
O4    O     O_R   0.417730 0.370270 0.500020 -0.580873
O5    O     O_R   0.371590 0.500020 0.629830 -0.598476
O6    O     O_R   0.628410 0.499980 0.370170 -0.600038
O7    O     O_R   0.536130 0.499990 0.629840 -0.527002
O8    O     O_R   0.463870 0.500010 0.370160 -0.537426
O9    O     O_3   0.306609 0.576128 0.357177 -0.628794
C53   C     C_3   0.314994 0.667928 0.372039 0.095006
H23   H     H_    0.397450 0.681532 0.360293 0.185209
H24   H     H_    0.270509 0.689798 0.441136 0.140030
C54   C     C_3   0.283085 0.724609 0.304475 -0.421316
H25   H     H_    0.316955 0.696545 0.236494 0.235340
H26   H     H_    0.198108 0.724868 0.322992 0.227117
C55   C     C_3   0.318915 0.820488 0.302775 -0.841538
H27   H     H_    0.286144 0.850026 0.370040 0.278101
H28   H     H_    0.292827 0.860266 0.254646 0.263282
H29   H     H_    0.404124 0.823390 0.281538 0.250876
O10   O     O_3   0.691704 0.420259 0.639444 -0.616226
C56   C     C_3   0.702560 0.326953 0.632436 0.047517
H30   H     H_    0.770276 0.303833 0.649972 0.143397
H31   H     H_    0.712419 0.304463 0.563567 0.165077
C57   C     C_3   0.606439 0.283716 0.697753 -0.324157
H32   H     H_    0.591991 0.310816 0.765698 0.222793
H33   H     H_    0.538948 0.299781 0.676656 0.218667
C58   C     C_3   0.618228 0.183126 0.702168 -0.872004
H34   H     H_    0.635769 0.154174 0.634857 0.272597
H35   H     H_    0.545584 0.153719 0.747130 0.257618
H36   H     H_    0.681158 0.165888 0.728870 0.261405
I1    I     I_    0.835238 0.105386 0.421814 -0.412363
I2    I     I_    0.164716 0.894951 0.577388 -0.411181

loop_
_geom_bond_atom_site_label_1
_geom_bond_atom_site_label_2
_ccdc_geom_bond_type
O9    C53   S    
C12   H20   S    
C27   C29   A    
C18   C21   A    
C22   H22   S    
Cu2   O6    S    
C47   C49   A    
Cu1   Cu2   S    
C40   C46   A    
C58   H35   S    
C26   N2    A    
C23   O5    A    
C25   N1    A    
C3    H15   S    
C7    H17   S    
C1    O3    A    
C15   C16   A    
C34   C37   A    
C25   O9    S    
Cu1   O1    S    
C57   C58   S    
C35   H5    S    
C41   C49   A    
C55   H28   S    
C26   C34   A    
C47   C51   A    
C31   C32   A    
C7    C17   A    
C31   C33   A    
Cu1   O8    S    
C28   N2    A    
C39   C45   A    
C48   C50   A    
C42   H14   S    
C41   C43   A    
C5    C49   A    
C44   H11   S    
C55   H27   S    
C42   C44   A    
C26   O10   S    
C4    H16   S    
Cu2   O2    S    
C45   C47   A    
C58   H36   S    
C46   C48   A    
C8    H18   S    
C13   C19   A    
C4    C51   A    
C51   C52   A    
C14   C20   A    
C41   H13   S    
C4    C6    A    
C11   H19   S    
C6    H2    S    
C54   H25   S    
C39   C43   A    
C55   H29   S    
C27   N1    A    
C8    C18   A    
C38   H8    S    
Cu1   O4    S    
C32   C34   A    
Cu1   N1    S    
C54   H26   S    
C56   H30   S    
C53   C54   S    
C40   C44   A    
C6    C50   A    
C57   H33   S    
C9    C11   A    
C10   C12   A    
C42   C50   A    
C20   I2    S    
C16   C18   A    
C56   H31   S    
C53   H24   S    
C13   C15   A    
C27   H3    S    
C1    O1    A    
C14   C16   A    
C2    O4    A    
C3    C5    A    
C15   C17   A    
C29   C35   A    
C35   C37   A    
C5    H1    S    
C1    C10   S    
C33   C38   A    
C20   C22   A    
C36   H6    S    
Cu2   O7    S    
C37   H7    S    
C3    C52   A    
C28   H4    S    
C58   H34   S    
C21   H21   S    
C45   H10   S    
C17   C22   A    
C30   C36   A    
C46   H9    S    
Cu1   O5    S    
C36   C38   A    
C12   C14   A    
C29   C31   A    
C54   C55   S    
C30   C32   A    
C11   C13   A    
C19   I1    S    
C43   H12   S    
C23   C39   S    
C28   C30   A    
C24   C40   S    
C24   O6    A    
C57   H32   S    
C2    O2    A    
C7    C9    A    
C48   C52   A    
C56   C57   S    
C53   H23   S    
C8    C10   A    
O10   C56   S    
C23   O7    A    
Cu2   N2    S    
C2    C9    S    
C24   O8    A    
Cu2   O3    S    
C25   C33   A    
C19   C21   A    
