data_mof_unit_63602.cif
_audit_creation_date              2012-12-11T15:15:58-0500
_audit_creation_method            fapswitch 2.2
_symmetry_space_group_name_H-M    P1
_symmetry_Int_Tables_number       1
_space_group_crystal_system       triclinic
_cell_length_a                    14.091062
_cell_length_b                    14.091221
_cell_length_c                    28.042351
_cell_angle_alpha                 89.958951
_cell_angle_beta                  89.958516
_cell_angle_gamma                 119.96922
_cell_volume                      4823.60316691

loop_
_atom_site_label
_atom_site_type_symbol
_atom_type_description
_atom_site_fract_x
_atom_site_fract_y
_atom_site_fract_z
_atom_type_partial_charge
C1    C     C_R   0.565914 0.453749 0.566439 0.560910
C2    C     C_3   0.503431 0.992238 0.203340 0.057468
C3    C     C_3   0.493127 0.496977 0.202587 0.055827
C4    C     C_3   0.001047 0.506294 0.202320 0.057846
C5    C     C_3   0.914758 0.491581 0.771887 -0.072854
C6    C     C_3   0.592859 0.556878 0.767301 -0.069044
C7    C     C_3   0.567128 0.082801 0.770349 -0.074336
C8    C     C_3   0.492200 0.915038 0.271856 -0.072857
C9    C     C_3   0.557027 0.592776 0.267277 -0.069171
C10   C     C_3   0.082943 0.567303 0.270377 -0.074392
C11   C     C_3   0.979896 0.584517 0.735602 0.133795
C12   C     C_R   0.546302 0.112365 0.566520 0.559542
C13   C     C_3   0.547027 0.449060 0.738924 0.122705
C14   C     C_3   0.602163 0.022133 0.734848 0.124405
C15   C     C_3   0.584900 0.980635 0.235544 0.133602
C16   C     C_3   0.449207 0.547053 0.238911 0.122548
C17   C     C_3   0.022193 0.602220 0.234868 0.124346
C18   C     C_1   0.042293 0.524819 0.846863 -0.045664
C19   C     C_1   0.477949 0.517876 0.846765 -0.046716
C20   C     C_1   0.480705 0.955356 0.846248 -0.045942
C21   C     C_1   0.524781 0.042318 0.346857 -0.045659
C22   C     C_1   0.517915 0.477895 0.346749 -0.046722
C23   C     C_R   0.887132 0.433703 0.566681 0.558801
C24   C     C_1   0.955478 0.480766 0.346270 -0.045935
C25   C     C_1   0.968146 0.487933 0.652636 -0.001043
C26   C     C_1   0.510795 0.483774 0.651742 -0.011413
C27   C     C_1   0.515944 0.026164 0.651656 -0.007892
C28   C     C_1   0.487898 0.968201 0.152628 -0.000983
C29   C     C_1   0.483794 0.510741 0.151727 -0.011478
C30   C     C_1   0.026296 0.516008 0.151680 -0.007860
C31   C     C_R   0.566817 0.453631 0.434214 0.546226
C32   C     C_R   0.546513 0.113203 0.434325 0.547794
C33   C     C_R   0.886683 0.433203 0.434211 0.546282
C34   C     C_R   0.453751 0.565913 0.066438 0.560910
C35   C     C_R   0.453635 0.566814 0.934216 0.546229
C36   C     C_R   0.113203 0.546515 0.934325 0.547806
C37   C     C_R   0.433199 0.886673 0.934207 0.546286
C38   C     C_3   0.100521 0.530531 0.727472 -0.132905
C39   C     C_3   0.389334 0.441947 0.730843 -0.122757
C40   C     C_3   0.431455 0.891048 0.727032 -0.128658
C41   C     C_3   0.529772 0.100352 0.227484 -0.132873
C42   C     C_3   0.441874 0.389261 0.230832 -0.122686
C43   C     C_3   0.891260 0.431450 0.227059 -0.128645
C44   C     C_3   0.088733 0.612420 0.760505 -0.096229
C45   C     C_R   0.112372 0.546305 0.066522 0.559520
C46   C     C_3   0.439436 0.397723 0.767939 -0.088336
C47   C     C_3   0.527854 0.912004 0.760408 -0.090551
C48   C     C_3   0.612114 0.089236 0.260469 -0.096349
C49   C     C_3   0.397768 0.439470 0.267931 -0.088252
C50   C     C_3   0.912087 0.527818 0.260427 -0.090593
C51   C     C_1   0.067471 0.532054 0.888005 -0.001090
C52   C     C_1   0.469289 0.535442 0.887918 -0.003345
C53   C     C_1   0.463718 0.931354 0.887589 -0.001787
C54   C     C_1   0.532043 0.067483 0.388002 -0.001083
C55   C     C_1   0.535465 0.469261 0.387907 -0.003345
C56   C     C_R   0.433704 0.887137 0.066679 0.558807
C57   C     C_1   0.931422 0.463753 0.387604 -0.001794
C58   C     C_1   0.937756 0.467309 0.612128 0.026281
C59   C     C_1   0.531221 0.472257 0.611396 0.022284
C60   C     C_1   0.527645 0.058972 0.611445 0.020674
C61   C     C_1   0.467304 0.937786 0.112121 0.026312
C62   C     C_1   0.472269 0.531196 0.111387 0.022247
C63   C     C_1   0.059042 0.527678 0.111460 0.020701
C64   C     C_3   0.035389 0.437125 0.763752 -0.109100
C65   C     C_3   0.434694 0.550228 0.759397 -0.123221
C66   C     C_3   0.395794 0.951336 0.762681 -0.116166
C67   C     C_3   0.992167 0.503499 0.703350 0.057461
C68   C     C_3   0.436603 0.034762 0.263794 -0.109025
C69   C     C_3   0.550157 0.434508 0.259378 -0.123181
C70   C     C_3   0.951634 0.395911 0.262713 -0.116132
C71   C     C_3   0.022918 0.518490 0.795859 0.019380
C72   C     C_3   0.485111 0.505790 0.795565 0.025527
C73   C     C_3   0.492523 0.973184 0.795063 0.023283
C74   C     C_3   0.518422 0.022959 0.295851 0.019336
C75   C     C_3   0.505836 0.485034 0.295548 0.025592
C76   C     C_3   0.973350 0.492605 0.295089 0.023271
C77   C     C_3   0.926782 0.410054 0.738975 -0.091628
C78   C     C_3   0.497056 0.493097 0.702603 0.055850
C79   C     C_3   0.542686 0.600971 0.730335 -0.110111
C80   C     C_3   0.470562 0.061336 0.737219 -0.099528
C81   C     C_3   0.410218 0.926395 0.238993 -0.091537
C82   C     C_3   0.601003 0.542495 0.230309 -0.110218
C83   C     C_3   0.061608 0.470772 0.237252 -0.099524
C84   C     C_3   0.506207 0.000864 0.702292 0.057844
Cr1   Cr    Cr6+3 0.504830 0.254570 0.500510 1.049782
Cr2   Cr    Cr6+3 0.745430 0.250260 0.500510 1.058832
Cr3   Cr    Cr6+3 0.749740 0.495170 0.500510 1.063088
Cr4   Cr    Cr6+3 0.254570 0.504830 0.000510 1.049808
Cr5   Cr    Cr6+3 0.250260 0.745430 0.000510 1.058822
Cr6   Cr    Cr6+3 0.495170 0.749740 0.000510 1.063113
H1    H     H_    0.155186 0.695851 0.770160 0.119311
H2    H     H_    0.545176 0.176190 0.208746 0.109368
H3    H     H_    0.395470 0.305956 0.215189 0.120327
H4    H     H_    0.812896 0.375898 0.208783 0.112774
H5    H     H_    0.839622 0.476327 0.791188 0.150168
H6    H     H_    0.676329 0.603030 0.782815 0.150049
H7    H     H_    0.622822 0.161089 0.788639 0.144091
H8    H     H_    0.477513 0.840080 0.291132 0.150187
H9    H     H_    0.603272 0.676245 0.282784 0.149802
H10   H     H_    0.161203 0.623076 0.288667 0.144046
H11   H     H_    0.859778 0.326987 0.729449 0.173828
H12   H     H_    0.398154 0.314540 0.783978 0.125886
H13   H     H_    0.584283 0.684171 0.714300 0.137148
H14   H     H_    0.445205 0.121537 0.727024 0.150605
H15   H     H_    0.327325 0.859039 0.229493 0.173857
H16   H     H_    0.684197 0.583999 0.214267 0.137032
H17   H     H_    0.121890 0.445519 0.227063 0.150669
H18   H     H_    0.057968 0.376135 0.776117 0.134993
H19   H     H_    0.388172 0.592188 0.768627 0.111901
H20   H     H_    0.310723 0.922485 0.774942 0.128169
H21   H     H_    0.375238 0.056768 0.276200 0.135231
H22   H     H_    0.592026 0.387897 0.268606 0.111889
H23   H     H_    0.551875 0.850821 0.770745 0.125635
H24   H     H_    0.922881 0.310866 0.274979 0.128429
H25   H     H_    0.695357 0.156060 0.270100 0.119286
H26   H     H_    0.314591 0.398282 0.283977 0.125898
H27   H     H_    0.850820 0.551729 0.270756 0.125604
H28   H     H_    0.176544 0.546501 0.708717 0.109264
H29   H     H_    0.306026 0.395635 0.715195 0.120312
H30   H     H_    0.375984 0.812653 0.708758 0.112653
I1    I     I_    0.934514 0.701089 0.712964 -0.364116
I2    I     I_    0.636515 0.368805 0.720512 -0.468131
I3    I     I_    0.765802 0.075001 0.712176 -0.399763
I4    I     I_    0.702231 0.936374 0.212829 -0.363952
I5    I     I_    0.369118 0.636702 0.220515 -0.468575
I6    I     I_    0.075003 0.765842 0.212199 -0.399685
O1    O     O_R   0.479630 0.139450 0.552170 -0.505183
O2    O     O_R   0.360080 0.516200 0.048600 -0.495871
O3    O     O_R   0.156120 0.639920 0.048600 -0.486612
O4    O     O_R   0.483800 0.843880 0.048600 -0.486293
O5    O     O_R   0.478560 0.139320 0.448720 -0.508233
O6    O     O_R   0.860680 0.339240 0.448720 -0.509176
O7    O     O_R   0.660760 0.521440 0.448720 -0.507234
O8    O     O_R   0.139320 0.478560 0.948720 -0.508215
O9    O     O_R   0.339240 0.860680 0.948720 -0.509182
O10   O     O_R   0.521440 0.660760 0.948720 -0.507227
O11   O     O_R   0.515210 0.359960 0.452710 -0.500510
O12   O     O_R   0.860550 0.340180 0.552170 -0.500723
O13   O     O_R   0.640040 0.155250 0.452710 -0.499577
O14   O     O_R   0.844750 0.484790 0.452710 -0.499100
O15   O     O_R   0.359960 0.515210 0.952710 -0.500512
O16   O     O_R   0.155250 0.640040 0.952710 -0.499585
O17   O     O_R   0.484790 0.844750 0.952710 -0.499086
O18   O     O_3   0.666667 0.333333 0.499990 -0.261195
O19   O     O_3   0.333333 0.666667 0.999990 -0.261209
O20   O     O_R   0.659820 0.520370 0.552170 -0.492661
O21   O     O_R   0.139450 0.479630 0.052170 -0.505153
O22   O     O_R   0.340180 0.860550 0.052170 -0.500731
O23   O     O_R   0.520370 0.659820 0.052170 -0.492684
O24   O     O_R   0.516200 0.360080 0.548600 -0.495877
O25   O     O_R   0.639920 0.156120 0.548600 -0.486591
O26   O     O_R   0.843880 0.483800 0.548600 -0.486306

loop_
_geom_bond_atom_site_label_1
_geom_bond_atom_site_label_2
_ccdc_geom_bond_type
C23   C58   S    
C23   O26   A    
C3    C42   S    
C45   O3    A    
Cr5   O9    S    
Cr3   O20   S    
Cr5   O22   S    
C50   H27   S    
C64   C77   S    
C40   C84   S    
C23   O12   A    
C77   H11   S    
C67   C77   S    
C14   C84   S    
Cr3   O14   S    
C31   O7    A    
C19   C72   S    
Cr2   O18   S    
C7    C73   S    
C12   O1    A    
C70   H24   S    
C6    C72   S    
C46   H12   S    
C26   C78   S    
C80   H14   S    
C65   C79   S    
C68   C81   S    
C22   C75   S    
C27   C84   S    
C9    C16   S    
C5    C11   S    
Cr6   O19   S    
C27   C60   T    
C1    C59   S    
C21   C54   T    
C69   H22   S    
C17   I6    S    
C33   O14   A    
C68   C74   S    
Cr5   O16   S    
C42   H3    S    
C10   C83   S    
C34   C62   S    
C43   H4    S    
Cr5   O3    S    
C44   C71   S    
C64   C71   S    
C3    C29   S    
C8    H8    S    
Cr1   O24   S    
C36   O16   A    
C69   C82   S    
C13   C78   S    
C10   C76   S    
Cr3   O7    S    
C41   C48   S    
C7    C14   S    
C24   C57   T    
C25   C67   S    
Cr4   O19   S    
C37   O9    A    
C9    C75   S    
Cr3   O18   S    
C31   O11   A    
C7    H7    S    
C26   C59   T    
C46   C72   S    
Cr6   O17   S    
C80   C84   S    
C9    C82   S    
C37   C53   S    
C28   C61   T    
C9    H9    S    
C40   C66   S    
C30   C63   T    
C39   C65   S    
C12   O25   A    
C79   H13   S    
C1    O20   A    
C11   I1    S    
C15   C48   S    
Cr4   O2    S    
Cr6   O23   S    
C19   C52   T    
Cr1   O18   S    
C32   C54   S    
C5    H5    S    
C34   O23   A    
C11   C67   S    
C18   C51   T    
C64   H18   S    
C41   C68   S    
C38   C64   S    
C81   H15   S    
C15   I4    S    
C8    C81   S    
C39   C78   S    
C48   C74   S    
C11   C44   S    
C16   C49   S    
C47   C73   S    
C32   O13   A    
C78   C79   S    
C24   C76   S    
C40   C47   S    
C21   C74   S    
C45   C63   S    
C42   C69   S    
C68   H21   S    
C12   C60   S    
C56   O22   A    
Cr5   O19   S    
C38   C44   S    
C2    C15   S    
C50   C76   S    
Cr6   O10   S    
C49   H26   S    
C3    C82   S    
C8    C74   S    
C1    O24   A    
C66   H20   S    
C10   H10   S    
C70   C83   S    
C44   H1    S    
C65   H19   S    
C49   C75   S    
C14   C47   S    
C36   C51   S    
Cr2   O13   S    
C35   O15   A    
C39   C46   S    
C4    C17   S    
C33   O6    A    
C40   H30   S    
C43   C70   S    
C6    H6    S    
Cr3   O26   S    
C48   H25   S    
C70   C76   S    
Cr1   O1    S    
C25   C58   T    
C5    C77   S    
Cr1   O11   S    
Cr4   O15   S    
C16   I5    S    
C18   C71   S    
C47   H23   S    
C29   C62   T    
C33   C57   S    
C14   I3    S    
C37   O17   A    
C45   O21   A    
C20   C53   T    
C2    C81   S    
C36   O8    A    
C17   C50   S    
C43   C50   S    
C22   C55   T    
C4    C43   S    
C8    C15   S    
C65   C72   S    
C66   C80   S    
Cr4   O8    S    
C2    C41   S    
C5    C71   S    
Cr2   O25   S    
Cr1   O5    S    
C6    C13   S    
C13   I2    S    
C66   C73   S    
Cr2   O6    S    
C6    C79   S    
C13   C46   S    
C4    C83   S    
C39   H29   S    
Cr4   O21   S    
C83   H17   S    
C20   C73   S    
C69   C75   S    
C35   O10   A    
C82   H16   S    
C4    C30   S    
Cr2   O12   S    
C42   C49   S    
Cr6   O4    S    
C41   H2    S    
C38   C67   S    
C34   O2    A    
C35   C52   S    
C56   C61   S    
C38   H28   S    
C2    C28   S    
C10   C17   S    
C31   C55   S    
C32   O5    A    
C56   O4    A    
C3    C16   S    
C7    C80   S    
