data_mof_unit_37407.cif
_audit_creation_date              2012-12-11T16:05:10-0500
_audit_creation_method            fapswitch 2.2
_symmetry_space_group_name_H-M    P1
_symmetry_Int_Tables_number       1
_space_group_crystal_system       triclinic
_cell_length_a                    10.650081
_cell_length_b                    10.553058
_cell_length_c                    16.868576
_cell_angle_alpha                 98.124125
_cell_angle_beta                  98.564562
_cell_angle_gamma                 61.828414
_cell_volume                      1647.15570525

loop_
_atom_site_label
_atom_site_type_symbol
_atom_type_description
_atom_site_fract_x
_atom_site_fract_y
_atom_site_fract_z
_atom_type_partial_charge
C1    C     C_R   0.350678 0.784565 0.402597 0.551502
C2    C     C_3   0.367778 0.745443 0.253617 -0.102145
C3    C     C_3   0.328083 0.851227 0.328765 0.051673
C4    C     C_R   0.369593 0.346253 0.359120 0.546054
C5    C     C_3   0.393153 0.937508 0.300478 -0.122970
C6    C     C_3   0.244335 0.033297 0.257386 -0.149493
C7    C     C_3   0.180616 0.945581 0.287617 -0.131520
C8    C     C_3   0.220104 0.839673 0.212112 -0.090312
C9    C     C_3   0.284271 0.926030 0.182671 0.051457
C10   C     C_3   0.479944 0.310199 0.801527 -0.123399
C11   C     C_3   0.404575 0.451228 0.757785 -0.190637
C12   C     C_3   0.691634 0.312833 0.237288 -0.136631
C13   C     C_3   0.382383 0.364003 0.680623 0.000732
C14   C     C_3   0.456544 0.225077 0.724023 0.060113
C15   C     C_3   0.310702 0.252970 0.746207 -0.123069
C16   C     C_R   0.705401 0.416655 0.390504 0.556063
C17   C     C_3   0.237043 0.393409 0.704041 0.055014
C18   C     C_3   0.256801 0.480929 0.781823 -0.119997
C19   C     C_3   0.333286 0.339754 0.823316 0.003116
C20   C     C_1   0.847216 0.327772 0.705695 0.000898
C21   C     C_1   0.893955 0.294918 0.773125 -0.020356
C22   C     C_1   0.337246 0.814775 0.709297 -0.020428
C23   C     C_3   0.745515 0.387471 0.309053 0.040920
C24   C     C_1   0.312154 0.841599 0.778121 -0.038872
C25   C     C_R   0.891243 0.310589 0.090613 0.554612
C26   C     C_R   0.318979 0.299436 0.120281 0.550425
C27   C     C_R   0.255743 0.961134 0.099071 0.567086
C28   C     C_R   0.356149 0.772932 0.626846 0.566798
C29   C     C_R   0.943407 0.275995 0.855979 0.554747
C30   C     C_R   0.311184 0.298626 0.895635 0.557584
C31   C     C_R   0.279654 0.885292 0.858849 0.554515
C32   C     C_R   0.409490 0.377213 0.601158 0.566476
C33   C     C_R   0.779126 0.376730 0.628742 0.557823
C34   C     C_3   0.900992 0.292223 0.291150 -0.115222
C35   C     C_1   0.341807 0.336031 0.275362 -0.072257
C36   C     C_1   0.330619 0.325803 0.204023 -0.061319
C37   C     C_3   0.848785 0.217256 0.217938 -0.129953
C38   C     C_2   0.566728 0.078674 0.694905 0.612914
C39   C     C_2   0.102937 0.435922 0.648377 0.600049
C40   C     C_1   0.561341 0.495552 0.122535 0.178165
C41   C     C_3   0.885819 0.407762 0.238962 -0.118206
C42   C     C_3   0.729457 0.504026 0.257768 -0.133521
C43   C     C_3   0.678376 0.428093 0.185027 -0.026391
C44   C     C_3   0.832442 0.333723 0.166401 0.045636
C45   C     C_3   0.431953 0.832190 0.223863 -0.110359
Cr1   Cr    Cr6+3 0.608340 0.611040 0.520430 1.044510
Cr2   Cr    Cr6+3 0.287650 0.601120 0.489350 1.053788
Cr3   Cr    Cr6+3 0.604040 0.287870 0.490280 1.044453
Cr4   Cr    Cr6+3 0.054020 0.052700 0.970850 1.047983
Cr5   Cr    Cr6+3 0.059230 0.375120 0.993390 1.035494
Cr6   Cr    Cr6+3 0.374950 0.061200 0.992340 1.042426
H1    H     H_    0.612944 0.272960 0.238863 0.130098
H2    H     H_    0.989380 0.241876 0.338489 0.133077
H3    H     H_    0.967213 0.445244 0.238589 0.132392
H4    H     H_    0.685569 0.619430 0.279476 0.119287
H5    H     H_    0.415888 0.626806 0.255249 0.109063
H6    H     H_    0.532023 0.789465 0.194223 0.133970
H7    H     H_    0.463777 0.976916 0.338839 0.146678
H8    H     H_    0.613136 0.905263 0.614948 0.349712
H9    H     H_    0.005656 0.385356 0.546003 0.353832
H10   H     H_    0.194416 0.152035 0.255967 0.103559
H11   H     H_    0.079689 0.987815 0.316302 0.126573
H12   H     H_    0.149391 0.797989 0.175934 0.143439
H13   H     H_    0.446253 0.530370 0.760820 0.121591
H14   H     H_    0.578804 0.277026 0.843555 0.166309
H15   H     H_    0.270903 0.171825 0.742348 0.123198
H16   H     H_    0.174967 0.585280 0.807580 0.169308
H17   H     H_    0.897380 0.100075 0.199145 0.125797
N1    N     N_1   0.469218 0.548374 0.073133 -0.278042
O1    O     O_R   0.751220 0.499230 0.435170 -0.518097
O2    O     O_R   0.412990 0.180750 0.091610 -0.516857
O3    O     O_R   0.366620 0.943130 0.065760 -0.487625
O4    O     O_R   0.477220 0.727600 0.436870 -0.516417
O5    O     O_R   0.160510 0.906330 0.879210 -0.496562
O6    O     O_R   0.930190 0.179050 0.889450 -0.477369
O7    O     O_R   0.909140 0.398170 0.896710 -0.492588
O8    O     O_R   0.186190 0.363460 0.918830 -0.509562
O9    O     O_R   0.401670 0.173200 0.913310 -0.503905
O10   O     O_R   0.356120 0.936130 0.900470 -0.485837
O11   O     O_3   0.162740 0.163010 0.985530 -0.311971
O12   O     O_R   0.297880 0.469080 0.560050 -0.468116
O13   O     O_R   0.258650 0.745120 0.411470 -0.512958
O14   O     O_R   0.297070 0.467240 0.395960 -0.488169
O15   O     O_R   0.488830 0.252610 0.387790 -0.520990
O16   O     O_R   0.724400 0.302390 0.420980 -0.498855
O17   O     O_R   0.752100 0.501210 0.612190 -0.471783
O18   O     O_R   0.478040 0.729440 0.600970 -0.484309
O19   O     O_R   0.259530 0.747110 0.588490 -0.505722
O20   O     O_2   0.687807 0.026742 0.728928 -0.499372
O21   O     O_R   0.529730 0.001952 0.629374 -0.658735
O22   O     O_2   0.998540 0.551857 0.661244 -0.487873
O23   O     O_R   0.489720 0.254590 0.564810 -0.465177
O24   O     O_R   0.099544 0.343290 0.581105 -0.677688
O25   O     O_R   0.725220 0.304230 0.585080 -0.509225
O26   O     O_3   0.500010 0.500010 0.500020 -0.321692
O27   O     O_R   0.171830 0.913880 0.057510 -0.507351
O28   O     O_R   0.940690 0.186050 0.054730 -0.519519
O29   O     O_R   0.920470 0.405720 0.075010 -0.512243
O30   O     O_R   0.196690 0.370460 0.084120 -0.499242

loop_
_geom_bond_atom_site_label_1
_geom_bond_atom_site_label_2
_ccdc_geom_bond_type
C11   C18   S    
C9    C45   S    
Cr3   O26   S    
C34   C37   S    
C41   C42   S    
C13   C32   S    
C35   C36   T    
C43   C44   S    
C33   O25   A    
C6    C9    S    
C7    C8    S    
C29   O7    A    
C15   C19   S    
C32   O12   A    
C38   O20   D    
C45   H6    S    
Cr5   O30   S    
C23   C42   S    
Cr3   O25   S    
C5    H7    S    
C6    H10   S    
C12   C43   S    
C3    C7    S    
C5    C6    S    
C37   H17   S    
C18   C19   S    
C17   C39   S    
Cr2   O13   S    
C12   C37   S    
Cr6   O11   S    
C39   O24   S    
C30   O8    A    
C40   C43   S    
Cr1   O26   S    
C8    C9    S    
C4    O15   A    
C28   O19   A    
Cr4   O6    S    
Cr2   O14   S    
C26   O30   A    
H9    O24   S    
C4    C35   S    
C22   C28   S    
C13   C14   S    
C26   O2    A    
C27   O27   A    
C34   C41   S    
Cr6   O2    S    
C25   C44   S    
C39   O22   D    
C12   H1    S    
C2    C45   S    
Cr5   O29   S    
Cr1   O1    S    
C40   N1    T    
C16   O1    A    
C11   H13   S    
C10   C14   S    
C31   O5    A    
C1    O13   A    
C15   H15   S    
C21   C29   S    
Cr3   O15   S    
C1    C3    S    
H8    O21   S    
C33   O17   A    
C7    H11   S    
Cr5   O7    S    
C42   H4    S    
C14   C38   S    
C12   C23   S    
C10   C19   S    
C23   C34   S    
C28   O18   A    
C14   C15   S    
C17   C18   S    
C20   C33   S    
C25   O28   A    
C16   C23   S    
Cr3   O23   S    
C16   O16   A    
C41   C44   S    
C22   C24   T    
C42   C43   S    
Cr5   O8    S    
C9    C27   S    
Cr1   O18   S    
C10   H14   S    
C26   C36   S    
C15   C17   S    
Cr3   O16   S    
C2    C8    S    
C3    C5    S    
Cr5   O11   S    
C31   O10   A    
C6    C7    S    
C29   O6    A    
C38   O21   S    
Cr4   O11   S    
C13   C17   S    
C1    O4    A    
Cr2   O19   S    
C37   C44   S    
C2    C3    S    
C18   H16   S    
C24   C31   S    
C2    H5    S    
C11   C13   S    
C32   O23   A    
C4    O14   A    
C5    C45   S    
Cr2   O12   S    
Cr4   O27   S    
Cr6   O10   S    
C41   H3    S    
Cr6   O9    S    
C10   C11   S    
C8    H12   S    
Cr4   O28   S    
C30   O9    A    
C25   O29   A    
C20   C21   T    
C34   H2    S    
Cr6   O3    S    
Cr2   O26   S    
Cr4   O5    S    
C19   C30   S    
Cr1   O4    S    
C27   O3    A    
Cr1   O17   S    
