data_mof_unit_55599.cif
_audit_creation_date              2012-12-10T17:47:47-0500
_audit_creation_method            fapswitch 2.2
_symmetry_space_group_name_H-M    P1
_symmetry_Int_Tables_number       1
_space_group_crystal_system       triclinic
_cell_length_a                    10.761563
_cell_length_b                    10.742672
_cell_length_c                    9.893175
_cell_angle_alpha                 89.125707
_cell_angle_beta                  89.940342
_cell_angle_gamma                 95.068912
_cell_volume                      1139.12073275

loop_
_atom_site_label
_atom_site_type_symbol
_atom_type_description
_atom_site_fract_x
_atom_site_fract_y
_atom_site_fract_z
_atom_type_partial_charge
C1    C     C_R   0.491229 0.258429 0.500740 0.843339
C2    C     C_R   0.492131 0.053548 0.622258 0.085144
C3    C     C_R   0.487627 0.122912 0.500594 -0.119183
C4    C     C_R   0.257728 0.495138 0.500606 0.837630
C5    C     C_R   0.502919 0.064138 0.376789 -0.171070
C6    C     C_R   0.522097 0.939046 0.375320 -0.184788
C7    C     C_R   0.538832 0.875262 0.497489 -0.137124
C8    C     C_R   0.328106 0.336396 0.144468 -0.233321
C9    C     C_R   0.239696 0.258611 0.075782 0.023124
C10   C     C_R   0.236311 0.263214 0.935682 -0.245255
C11   C     C_R   0.322793 0.343133 0.864360 -0.208482
C12   C     C_3   0.877455 0.482958 0.502188 -0.045287
C13   C     C_R   0.413240 0.421747 0.929890 0.193245
C14   C     C_R   0.414482 0.420136 0.074328 0.171238
C15   C     C_R   0.581823 0.576648 0.070401 -0.098405
C16   C     C_R   0.517097 0.740252 0.499140 0.891190
C17   C     C_R   0.582311 0.575535 0.927467 -0.082922
C18   C     C_R   0.740900 0.490002 0.500442 0.859303
C19   C     C_3   0.067939 0.427562 0.639102 -0.252248
C20   C     C_3   0.922069 0.405048 0.631059 -0.055065
C21   C     C_3   0.080006 0.629653 0.488981 -0.013602
C22   C     C_3   0.066480 0.410813 0.383852 -0.510680
C23   C     C_3   0.937073 0.620927 0.512281 -0.492295
C24   C     C_3   0.121074 0.492824 0.503646 0.004526
C25   C     C_1   0.110124 0.498313 0.762327 0.244792
C26   C     C_1   0.907495 0.506476 0.246085 0.228627
C27   C     C_1   0.113122 0.685043 0.354305 0.200279
C28   C     C_1   0.709995 0.836619 0.740116 0.141429
C29   C     C_1   0.153306 0.172609 0.149426 0.143917
C30   C     C_1   0.885269 0.269555 0.619861 0.130686
C31   C     C_1   0.865084 0.436219 0.762193 0.234662
C32   C     C_1   0.143129 0.718324 0.585551 0.176331
C33   C     C_1   0.858522 0.303748 0.332282 0.188229
C34   C     C_3   0.925559 0.425514 0.366119 0.000059
C35   C     C_R   0.443310 0.090186 0.745087 -0.133283
C36   C     C_R   0.474045 0.033693 0.866924 -0.134036
C37   C     C_R   0.558212 0.942604 0.865794 -0.170833
C38   C     C_R   0.596716 0.897415 0.741961 0.052324
C39   C     C_R   0.545895 0.940921 0.620062 0.072708
H1    H     H_    0.497396 0.113647 0.281039 0.171235
H2    H     H_    0.108519 0.335928 0.649502 0.115170
H3    H     H_    0.327314 0.328714 0.252054 0.196568
H4    H     H_    0.168238 0.203206 0.880820 0.160106
H5    H     H_    0.651282 0.634613 0.873470 0.163051
H6    H     H_    0.116552 0.434828 0.287115 0.204148
H7    H     H_    0.083095 0.311535 0.405635 0.174553
H8    H     H_    0.437882 0.064838 0.961578 0.152922
H9    H     H_    0.594592 0.909033 0.960407 0.136764
H10   H     H_    0.318572 0.339365 0.757236 0.188346
H11   H     H_    0.917942 0.652706 0.615116 0.210593
H12   H     H_    0.891654 0.684793 0.441604 0.176727
H13   H     H_    0.375493 0.155848 0.743774 0.138699
H14   H     H_    0.521082 0.892103 0.279111 0.167907
H15   H     H_    0.648661 0.639347 0.123162 0.152855
N1    N     N_R   0.498810 0.498800 0.142780 -0.122312
N2    N     N_1   0.192690 0.788209 0.660219 -0.168408
N3    N     N_1   0.805840 0.208876 0.304845 -0.172971
N4    N     N_R   0.498760 0.498720 0.857170 -0.123398
N5    N     N_1   0.141508 0.553075 0.858156 -0.157140
N6    N     N_1   0.893468 0.569303 0.152224 -0.189042
N7    N     N_1   0.139854 0.728780 0.249439 -0.166213
N8    N     N_1   0.803171 0.791068 0.741361 -0.222784
N9    N     N_1   0.084063 0.103367 0.208606 -0.181676
N10   N     N_1   0.856535 0.163399 0.612871 -0.179839
N11   N     N_1   0.822516 0.458913 0.865403 -0.184349
O1    O     O_R   0.500000 0.316780 0.614690 -0.632802
O2    O     O_R   0.499990 0.316750 0.385360 -0.636955
O3    O     O_R   0.314800 0.499990 0.614670 -0.634812
O4    O     O_R   0.314790 0.499970 0.385330 -0.632397
O5    O     O_R   0.500010 0.683250 0.614640 -0.603854
O6    O     O_R   0.500000 0.683220 0.385310 -0.615086
O7    O     O_R   0.685210 0.500030 0.614670 -0.614105
O8    O     O_R   0.685200 0.500010 0.385330 -0.619826
Zn1   Zn    Zn3+2 0.500010 0.500020 0.653130 0.962707
Zn2   Zn    Zn3+2 0.499990 0.499980 0.346870 0.950719

loop_
_geom_bond_atom_site_label_1
_geom_bond_atom_site_label_2
_ccdc_geom_bond_type
C2    C35   A    
C29   N9    T    
C30   N10   T    
C19   C20   S    
C20   C30   S    
C12   C23   S    
C36   C37   A    
C8    H3    S    
C5    C6    A    
C4    C24   S    
O3    Zn1   S    
O1    Zn1   S    
C36   H8    S    
C31   N11   T    
C27   N7    T    
C2    C39   A    
C26   C34   S    
C35   C36   A    
C8    C9    A    
O5    Zn1   S    
C8    C14   A    
O4    Zn2   S    
C9    C10   A    
C9    C29   S    
C17   N4    A    
N1    Zn2   S    
C14   N1    A    
C21   C27   S    
C13   C14   A    
O8    Zn2   S    
C16   O6    A    
C4    O4    A    
C33   C34   S    
C18   O7    A    
C22   C34   S    
C21   C32   S    
C15   H15   S    
C16   O5    A    
O7    Zn1   S    
C4    O3    A    
C23   H11   S    
C13   N4    A    
C1    C3    S    
C15   N1    A    
C37   C38   A    
C11   H10   S    
C23   H12   S    
C28   C38   S    
C12   C20   S    
C1    O1    A    
C37   H9    S    
C7    C16   S    
C22   H7    S    
C18   O8    A    
C21   C23   S    
C22   C24   S    
C21   C24   S    
O2    Zn2   S    
C6    H14   S    
C12   C34   S    
N4    Zn1   S    
C15   C17   A    
C33   N3    T    
C10   H4    S    
C3    C5    A    
C6    C7    A    
C2    C3    A    
C17   H5    S    
O6    Zn2   S    
C11   C13   A    
C38   C39   A    
C1    O2    A    
C19   C24   S    
C19   C25   S    
C10   C11   A    
C22   H6    S    
C5    H1    S    
C12   C18   S    
C35   H13   S    
C7    C39   A    
C25   N5    T    
C26   N6    T    
C32   N2    T    
C19   H2    S    
C20   C31   S    
C28   N8    T    
