data_mof_unit_23628.cif
_audit_creation_date              2013-03-05T16:33:15-0500
_audit_creation_method            fapswitch 2.2
_symmetry_space_group_name_H-M    P1
_symmetry_Int_Tables_number       1
_space_group_crystal_system       triclinic
_cell_length_a                    27.819637
_cell_length_b                    10.772511
_cell_length_c                    9.546475
_cell_angle_alpha                 89.716963
_cell_angle_beta                  89.927985
_cell_angle_gamma                 90.07816
_cell_volume                      2860.91789869

loop_
_atom_site_label
_atom_site_type_symbol
_atom_site_description
_atom_site_fract_x
_atom_site_fract_y
_atom_site_fract_z
_atom_type_partial_charge
O1    O     O_R   0.500000 0.319640 0.618810 -0.605871
O2    O     O_R   0.500010 0.319680 0.381230 -0.586269
C1    C     C_R   0.500192 0.262656 0.500231 0.803244
O3    O     O_R   0.430260 0.500000 0.618780 -0.540535
O4    O     O_R   0.430270 0.500040 0.381190 -0.583093
C2    C     C_R   0.407487 0.499805 0.499956 0.830150
Cu1   Cu    Cu3+1 0.500000 0.499980 0.640670 0.962557
Cu2   Cu    Cu3+1 0.500000 0.500020 0.359330 0.953591
O5    O     O_R   0.499990 0.680320 0.618770 -0.593075
O6    O     O_R   0.500000 0.680360 0.381190 -0.571440
O7    O     O_R   0.569730 0.499960 0.618810 -0.587276
O8    O     O_R   0.569740 0.500000 0.381220 -0.579695
C3    C     C_R   0.499528 0.737454 0.499831 0.798441
C4    C     C_R   0.592533 0.500177 0.499947 0.797672
C5    C     C_R   0.178018 0.412506 0.432545 0.501302
O9    O     O_2   0.202767 0.318058 0.374534 -0.558035
N1    N     N_R   0.202162 0.508927 0.493343 -0.451071
C6    C     C_R   0.178073 0.606680 0.551316 0.600385
C7    C     C_R   0.279609 0.517621 0.371394 -0.180303
C8    C     C_R   0.329593 0.514231 0.372405 -0.219232
C9    C     C_R   0.328641 0.488606 0.624922 -0.333087
C10   C     C_R   0.278182 0.489998 0.624424 0.489082
C11   C     C_R   0.253741 0.506737 0.496736 0.282809
C12   C     C_R   0.101973 0.509201 0.492488 -0.048135
C13   C     C_R   0.127595 0.410567 0.431620 -0.018652
C14   C     C_R   0.102508 0.312248 0.371159 -0.149241
C15   C     C_R   0.127605 0.608445 0.552339 -0.037989
C16   C     C_R   0.354577 0.500308 0.499207 -0.081537
H1    H     H_    0.347474 0.479267 0.723493 0.187839
H2    H     H_    0.121377 0.236095 0.321891 0.185436
C17   C     C_R   0.645489 0.501085 0.499748 -0.040143
C18   C     C_R   0.974618 0.402722 0.442862 0.041734
C19   C     C_R   0.974467 0.612228 0.547162 0.041053
C20   C     C_R   0.949299 0.507037 0.495635 0.068038
C21   C     C_R   0.947766 0.297991 0.399562 -0.207346
C22   C     C_R   0.897872 0.297693 0.402848 -0.145669
C23   C     C_R   0.872650 0.401338 0.449939 -0.020570
C24   C     C_R   0.898172 0.506128 0.496881 -0.043948
C25   C     C_R   0.872430 0.609989 0.545052 -0.020663
C26   C     C_R   0.821959 0.607386 0.544771 0.534502
N2    N     N_R   0.797960 0.504429 0.498862 -0.468038
C27   C     C_R   0.822195 0.402226 0.452238 0.534122
C28   C     C_R   0.721177 0.503834 0.626288 -0.101802
C29   C     C_R   0.671052 0.502538 0.626702 -0.219312
C30   C     C_R   0.671016 0.500939 0.372547 -0.213299
C31   C     C_R   0.721129 0.502197 0.372448 -0.102404
C32   C     C_R   0.746388 0.503646 0.499228 0.355888
O10   O     O_2   0.797518 0.301464 0.409122 -0.536256
C33   C     C_R   0.025650 0.405868 0.436126 0.041712
C34   C     C_R   0.050849 0.508645 0.493301 0.069958
C35   C     C_R   0.025565 0.610817 0.551303 0.042020
C36   C     C_R   0.052621 0.309811 0.372958 -0.208264
H3    H     H_    0.652391 0.502667 0.726321 0.159566
H4    H     H_    0.740493 0.504524 0.724696 0.142749
H5    H     H_    0.879104 0.215194 0.368176 0.188463
H6    H     H_    0.964120 0.213072 0.364727 0.139571
H7    H     H_    0.036369 0.231789 0.321246 0.139895
O11   O     O_2   0.202899 0.702136 0.607023 -0.543232
C37   C     C_R   0.102465 0.706693 0.612638 -0.149211
H8    H     H_    0.348629 0.523819 0.273881 0.164975
H9    H     H_    0.260824 0.529465 0.272931 0.160918
C38   C     C_R   0.947378 0.715874 0.592139 -0.206942
C39   C     C_R   0.897456 0.714423 0.591208 -0.145282
O12   O     O_2   0.797041 0.707258 0.588963 -0.536454
C40   C     C_R   0.052539 0.707999 0.612528 -0.203644
H10   H     H_    0.963543 0.801202 0.626675 0.139395
H11   H     H_    0.652333 0.499937 0.273106 0.160706
H12   H     H_    0.878507 0.796188 0.626969 0.188411
H13   H     H_    0.036275 0.786055 0.664029 0.138776
C41   C     C_R   0.473402 0.064549 0.403584 -0.010838
C42   C     C_R   0.501247 0.129610 0.499748 -0.099727
C43   C     C_R   0.531153 0.064254 0.592396 -0.214704
H14   H     H_    0.553928 0.113148 0.665798 0.152119
C44   C     C_R   0.530798 0.934675 0.592405 -0.217170
H15   H     H_    0.553261 0.884678 0.666099 0.151564
C45   C     C_R   0.500844 0.870617 0.498955 -0.062585
C46   C     C_R   0.473841 0.936558 0.401044 0.027701
C47   C     C_3   0.421251 0.926881 0.368668 -0.530189
C48   C     C_3   0.420350 0.068187 0.370167 0.305552
H16   H     H_    0.414198 0.888547 0.263041 0.166908
H17   H     H_    0.414118 0.107746 0.263926 0.116102
C49   C     C_R   0.497310 0.608789 0.072962 0.191009
N3    N     N_R   0.500300 0.500930 0.147930 -0.171181
C50   C     C_R   0.508995 0.394197 0.074734 -0.069975
H18   H     H_    0.515095 0.307754 0.129508 0.142211
C51   C     C_R   0.509108 0.394241 0.926235 -0.073925
H19   H     H_    0.515322 0.307924 0.872173 0.136890
N4    N     N_R   0.500310 0.500890 0.852020 -0.163944
C52   C     C_R   0.496648 0.608495 0.925912 0.195627
C53   C     C_3   0.456568 0.700423 0.920412 0.259563
C54   C     C_3   0.457943 0.702116 0.079910 -0.547006
H20   H     H_    0.468114 0.788255 0.867840 0.063221
H21   H     H_    0.471180 0.791966 0.121348 0.159517
H22   H     H_    0.425089 0.664971 0.131745 0.218963
H23   H     H_    0.121326 0.783426 0.660916 0.182403
H24   H     H_    0.740406 0.502349 0.273828 0.142553
O13   O     O_3   0.252381 0.488340 0.748726 -0.600124
C55   C     C_3   0.255346 0.370487 0.814257 0.010426
H25   H     H_    0.245411 0.383106 0.926033 0.189916
H26   H     H_    0.292382 0.331743 0.814343 0.135425
C56   C     C_3   0.219789 0.278995 0.748030 -0.347724
H27   H     H_    0.183583 0.322327 0.742749 0.234542
H28   H     H_    0.231668 0.256811 0.639946 0.240246
C57   C     C_3   0.216360 0.158377 0.831874 -0.873229
H29   H     H_    0.251618 0.110480 0.833403 0.256443
H30   H     H_    0.189605 0.095906 0.782316 0.264925
H31   H     H_    0.204719 0.177326 0.941026 0.263500
H32   H     H_    0.400285 0.881223 0.453790 0.193471
O14   O     O_3   0.387233 0.119381 0.468885 -0.587614
C58   C     C_3   0.399656 0.104318 0.611911 0.094570
H33   H     H_    0.421724 0.184866 0.644270 0.168135
H34   H     H_    0.419529 0.016970 0.634236 0.134053
C59   C     C_3   0.353997 0.104058 0.700954 -0.341813
H35   H     H_    0.329764 0.179677 0.665084 0.241594
H36   H     H_    0.334939 0.014101 0.687868 0.216539
C60   C     C_3   0.365745 0.123533 0.855711 -0.972207
H37   H     H_    0.392039 0.053300 0.892698 0.249139
H38   H     H_    0.332586 0.115093 0.919690 0.260700
H39   H     H_    0.381110 0.217671 0.871642 0.267258
O15   O     O_3   0.413994 0.645842 0.868417 -0.563051
C61   C     C_3   0.377907 0.736537 0.846893 0.062455
H40   H     H_    0.367798 0.734806 0.734324 0.161355
H41   H     H_    0.389155 0.833443 0.871159 0.114949
C62   C     C_3   0.333876 0.704444 0.936253 -0.356088
H42   H     H_    0.323468 0.606097 0.919497 0.243212
H43   H     H_    0.342846 0.716036 0.048824 0.201896
C63   C     C_3   0.291296 0.787685 0.899931 -0.818105
H44   H     H_    0.300368 0.886425 0.919945 0.240817
H45   H     H_    0.259918 0.761556 0.965815 0.265324
H46   H     H_    0.281321 0.776516 0.788062 0.290462

loop_
_geom_bond_atom_site_label_1
_geom_bond_atom_site_label_2
_geom_bond_distance
_ccdc_geom_bond_type
C56   H27   1.111812 S    
Cu2   N3    2.018108 S    
N2    C27   1.367834 A    
C7    C11   1.399862 A    
C21   C22   1.388336 A    
C12   C15   1.408153 A    
C4    C17   1.473223 S    
C57   H30   1.110583 S    
O13   C55   1.415123 S    
Cu1   Cu2   2.685802 S    
C46   C47   1.499308 S    
Cu1   O7    1.950795 S    
N1    C11   1.435536 S    
C49   C52   1.403971 A    
C44   C45   1.404594 A    
C22   C23   1.395474 A    
C23   C24   1.408135 A    
C50   C51   1.417639 A    
C24   C25   1.408035 A    
O7    C4    1.299308 A    
C47   H16   1.109145 S    
C5    C13   1.402897 A    
C5    O9    1.349982 S    
C60   H37   1.109816 S    
C47   H32   1.111989 S    
C35   C40   1.416228 A    
C23   C27   1.403816 A    
O5    C3    1.288939 A    
C58   H33   1.107664 S    
C61   C62   1.530036 S    
C39   H12   1.083542 S    
C29   H3    1.082920 S    
C6    O11   1.349656 S    
C2    C16   1.471986 S    
Cu1   N4    2.017750 S    
C19   C38   1.416028 A    
C30   H11   1.082951 S    
C41   C42   1.393098 A    
C8    H8    1.083224 S    
C59   C60   1.528918 S    
C41   C48   1.510898 S    
C56   H28   1.110294 S    
C10   O13   1.386094 S    
O1    Cu1   1.954916 S    
C9    C10   1.403854 A    
C41   C46   1.379185 A    
C37   H23   1.083608 S    
O3    Cu1   1.951627 S    
C57   H29   1.109003 S    
C19   C20   1.421431 A    
C12   C34   1.422247 A    
C17   C29   1.406127 A    
C38   H10   1.076146 S    
C18   C21   1.415937 A    
C50   H18   1.079444 S    
C45   C46   1.392568 A    
C43   C44   1.395911 A    
C44   H15   1.083425 S    
C25   C26   1.404355 A    
C48   H17   1.112059 S    
C48   O14   1.430177 S    
C47   C48   1.522606 S    
C8    C16   1.404103 A    
C34   C35   1.421243 A    
C13   C14   1.395374 A    
C30   C31   1.394175 A    
C9    H1    1.081927 S    
C49   N3    1.364318 A    
C49   C54   1.489310 S    
O1    C1    1.290415 A    
C53   O15   1.413256 S    
C1    C42   1.433608 S    
C28   C29   1.394491 A    
C63   H45   1.110393 S    
C38   C39   1.388907 A    
C14   C36   1.388125 A    
C54   H21   1.110011 S    
C28   H4    1.082915 S    
C53   H20   1.115516 S    
N3    C50   1.370053 A    
C3    C45   1.434900 S    
Cu2   O8    1.951622 S    
C33   C36   1.415826 A    
N1    C6    1.367858 A    
N2    C32   1.434730 S    
C27   O10   1.349821 S    
C12   C13   1.407785 A    
C58   C59   1.527502 S    
C61   H40   1.111406 S    
C62   C63   1.525896 S    
O3    C2    1.299982 A    
C26   N2    1.368003 A    
C9    C16   1.404610 A    
O8    C4    1.299445 A    
C33   C34   1.421274 A    
C56   C57   1.525547 S    
C55   H26   1.112169 S    
C63   H44   1.110421 S    
O15   C61   1.416293 S    
C51   H19   1.079735 S    
C62   H43   1.111160 S    
C59   H35   1.111141 S    
Cu1   O5    1.952904 S    
C31   C32   1.400409 A    
C21   H6    1.076198 S    
C20   C24   1.422400 A    
O2    Cu2   1.952906 S    
C6    C15   1.404201 A    
C43   H14   1.083390 S    
O6    C3    1.291553 A    
O4    Cu2   1.950798 S    
C14   H2    1.083573 S    
C19   C35   1.422241 A    
C55   C56   1.534507 S    
C25   C39   1.395733 A    
C26   O12   1.349739 S    
C60   H39   1.111195 S    
C7    C8    1.391124 A    
O2    C1    1.288836 A    
C63   H46   1.110824 S    
C42   C43   1.402645 A    
C22   H5    1.083545 S    
C15   C37   1.395595 A    
O14   C58   1.417465 S    
C37   C40   1.389018 A    
C54   H22   1.111884 S    
C53   C54   1.523365 S    
O4    C2    1.298222 A    
C7    H9    1.083126 S    
C40   H13   1.076132 S    
C60   H38   1.109075 S    
C51   N4    1.369292 A    
C58   H34   1.111865 S    
C18   C33   1.421400 A    
C61   H41   1.114919 S    
C36   H7    1.076189 S    
C31   H24   1.082898 S    
N4    C52   1.363776 A    
Cu2   O6    1.954915 S    
C55   H25   1.110988 S    
C17   C30   1.405973 A    
C10   C11   1.407470 A    
C52   C53   1.493103 S    
C5    N1    1.368198 A    
C28   C32   1.400397 A    
C57   H31   1.110745 S    
C18   C20   1.421124 A    
C62   H42   1.110315 S    
C59   H36   1.111649 S    
