data_mof_unit_41510.cif
_audit_creation_date              2013-03-05T16:02:22-0500
_audit_creation_method            fapswitch 2.2
_symmetry_space_group_name_H-M    P1
_symmetry_Int_Tables_number       1
_space_group_crystal_system       triclinic
_cell_length_a                    14.969172
_cell_length_b                    14.00687
_cell_length_c                    10.698167
_cell_angle_alpha                 90.482236
_cell_angle_beta                  89.876357
_cell_angle_gamma                 90.166038
_cell_volume                      2243.00403384

loop_
_atom_site_label
_atom_site_type_symbol
_atom_site_description
_atom_site_fract_x
_atom_site_fract_y
_atom_site_fract_z
_atom_type_partial_charge
O1    O     O_R   0.367860 0.580280 0.500020 -0.650088
O2    O     O_R   0.367860 0.419720 0.500020 -0.634341
C1    C     C_R   0.326702 0.499832 0.497798 0.908858
O3    O     O_R   0.500000 0.580270 0.314790 -0.587497
O4    O     O_R   0.500000 0.419730 0.314790 -0.655488
C2    C     C_R   0.494873 0.499685 0.258247 1.062859
Zn1   Zn    Zn3+2 0.500020 0.607200 0.499990 0.987996
Zn2   Zn    Zn3+2 0.500020 0.392800 0.499990 0.983517
O5    O     O_R   0.632160 0.580270 0.499960 -0.605676
O6    O     O_R   0.632160 0.419730 0.499960 -0.633510
O7    O     O_R   0.500030 0.580270 0.685200 -0.620500
O8    O     O_R   0.500030 0.419730 0.685200 -0.536681
C3    C     C_R   0.673409 0.500136 0.496894 0.925372
C4    C     C_R   0.496647 0.500502 0.743029 0.967420
C5    C     C_3   0.460317 0.598500 0.075447 0.464740
C6    C     C_3   0.427900 0.420270 0.072951 0.318021
H1    H     H_    0.514619 0.650792 0.095890 0.117331
H2    H     H_    0.438200 0.353866 0.125520 0.093047
C7    C     C_3   0.441693 0.594821 0.933230 0.780315
C8    C     C_3   0.442416 0.406694 0.928128 0.807687
H3    H     H_    0.636415 0.526152 0.126002 0.232853
H4    H     H_    0.605490 0.405765 0.094996 0.211898
C9    C     C_3   0.587235 0.480733 0.074441 -0.729873
C10   C     C_3   0.491720 0.499549 0.122705 -0.345553
C11   C     C_3   0.492965 0.501362 0.881061 -0.379368
C12   C     C_3   0.593382 0.501426 0.932399 0.879107
C13   C     C_R   0.815294 0.577003 0.441832 0.560234
C14   C     C_R   0.769199 0.500757 0.496304 -0.212348
C15   C     C_R   0.814396 0.425126 0.551792 -0.333107
C16   C     C_R   0.906759 0.425008 0.554112 0.116316
C17   C     C_R   0.953790 0.501668 0.499715 -0.020105
C18   C     C_R   0.907910 0.578145 0.443678 -0.017816
C19   C     C_R   0.952713 0.349635 0.609863 -0.170206
C20   C     C_R   0.045549 0.349377 0.610371 -0.214931
C21   C     C_R   0.092703 0.424442 0.555068 0.122617
C22   C     C_R   0.046775 0.501476 0.500524 0.096070
C23   C     C_R   0.093904 0.578070 0.446151 0.107531
C24   C     C_R   0.048163 0.653994 0.391733 -0.216274
C25   C     C_R   0.955430 0.653967 0.390189 -0.125796
C26   C     C_R   0.185162 0.423908 0.552896 -0.261719
C27   C     C_R   0.231161 0.499942 0.498672 -0.074046
C28   C     C_R   0.186226 0.577030 0.446475 -0.200436
H5    H     H_    0.777567 0.366927 0.594307 0.199722
H6    H     H_    0.916881 0.290918 0.652498 0.155970
H7    H     H_    0.080405 0.290688 0.653757 0.145121
H8    H     H_    0.221331 0.365128 0.594388 0.161846
H9    H     H_    0.223198 0.635338 0.404418 0.187211
H10   H     H_    0.084090 0.712996 0.349910 0.167645
H11   H     H_    0.921172 0.713214 0.347127 0.224407
C29   C     C_R   0.571838 0.798233 0.453351 0.043008
C30   C     C_R   0.571775 0.201686 0.452968 0.028749
N1    N     N_R   0.500070 0.750030 0.500050 -0.133025
N2    N     N_R   0.500070 0.249970 0.500050 -0.126539
C31   C     C_R   0.427776 0.798056 0.545982 0.035899
C32   C     C_R   0.428083 0.202318 0.547091 0.021747
C33   C     C_R   0.425556 0.898891 0.548165 -0.104479
C34   C     C_R   0.425482 0.101504 0.547769 -0.108541
C35   C     C_R   0.499504 0.949529 0.500657 -0.073526
C36   C     C_R   0.499576 0.050663 0.500772 -0.068035
C37   C     C_R   0.573505 0.898880 0.452528 -0.176685
C38   C     C_R   0.573576 0.101070 0.452578 -0.164757
C39   C     C_R   0.351622 0.949469 0.597030 0.408222
C40   C     C_R   0.350336 0.050869 0.592451 0.399026
C41   C     C_R   0.647076 0.049976 0.404816 0.521141
C42   C     C_R   0.647052 0.949766 0.404827 0.550021
H12   H     H_    0.627560 0.757998 0.416291 0.233236
H13   H     H_    0.627469 0.241861 0.415662 0.181041
H14   H     H_    0.371550 0.757488 0.580082 0.159963
H15   H     H_    0.372637 0.243311 0.583708 0.166034
O9    O     O_3   0.278355 0.898571 0.640354 -0.622988
C43   C     C_3   0.264554 0.917067 0.769001 -0.250357
H16   H     H_    0.213839 0.974012 0.781443 0.223365
H17   H     H_    0.326617 0.936816 0.820712 0.120725
H18   H     H_    0.237556 0.851390 0.812563 0.170894
O10   O     O_3   0.276245 0.100312 0.634840 -0.639828
C44   C     C_3   0.215242 0.108017 0.535232 -0.304185
H19   H     H_    0.192617 0.036562 0.501532 0.205885
H20   H     H_    0.244249 0.149617 0.456673 0.158518
H21   H     H_    0.155407 0.146861 0.569193 0.188241
F1    F     F_    0.719051 0.096973 0.357944 -0.636590
F2    F     F_    0.719042 0.902562 0.358070 -0.608159
F3    F     F_    0.384829 0.629532 0.140051 -0.599489
F4    F     F_    0.340178 0.445848 0.098758 -0.581135
O11   O     O_3   0.346679 0.587156 0.919123 -0.525274
C45   C     C_3   0.314612 0.605311 0.797668 -0.116739
H22   H     H_    0.324784 0.542662 0.736572 0.155888
H23   H     H_    0.343230 0.670203 0.755152 0.158844
H24   H     H_    0.241436 0.616560 0.803650 0.166286
O12   O     O_3   0.358515 0.402865 0.864822 -0.595715
C46   C     C_3   0.313232 0.314925 0.875846 -0.150950
H25   H     H_    0.301940 0.295356 0.974958 0.170041
H26   H     H_    0.348234 0.257553 0.823070 0.178360
H27   H     H_    0.246359 0.322445 0.832642 0.165820
O13   O     O_3   0.476534 0.679713 0.876815 -0.620928
C47   C     C_3   0.439662 0.765541 0.925294 -0.284910
H28   H     H_    0.480615 0.792693 0.004323 0.181240
H29   H     H_    0.368799 0.758853 0.955237 0.206901
H30   H     H_    0.442678 0.820052 0.850889 0.171535
O14   O     O_3   0.497234 0.326915 0.890030 -0.576130
C48   C     C_3   0.501171 0.246649 0.969179 -0.341292
H31   H     H_    0.548627 0.259346 0.046957 0.169102
H32   H     H_    0.527887 0.185745 0.913892 0.214774
H33   H     H_    0.435259 0.223715 0.005273 0.123768
O15   O     O_3   0.633026 0.594332 0.921020 -0.637073
C49   C     C_3   0.676731 0.612512 0.806176 -0.118218
H34   H     H_    0.669669 0.555600 0.734927 0.153844
H35   H     H_    0.749029 0.623476 0.823956 0.147793
H36   H     H_    0.650001 0.679523 0.766518 0.206629
O16   O     O_3   0.644618 0.428647 0.870420 -0.586780
C50   C     C_3   0.732285 0.418548 0.918508 -0.273762
H37   H     H_    0.734671 0.355525 0.980580 0.184275
H38   H     H_    0.757469 0.482161 0.970594 0.183419
H39   H     H_    0.778670 0.405099 0.839353 0.173705
F5    F     F_    0.770222 0.648508 0.384444 -0.662201

loop_
_geom_bond_atom_site_label_1
_geom_bond_atom_site_label_2
_geom_bond_distance
_ccdc_geom_bond_type
C26   C27   1.396173 A    
C27   C28   1.395033 A    
C47   H28   1.109382 S    
C30   C38   1.409620 A    
C44   H21   1.108317 S    
C47   H30   1.108379 S    
C45   H22   1.100509 S    
Zn1   O7    2.020110 S    
C49   H35   1.109257 S    
C15   C16   1.382872 A    
C14   C15   1.396014 A    
C44   H20   1.113368 S    
Zn1   N1    2.000594 S    
O4    C2    1.279893 A    
O7    C4    1.282513 A    
C18   C25   1.401949 A    
C31   H14   1.078768 S    
C8    C11   1.608775 S    
C35   C37   1.411183 A    
C39   O9    1.387353 S    
C5    H1    1.113411 S    
C20   C21   1.399341 A    
C9    C12   1.551868 S    
C23   C28   1.382124 A    
O5    C3    1.282763 A    
C50   H37   1.109796 S    
C12   O15   1.434683 S    
C5    C7    1.547786 S    
C42   F2    1.358259 S    
C1    C27   1.430185 S    
C17   C18   1.412597 A    
C29   N1    1.363363 A    
C9    C10   1.541764 S    
C3    C14   1.433894 S    
O9    C43   1.413177 S    
C24   H10   1.083978 S    
C6    C8    1.574054 S    
C45   H23   1.104731 S    
C6    C10   1.554085 S    
C15   H5    1.085308 S    
C41   F1    1.358200 S    
O3    Zn1   2.013768 S    
O15   C49   1.415338 S    
N1    C31   1.364351 A    
C34   C40   1.412660 A    
C5    F3    1.392094 S    
N2    C32   1.363482 A    
C24   C25   1.388272 A    
C49   H36   1.109377 S    
C31   C33   1.412858 A    
C36   C38   1.410856 A    
C44   H19   1.113060 S    
O3    C2    1.278304 A    
C43   H17   1.115260 S    
C11   C12   1.601464 S    
C6    F4    1.388661 S    
C30   N2    1.363578 A    
C21   C22   1.412102 A    
C38   C41   1.407045 A    
C26   H8    1.085261 S    
O10   C44   1.409879 S    
C23   C24   1.398227 A    
C43   H18   1.109517 S    
C46   H26   1.110238 S    
O14   C48   1.414590 S    
C12   O16   1.434590 S    
Zn2   O8    2.013872 S    
C2    C10   1.450902 S    
C39   C40   1.421742 A    
C48   H32   1.109046 S    
C19   C20   1.389720 A    
C20   H7    1.083229 S    
C30   H13   1.081954 S    
O11   C45   1.411493 S    
C29   H12   1.080772 S    
C50   H39   1.109149 S    
C32   H15   1.081476 S    
C7    O13   1.434321 S    
Zn2   O6    2.012596 S    
C5    C10   1.553758 S    
C25   H11   1.083416 S    
O8    C4    1.285961 A    
C37   C42   1.407010 A    
C32   C34   1.412600 A    
C33   C39   1.412739 A    
C7    O11   1.434209 S    
C46   H27   1.109150 S    
C8    O12   1.428845 S    
C45   H24   1.108740 S    
Zn1   O5    2.014742 S    
C22   C23   1.411172 A    
C16   C19   1.400038 A    
C13   C18   1.386612 A    
O1    Zn1   2.012867 S    
C19   H6    1.083906 S    
H4    C9    1.109717 S    
O2    Zn2   2.015012 S    
O6    C3    1.283455 A    
Zn2   N2    2.000610 S    
O4    Zn2   2.020006 S    
C47   H29   1.111332 S    
C49   H34   1.103305 S    
C29   C37   1.409991 A    
C41   C42   1.403623 A    
H3    C9    1.115390 S    
C21   C26   1.384211 A    
C35   C36   1.416555 A    
C43   H16   1.109740 S    
O16   C50   1.418453 S    
C46   H25   1.109873 S    
C16   C17   1.411255 A    
C8    O14   1.443740 S    
C40   O10   1.382875 S    
C48   H31   1.108125 S    
C33   C35   1.409188 A    
O2    C1    1.282114 A    
C28   H9    1.085473 S    
C48   H33   1.106513 S    
C4    C11   1.477551 S    
O13   C47   1.418092 S    
C7    C11   1.614283 S    
C50   H38   1.112264 S    
C34   C36   1.409322 A    
C13   F5    1.360629 S    
C6    H2    1.102360 S    
C13   C14   1.400252 A    
C17   C22   1.391960 A    
O1    C1    1.282762 A    
O12   C46   1.409922 S    
