data_mof_unit_31749.cif
_audit_creation_date              2012-12-10T17:43:35-0500
_audit_creation_method            fapswitch 2.2
_symmetry_space_group_name_H-M    P1
_symmetry_Int_Tables_number       1
_space_group_crystal_system       triclinic
_cell_length_a                    14.904882
_cell_length_b                    10.672746
_cell_length_c                    9.92316
_cell_angle_alpha                 89.795139
_cell_angle_beta                  89.821376
_cell_angle_gamma                 92.019618
_cell_volume                      1577.53784602

loop_
_atom_site_label
_atom_site_type_symbol
_atom_type_description
_atom_site_fract_x
_atom_site_fract_y
_atom_site_fract_z
_atom_type_partial_charge
C1    C     C_R   0.502848 0.260605 0.500552 0.849911
C2    C     C_R   0.909005 0.615049 0.461067 0.086762
C3    C     C_R   0.946888 0.288044 0.574378 -0.239233
C4    C     C_R   0.039810 0.286386 0.574009 0.301858
C5    C     C_R   0.090482 0.394771 0.535778 0.083635
C6    C     C_R   0.047105 0.506552 0.500556 -0.097373
C7    C     C_R   0.097117 0.618689 0.468058 -0.056204
C8    C     C_R   0.051411 0.726035 0.424734 0.315944
C9    C     C_R   0.957985 0.723141 0.422847 -0.259259
C10   C     C_R   0.183339 0.394088 0.530555 -0.295023
C11   C     C_R   0.231912 0.503889 0.501808 -0.192352
C12   C     C_R   0.327231 0.499867 0.500365 0.920266
C13   C     C_R   0.190693 0.618396 0.481945 0.474807
C14   C     C_R   0.641182 0.135262 0.654130 -0.196347
C15   C     C_R   0.708094 0.072614 0.722055 -0.139391
C16   C     C_R   0.711220 0.942814 0.714741 -0.124163
C17   C     C_R   0.646740 0.875135 0.640937 -0.196705
C18   C     C_R   0.577252 0.937096 0.573549 0.102332
C19   C     C_R   0.575390 0.068402 0.577800 0.107099
C20   C     C_R   0.508889 0.128300 0.501963 -0.097007
C21   C     C_R   0.446713 0.061435 0.423479 -0.207355
C22   C     C_R   0.447214 0.933384 0.422293 -0.185010
C23   C     C_R   0.503671 0.739410 0.499585 0.863528
C24   C     C_R   0.510476 0.871953 0.498532 -0.130961
C25   C     C_R   0.381573 0.335650 0.140907 -0.147311
C26   C     C_R   0.322861 0.255327 0.071111 -0.179495
C27   C     C_R   0.322730 0.255830 0.931574 -0.175522
C28   C     C_R   0.381573 0.336053 0.860957 -0.145484
C29   C     C_R   0.441698 0.419071 0.928217 0.160865
C30   C     C_R   0.441698 0.419034 0.072762 0.171638
C31   C     C_R   0.555733 0.577568 0.070896 -0.099911
C32   C     C_R   0.555713 0.577538 0.927841 -0.104895
C33   C     C_R   0.672841 0.502556 0.499694 0.855049
C34   C     C_R   0.815763 0.613223 0.460012 -0.249026
C35   C     C_R   0.768154 0.504475 0.498957 -0.036137
C36   C     C_R   0.811071 0.396745 0.536885 -0.229736
C37   C     C_R   0.903748 0.396372 0.536884 0.078892
C38   C     C_R   0.953451 0.506085 0.499408 0.086590
H1    H     H_    0.780122 0.695902 0.430593 0.133801
H2    H     H_    0.642683 0.236021 0.661365 0.163970
H3    H     H_    0.758326 0.125193 0.779180 0.147510
H4    H     H_    0.764027 0.894425 0.765772 0.148354
H5    H     H_    0.653121 0.774703 0.635370 0.144083
H6    H     H_    0.396722 0.881737 0.364343 0.204022
H7    H     H_    0.601291 0.641001 0.124075 0.148225
H8    H     H_    0.377762 0.329783 0.247850 0.197296
H9    H     H_    0.277151 0.192384 0.125789 0.175406
H10   H     H_    0.276742 0.193852 0.877382 0.177099
H11   H     H_    0.377934 0.330352 0.754046 0.206392
H12   H     H_    0.772354 0.312978 0.564367 0.128446
H13   H     H_    0.601238 0.640985 0.873681 0.147199
H14   H     H_    0.908281 0.204429 0.604265 0.178987
H15   H     H_    0.219173 0.309462 0.550530 0.188982
H16   H     H_    0.923451 0.805444 0.389692 0.185628
H17   H     H_    0.396204 0.108557 0.365637 0.157008
N1    N     N_R   0.499150 0.498800 0.142780 -0.123204
N2    N     N_R   0.499120 0.498720 0.857170 -0.124911
O1    O     O_R   0.500000 0.316780 0.614690 -0.646248
O2    O     O_R   0.499990 0.316750 0.385360 -0.631734
O3    O     O_R   0.367850 0.499980 0.614680 -0.652137
O4    O     O_R   0.367840 0.499960 0.385350 -0.615804
O5    O     O_R   0.500010 0.683250 0.614640 -0.631068
O6    O     O_R   0.500000 0.683220 0.385310 -0.604237
O7    O     O_R   0.632160 0.500040 0.614650 -0.629499
O8    O     O_R   0.632150 0.500020 0.385320 -0.608105
Zn1   Zn    Zn3+2 0.500010 0.500020 0.653130 0.924747
Zn2   Zn    Zn3+2 0.499990 0.499980 0.346870 0.958626
Br1   Br    Br    0.092575 0.134535 0.632281 -0.584125
O9    O     O_3   0.241904 0.729271 0.484467 -0.621998
C39   C     C_3   0.267636 0.757390 0.619196 0.051766
H18   H     H_    0.340752 0.778812 0.620179 0.178613
H19   H     H_    0.254927 0.679354 0.693050 0.139369
C40   C     C_3   0.220191 0.872740 0.668622 -0.277724
H20   H     H_    0.237280 0.952896 0.600380 0.276700
H21   H     H_    0.146438 0.853589 0.666799 0.259940
C41   C     C_3   0.248492 0.906907 0.811959 -0.910869
H22   H     H_    0.235023 0.826493 0.881381 0.272676
H23   H     H_    0.209440 0.987018 0.847512 0.291158
H24   H     H_    0.321135 0.933979 0.814657 0.260964
Br2   Br    Br    0.109450 0.875186 0.351054 -0.460579

loop_
_geom_bond_atom_site_label_1
_geom_bond_atom_site_label_2
_ccdc_geom_bond_type
C27   H10   S    
C40   H20   S    
C35   C36   A    
C41   H24   S    
N2    Zn1   S    
C33   O8    A    
C7    C8    A    
C26   C27   A    
C29   C30   A    
C18   C24   A    
C36   C37   A    
C41   H23   S    
C34   C35   A    
C1    O2    A    
C5    C6    A    
C15   C16   A    
C18   C19   A    
C10   H15   S    
C2    C38   A    
O2    Zn2   S    
O1    Zn1   S    
C23   O5    A    
C22   H6    S    
C19   C20   A    
C8    C9    A    
O8    Zn2   S    
C23   C24   S    
C6    C38   A    
C39   H18   S    
C31   N1    A    
C2    C34   A    
C23   O6    A    
O3    Zn1   S    
C21   C22   A    
C40   H21   S    
C32   N2    A    
O6    Zn2   S    
O5    Zn1   S    
C34   H1    S    
C41   H22   S    
C15   H3    S    
C4    Br1   S    
C16   C17   A    
C25   C26   A    
C30   N1    A    
O7    Zn1   S    
C17   H5    S    
C32   H13   S    
C37   C38   A    
C28   H11   S    
O4    Zn2   S    
C31   C32   A    
C11   C12   S    
C39   C40   S    
C17   C18   A    
C26   H9    S    
C29   N2    A    
C40   C41   S    
C22   C24   A    
C3    C4    A    
C16   H4    S    
C36   H12   S    
C21   H17   S    
C25   C30   A    
C28   C29   A    
C1    C20   S    
C14   C19   A    
C4    C5    A    
C3    H14   S    
C6    C7    A    
N1    Zn2   S    
C5    C10   A    
C1    O1    A    
C12   O4    A    
C11   C13   A    
C13   O9    S    
C33   O7    A    
C33   C35   S    
O9    C39   S    
C10   C11   A    
C14   H2    S    
C12   O3    A    
C7    C13   A    
C20   C21   A    
C3    C37   A    
C31   H7    S    
C27   C28   A    
C8    Br2   S    
C14   C15   A    
C39   H19   S    
C9    H16   S    
C2    C9    A    
C25   H8    S    
