data_mof_unit_54622.cif
_audit_creation_date              2013-03-05T15:48:37-0500
_audit_creation_method            fapswitch 2.2
_symmetry_space_group_name_H-M    P1
_symmetry_Int_Tables_number       1
_space_group_crystal_system       triclinic
_cell_length_a                    8.36224
_cell_length_b                    18.924983
_cell_length_c                    19.037987
_cell_angle_alpha                 99.297044
_cell_angle_beta                  95.259387
_cell_angle_gamma                 91.052464
_cell_volume                      2959.07907592

loop_
_atom_site_label
_atom_site_type_symbol
_atom_site_description
_atom_site_fract_x
_atom_site_fract_y
_atom_site_fract_z
_atom_type_partial_charge
P1    P     P_3+3 0.947550 0.663200 0.567530 0.515280
O1    O     O_2   0.118870 0.674530 0.547560 -0.368378
O2    O     O_3   0.870460 0.585330 0.542110 -0.348693
O3    O     O_3   0.354280 0.631750 0.418430 -0.351001
O4    O     O_2   0.233342 0.750615 0.470927 -0.315991
O5    O     O_3   0.966619 0.682539 0.661468 -0.582518
O6    O     O_3   0.292734 0.749049 0.341870 -0.429815
C1    C     C_3   0.331584 0.759717 0.222724 0.148792
H1    H     H_    0.202731 0.771343 0.215504 0.229162
H2    H     H_    0.397603 0.811837 0.239692 0.168989
P2    P     P_3+3 0.354660 0.445020 0.336980 0.534506
P3    P     P_3+3 0.903367 0.597087 0.288660 0.498017
O7    O     O_2   0.180880 0.466650 0.327890 -0.403303
O8    O     O_3   0.939000 0.596010 0.380670 -0.288383
O9    O     O_2   0.020009 0.542662 0.253802 -0.380617
O10   O     O_3   0.352324 0.350582 0.325438 -0.554318
O11   O     O_3   0.981451 0.680285 0.274341 -0.504489
C2    C     C_3   0.874556 0.737687 0.281858 0.602500
C3    C     C_3   0.779075 0.740306 0.208834 0.599348
H3    H     H_    0.678751 0.700124 0.200797 -0.003065
C4    C     C_3   0.788308 0.385907 0.313639 0.425924
H4    H     H_    0.686003 0.407862 0.342072 0.099885
H5    H     H_    0.887094 0.427088 0.321402 0.109528
C5    C     C_3   0.733331 0.366114 0.233767 -0.633512
H6    H     H_    0.616750 0.335520 0.226573 0.271363
H7    H     H_    0.716348 0.415727 0.211016 0.183771
Ba1   Ba    Ba6+2 0.152460 0.535140 0.468980 1.637328
C6    C     C_3   0.012196 0.624687 0.695338 0.128823
H8    H     H_    0.134677 0.609581 0.682907 0.061707
H9    H     H_    0.928906 0.577662 0.676783 0.143753
C7    C     C_3   0.008127 0.648823 0.777653 0.312550
C8    C     C_3   0.225131 0.317802 0.276752 0.840653
H10   H     H_    0.113119 0.347601 0.280135 0.055146
C9    C     C_3   0.189829 0.243842 0.294716 -0.800084
H11   H     H_    0.296758 0.210083 0.288721 0.284274
H12   H     H_    0.086509 0.217009 0.258846 0.235496
H13   H     H_    0.159823 0.248790 0.350743 0.197454
P4    P     P_3+3 0.862750 0.336790 0.432410 0.556562
O12   O     O_2   0.691430 0.325420 0.452420 -0.276887
O13   O     O_3   0.939830 0.414660 0.457830 -0.401639
O14   O     O_3   0.456020 0.368240 0.581510 -0.341436
O15   O     O_3   0.841496 0.324334 0.338836 -0.532688
P5    P     P_3+3 0.897842 0.400740 0.710923 0.472612
O16   O     O_3   0.374170 0.535780 0.585810 -0.396663
O17   O     O_3   0.871300 0.403980 0.619270 -0.353445
O18   O     O_2   0.789466 0.458072 0.747267 -0.373289
O19   O     O_3   0.813769 0.319788 0.726387 -0.492179
Ba2   Ba    Ba6+2 0.657710 0.464850 0.530960 1.636641
P6    P     P_3+3 0.367856 0.724782 0.423729 0.554957
C10   C     C_3   0.360180 0.712796 0.281358 0.329534
H14   H     H_    0.489631 0.705310 0.292457 -0.029853
O20   O     O_3   0.436130 0.464210 0.414140 -0.282885
C11   C     C_3   0.484199 0.685959 0.686997 0.383178
H15   H     H_    0.609176 0.676003 0.674792 0.126246
H16   H     H_    0.398054 0.686792 0.639701 0.052284
C12   C     C_3   0.487664 0.760192 0.732337 -0.880310
H17   H     H_    0.546503 0.759286 0.786845 0.318940
H18   H     H_    0.555889 0.798397 0.706787 0.215977
H19   H     H_    0.364476 0.779926 0.736330 0.218762
P7    P     P_3+3 0.445789 0.547085 0.677028 0.458085
O21   O     O_2   0.629420 0.533310 0.672080 -0.331941
O22   O     O_3   0.431579 0.634296 0.725122 -0.563647
C13   C     C_3   0.926565 0.265570 0.716464 0.378380
H20   H     H_    0.049388 0.285473 0.738458 0.080545
C14   C     C_3   0.883077 0.204522 0.756782 -0.517041
H21   H     H_    0.767518 0.177668 0.732353 0.205228
H22   H     H_    0.976652 0.163513 0.751569 0.239841
P8    P     P_3+3 0.437295 0.274987 0.570700 0.498605
C15   C     C_3   0.379168 0.260930 0.698606 0.190457
H23   H     H_    0.285713 0.217863 0.680399 0.104632
O23   O     O_2   0.570611 0.246044 0.523938 -0.367018
O24   O     O_3   0.504032 0.252674 0.653822 -0.510945
H24   H     H_    0.324959 0.314155 0.699762 0.069310
C16   C     C_3   0.449327 0.254660 0.773932 0.059115
H25   H     H_    0.525359 0.303116 0.796646 0.144460
H26   H     H_    0.522417 0.206298 0.772370 0.172133
C17   C     C_R   0.995982 0.953172 0.537099 0.105941
C18   C     C_R   0.088687 0.903511 0.568044 -0.089772
C19   C     C_R   0.198725 0.053946 0.576743 0.362496
C20   C     C_R   0.054153 0.025127 0.537402 -0.035670
C21   C     C_R   0.276449 0.113253 0.558041 -0.053286
C22   C     C_R   0.184597 0.163065 0.524649 -0.064100
C23   C     C_R   0.027307 0.140534 0.491895 -0.046744
C24   C     C_R   0.967203 0.069662 0.495225 -0.014322
C25   C     C_R   0.237705 0.235713 0.527754 0.185876
C26   C     C_R   0.132333 0.283940 0.501428 -0.463662
C27   C     C_R   0.981070 0.262800 0.465640 0.261130
C28   C     C_R   0.931015 0.187945 0.455375 -0.144121
C29   C     C_R   0.841985 0.929657 0.503947 0.074623
C30   C     C_R   0.779691 0.858383 0.505549 -0.038818
C31   C     C_R   0.878149 0.809037 0.538205 -0.029791
C32   C     C_R   0.028092 0.836228 0.574943 0.088080
H27   H     H_    0.171359 0.339610 0.507263 0.172788
C33   C     C_R   0.794783 0.156162 0.409129 0.456482
C34   C     C_R   0.746250 0.084183 0.408071 -0.119592
C35   C     C_R   0.818039 0.044262 0.458312 0.048958
C36   C     C_R   0.749607 0.977514 0.469116 0.041947
C37   C     C_R   0.586627 0.959935 0.450807 -0.274660
C38   C     C_R   0.618370 0.837976 0.475837 -0.197094
C39   C     C_R   0.520943 0.892594 0.452983 0.493205
C40   C     C_R   0.561715 0.765850 0.473996 0.152876
C41   C     C_R   0.657512 0.719097 0.509879 -0.261464
C42   C     C_R   0.820667 0.736293 0.534667 0.204780
H28   H     H_    0.212650 0.915225 0.587617 0.181045
H29   H     H_    0.504587 0.000528 0.438242 0.169583
C43   C     C_R   0.597178 0.537714 0.300727 0.097094
C44   C     C_R   0.463863 0.491576 0.274877 0.139853
C45   C     C_R   0.416973 0.479198 0.200984 -0.324025
C46   C     C_R   0.509168 0.507462 0.152582 0.060931
C47   C     C_R   0.651894 0.547687 0.179963 -0.329647
C48   C     C_R   0.696878 0.562512 0.253761 0.089064
C49   C     C_R   0.490532 0.545219 0.030940 -0.074713
C50   C     C_R   0.444983 0.532545 0.957278 -0.131018
C51   C     C_R   0.367551 0.467473 0.923760 0.116737
C52   C     C_R   0.335033 0.415880 0.966491 -0.126103
C53   C     C_R   0.381544 0.428399 0.040288 -0.156672
C54   C     C_R   0.459850 0.493377 0.073727 0.134563
C55   C     C_R   0.164925 0.424314 0.817518 -0.233998
C56   C     C_R   0.109426 0.423504 0.745352 0.158008
C57   C     C_R   0.357610 0.482857 0.726608 0.329861
C58   C     C_R   0.414589 0.482723 0.798138 -0.248428
C59   C     C_R   0.317812 0.455088 0.845061 0.041537
C60   C     C_R   0.207793 0.451328 0.700153 -0.489028
H30   H     H_    0.528668 0.509736 0.818452 0.184101
H31   H     H_    0.467648 0.574681 0.926821 0.161665
H32   H     H_    0.547746 0.596385 0.054494 0.188721
H33   H     H_    0.306701 0.448943 0.181578 0.202144
H34   H     H_    0.275050 0.365418 0.942836 0.187323
H35   H     H_    0.358021 0.386530 0.070830 0.188525
H36   H     H_    0.084554 0.406082 0.852833 0.145417
H37   H     H_    0.731936 0.564890 0.143987 0.189667
H38   H     H_    0.161106 0.455217 0.646029 0.163997
N1    N     N_3   0.278505 0.643321 0.256437 -0.109902
H39   H     H_    0.295854 0.611272 0.295609 0.180990
H40   H     H_    0.332489 0.617136 0.212777 0.129809
N2    N     N_3   0.852041 0.324057 0.195221 -0.162985
H41   H     H_    0.820367 0.322083 0.140492 0.175887
H42   H     H_    0.841933 0.271300 0.204650 0.216876
N3    N     N_3   0.094440 0.717546 0.802992 -0.145566
H43   H     H_    0.214087 0.712318 0.792398 0.131313
H44   H     H_    0.045109 0.757380 0.776338 0.175640
N4    N     N_3   0.078331 0.596098 0.818145 -0.175594
H45   H     H_    0.011021 0.548336 0.803824 0.152076
H46   H     H_    0.195588 0.587393 0.805202 0.084683
Cl1   Cl    Cl    0.805543 0.658799 0.798686 -0.587131
Cl2   Cl    Cl    0.280795 0.306203 0.187518 -0.711124
Cl3   Cl    Cl    0.381899 0.719019 0.136446 -0.564575
Cl4   Cl    Cl    0.700120 0.826676 0.202647 -0.498034
N5    N     N_3   0.927713 0.238287 0.640208 -0.204384
H47   H     H_    0.003559 0.194958 0.634751 0.056771
H48   H     H_    0.812582 0.218381 0.619578 0.186056
N6    N     N_3   0.871817 0.230216 0.832864 -0.146179
H49   H     H_    0.777555 0.265425 0.838594 0.164007
H50   H     H_    0.976825 0.259376 0.854742 0.204879
Cl5   Cl    Cl    0.297298 0.245342 0.831155 -0.700624
Cl6   Cl    Cl    0.993576 0.819118 0.309924 -0.483677
N7    N     N_3   0.448284 0.120979 0.571540 -0.152264
H51   H     H_    0.493698 0.115097 0.521663 0.124658
H52   H     H_    0.496487 0.079215 0.595595 0.162756
N8    N     N_3   0.115076 0.800562 0.626360 -0.160714
H53   H     H_    0.115337 0.832557 0.676592 0.117536
H54   H     H_    0.234420 0.796482 0.614245 0.130384
Cl7   Cl    Cl    0.687595 0.197283 0.343332 -0.616806
Cl8   Cl    Cl    0.311096 0.888670 0.434353 -0.580144
N9    N     N_3   0.583905 0.653617 0.522658 -0.088886
H55   H     H_    0.636197 0.637667 0.568477 0.121843
H56   H     H_    0.468706 0.664187 0.536716 0.136991
Cl9   Cl    Cl    0.258776 0.035105 0.663417 -0.676437
N10   N     N_3   0.635641 0.048483 0.350257 -0.170176
H57   H     H_    0.684167 0.050049 0.301806 0.211389
H58   H     H_    0.526591 0.074681 0.350281 0.169209
N11   N     N_3   0.767087 0.732549 0.337321 -0.254633
H59   H     H_    0.702207 0.779437 0.344402 0.090165
H60   H     H_    0.837636 0.731910 0.385430 0.163642
Cl10  Cl    Cl    0.899308 0.717721 0.136018 -0.477619
Cl11  Cl    Cl    0.641838 0.563419 0.392412 -0.587089

loop_
_geom_bond_atom_site_label_1
_geom_bond_atom_site_label_2
_geom_bond_distance
_ccdc_geom_bond_type
Ba1   Ba2   4.634481 S    
P4    O13   1.580793 S    
C27   C28   1.447055 A    
C13   C14   1.542233 S    
N9    H55   1.031144 S    
C7    Cl1   1.782548 S    
C60   H38   1.082321 S    
C9    H13   1.107736 S    
N3    H44   1.045293 S    
N10   H57   1.045642 S    
C34   C35   1.410994 A    
C20   C24   1.420545 A    
C51   C52   1.405904 A    
Ba2   O21   2.820583 S    
C46   C54   1.499350 S    
C17   C18   1.397592 A    
C53   C54   1.409712 A    
C17   C29   1.412058 A    
C40   C41   1.418540 A    
C37   H29   1.080126 S    
C16   H26   1.107792 S    
C23   C24   1.436696 A    
C6    H8    1.104575 S    
C5    H7    1.101994 S    
C9    H11   1.112146 S    
N5    H48   1.045290 S    
P6    C40   1.891241 S    
P4    O12   1.535915 D    
C17   C20   1.436530 A    
C8    Cl2   1.783019 S    
C43   C44   1.404359 A    
C52   C53   1.403622 A    
O2    Ba2   2.834479 S    
C45   C46   1.415607 A    
P7    O22   1.765032 S    
P1    O1    1.535521 D    
C55   C59   1.414112 A    
C47   C48   1.402135 A    
C13   N5    1.461099 S    
C58   H30   1.082361 S    
P2    O20   1.545628 S    
C41   C42   1.416359 A    
C55   C56   1.406842 A    
C24   C35   1.410297 A    
Ba1   O16   2.760254 S    
N7    H51   1.044866 S    
O5    C6    1.399339 S    
C53   H35   1.081083 S    
C3    H3    1.104959 S    
C1    H1    1.104371 S    
C14   H22   1.111815 S    
P3    O11   1.764459 S    
C44   C45   1.405948 A    
C15   H24   1.109970 S    
O1    Ba1   2.846908 S    
C19   Cl9   1.773951 S    
P1    C42   1.908535 S    
P4    Ba2   3.406861 S    
C57   C60   1.392469 A    
C5    N2    1.459890 S    
C23   C28   1.436085 A    
N9    H56   1.037629 S    
C4    H4    1.105805 S    
P8    C25   1.874688 S    
N10   H58   1.045939 S    
O4    P6    1.541182 D    
C15   H23   1.109427 S    
C49   C50   1.399737 A    
N11   H60   1.044895 S    
C36   C37   1.395854 A    
O14   P8    1.745863 S    
C43   C48   1.404523 A    
C11   H16   1.102722 S    
C28   C33   1.433383 A    
C21   N7    1.436878 S    
C16   H25   1.110053 S    
C18   H28   1.075451 S    
P1    O5    1.758347 S    
C15   C16   1.522527 S    
C5    H6    1.110640 S    
O6    P6    1.759722 S    
N2    H42   1.045841 S    
C31   C32   1.423149 A    
C19   C21   1.397745 A    
C26   C27   1.399850 A    
C2    C3    1.546913 S    
O17   Ba2   2.737620 S    
C18   C32   1.392095 A    
C11   H15   1.104217 S    
C21   C22   1.418960 A    
C52   H34   1.080942 S    
C19   C20   1.413425 A    
C29   C36   1.408045 A    
P7    O21   1.571018 D    
P1    O2    1.580823 S    
C8    C9    1.523562 S    
N7    H52   1.044868 S    
C15   O24   1.402764 S    
C39   Cl8   1.755904 S    
C55   H36   1.082614 S    
C26   H27   1.082446 S    
C34   N10   1.439983 S    
C11   O22   1.395858 S    
C38   C39   1.425754 A    
P3    O9    1.545119 D    
P2    Ba1   3.403395 S    
Ba1   O13   2.833872 S    
P8    O24   1.748321 S    
C35   C36   1.429838 A    
C45   H33   1.079090 S    
O11   C2    1.417221 S    
C47   H37   1.082218 S    
C10   H14   1.099952 S    
P5    O17   1.749772 S    
C58   C59   1.412230 A    
C38   C40   1.430602 A    
N6    H50   1.044012 S    
C14   H21   1.109762 S    
C41   N9    1.438931 S    
C2    N11   1.461490 S    
C4    H5    1.108322 S    
P2    C44   1.874298 S    
N1    H39   1.036643 S    
O8    Ba1   2.736966 S    
N4    H46   1.042312 S    
C1    Cl3   1.788308 S    
C12   H17   1.109815 S    
C7    N3    1.464282 S    
N11   H59   1.045162 S    
C1    C10   1.539763 S    
C30   C38   1.435031 A    
O3    Ba1   2.805377 S    
C2    Cl6   1.797532 S    
Ba1   O20   2.938886 S    
P1    Ba1   3.406243 S    
C50   C51   1.408566 A    
C11   C12   1.523707 S    
O13   Ba2   2.943360 S    
C4    O15   1.395092 S    
N4    H45   1.040053 S    
C49   H32   1.082109 S    
C6    C7    1.563562 S    
O6    C10   1.412068 S    
C31   C42   1.438978 A    
N2    H41   1.045768 S    
C10   N1    1.458192 S    
C25   C26   1.398943 A    
N3    H43   1.041964 S    
P4    O15   1.750850 S    
C56   C60   1.398081 A    
O10   C8    1.408710 S    
C22   C25   1.427401 A    
P4    C27   1.887397 S    
C37   C39   1.386739 A    
C3    Cl4   1.791413 S    
C12   H19   1.107130 S    
O3    P6    1.748160 S    
C32   N8    1.429639 S    
C8    H10   1.103739 S    
C14   N6    1.463695 S    
C6    H9    1.110155 S    
P3    O8    1.753198 S    
N5    H47   1.043615 S    
N8    H53   1.045770 S    
O19   C13   1.408466 S    
P2    O7    1.519182 D    
C30   C31   1.434753 A    
C49   C54   1.406859 A    
O16   P7    1.762048 S    
P8    O23   1.543444 D    
O2    Ba1   2.942505 S    
O14   Ba2   2.804701 S    
C12   H18   1.110964 S    
C16   Cl5   1.772522 S    
P7    C57   1.837807 S    
C9    H12   1.111020 S    
C7    N4    1.456585 S    
C33   C34   1.410686 A    
P5    O18   1.544622 D    
C3    Cl10  1.787496 S    
P2    O10   1.764633 S    
C13   H20   1.108187 S    
C51   C59   1.497164 S    
Ba2   O20   2.759467 S    
C50   H31   1.082595 S    
N6    H49   1.043451 S    
C1    H2    1.107434 S    
C22   C23   1.429615 A    
C4    C5    1.531462 S    
P5    C56   1.847669 S    
N1    H40   1.041230 S    
C43   Cl11  1.738485 S    
C57   C58   1.401333 A    
O7    Ba1   2.820449 S    
C29   C30   1.442937 A    
C46   C47   1.414227 A    
P5    O19   1.752747 S    
C33   Cl7   1.764332 S    
P3    C48   1.859794 S    
O16   Ba2   2.938031 S    
N8    H54   1.046143 S    
O12   Ba2   2.847433 S    
