data_mof_unit_55214.cif
_audit_creation_date              2012-10-26T21:02:35-0400
_audit_creation_method            fapswitch 2.2
_symmetry_space_group_name_H-M    P1
_symmetry_Int_Tables_number       1
_space_group_crystal_system       triclinic
_cell_length_a                    12.388215
_cell_length_b                    13.149209
_cell_length_c                    15.000542
_cell_angle_alpha                 77.68492
_cell_angle_beta                  101.745364
_cell_angle_gamma                 116.982508
_cell_volume                      2111.35792464

loop_
_atom_site_label
_atom_site_type_symbol
_atom_type_description
_atom_site_fract_x
_atom_site_fract_y
_atom_site_fract_z
_atom_type_partial_charge
Br1   Br    Br    0.073127 0.749500 0.221559 -0.621903
Br2   Br    Br    0.985438 0.102639 0.569872 -0.456103
Br3   Br    Br    0.089832 0.858831 0.847955 -0.494325
C1    C     C_R   0.855175 0.286098 0.504919 0.534792
C2    C     C_R   0.943571 0.394626 0.824642 0.174433
C3    C     C_R   0.996863 0.499206 0.767137 -0.017776
C4    C     C_R   0.998687 0.498349 0.670867 0.594920
C5    C     C_R   0.041718 0.605833 0.799324 0.231145
C6    C     C_R   0.271420 0.027237 0.386303 -0.104333
C7    C     C_R   0.227794 0.835553 0.467252 0.001195
C8    C     C_R   0.817373 0.075793 0.537782 0.135270
C9    C     C_R   0.735671 0.960317 0.548892 -0.114275
C10   C     C_R   0.611765 0.927100 0.526066 -0.138706
C11   C     C_R   0.565518 0.008900 0.485600 0.021022
C12   C     C_R   0.027031 0.609607 0.078192 0.003920
C13   C     C_R   0.649000 0.125270 0.463776 -0.017122
C14   C     C_R   0.438685 0.977703 0.463430 0.033696
C15   C     C_R   0.396958 0.058295 0.409340 0.048807
C16   C     C_R   0.145061 0.713626 0.486360 0.570808
C17   C     C_R   0.481058 0.167725 0.377182 -0.136105
C18   C     C_R   0.605175 0.200317 0.402906 -0.126108
C19   C     C_R   0.351958 0.868488 0.494549 -0.146839
C20   C     C_R   0.187147 0.915907 0.414701 -0.085267
C21   C     C_R   0.774188 0.161664 0.500590 -0.018873
C22   C     C_R   0.358202 0.341455 0.653971 0.254962
C23   C     C_R   0.881234 0.293829 0.067248 0.250999
C24   C     C_R   0.771722 0.657235 0.386158 0.007703
C25   C     C_R   0.690606 0.708188 0.371240 0.240474
C26   C     C_R   0.577832 0.647827 0.407618 0.267165
C27   C     C_R   0.555735 0.544612 0.471215 -0.027155
C28   C     C_R   0.000330 0.501300 0.329151 0.568270
C29   C     C_R   0.651184 0.506506 0.491919 0.122104
C30   C     C_R   0.449180 0.481691 0.520982 -0.051327
C31   C     C_R   0.448904 0.392449 0.593745 -0.008060
C32   C     C_R   0.538885 0.353728 0.605694 -0.162470
C33   C     C_R   0.639794 0.413460 0.560058 -0.096152
C34   C     C_R   0.887078 0.293071 0.975557 -0.092673
C35   C     C_R   0.341095 0.499227 0.501495 -0.013235
C36   C     C_R   0.254599 0.365019 0.631042 0.454739
C37   C     C_R   0.030568 0.609334 0.172647 0.123287
C38   C     C_R   0.998730 0.504472 0.231975 0.001799
C39   C     C_R   0.949933 0.400101 0.197518 -0.151032
C40   C     C_R   0.938951 0.398622 0.103374 0.023692
C41   C     C_R   0.984101 0.503965 0.043932 -0.017043
C42   C     C_3   0.177569 0.313831 0.772232 0.043800
C43   C     C_3   0.123413 0.194640 0.827898 -0.286674
C44   C     C_3   0.461999 0.318430 0.798165 -0.027005
C45   C     C_R   0.939178 0.396594 0.916752 -0.032279
C46   C     C_3   0.443774 0.242426 0.890981 -0.373742
C47   C     C_3   0.442692 0.698046 0.302344 -0.020576
C48   C     C_3   0.370465 0.769182 0.284989 -0.348020
C49   C     C_3   0.837292 0.896801 0.352258 -0.018053
C50   C     C_3   0.848550 0.018676 0.323213 -0.346267
C51   C     C_3   0.690000 0.165969 0.097511 -0.025781
C52   C     C_3   0.616337 0.068885 0.167151 -0.376835
C53   C     C_3   0.787555 0.247637 0.753705 -0.015210
C54   C     C_3   0.735088 0.117323 0.759713 -0.371623
C55   C     C_3   0.225734 0.729954 0.750115 -0.000584
C56   C     C_R   0.983795 0.503266 0.950004 -0.074412
C57   C     C_3   0.299748 0.856248 0.714726 -0.327212
C58   C     C_R   0.028907 0.608767 0.890029 0.023371
C59   C     C_R   0.060486 0.712926 0.923706 0.177457
C60   C     C_R   0.061556 0.712344 0.016783 -0.092975
Cu1   Cu    Cu3+1 0.098270 0.475420 0.521130 1.012728
Cu2   Cu    Cu3+1 0.901730 0.524580 0.478870 0.951363
H1    H     H_    0.450893 0.228516 0.331981 0.110050
H2    H     H_    0.854116 0.698779 0.353390 0.168149
H3    H     H_    0.710711 0.387558 0.583674 0.173125
H4    H     H_    0.847466 0.210714 0.950511 0.162068
H5    H     H_    0.088785 0.793902 0.039955 0.194853
H6    H     H_    0.091021 0.891637 0.393291 0.134632
H7    H     H_    0.133221 0.363964 0.786017 0.177269
H8    H     H_    0.274548 0.361862 0.797906 0.081171
H9    H     H_    0.166363 0.141207 0.816720 0.227022
H10   H     H_    0.138747 0.202379 0.902185 0.085873
H11   H     H_    0.023720 0.150836 0.806381 0.211728
H12   H     H_    0.238656 0.088132 0.344649 0.117985
H13   H     H_    0.469031 0.403859 0.805442 0.105720
H14   H     H_    0.551633 0.333102 0.782031 0.124259
H15   H     H_    0.432924 0.155480 0.884847 0.171913
H16   H     H_    0.524443 0.281381 0.941788 0.086787
H17   H     H_    0.361938 0.234228 0.916528 0.146087
H18   H     H_    0.378724 0.607672 0.291764 0.112538
H19   H     H_    0.507795 0.734058 0.250313 0.181226
H20   H     H_    0.325314 0.768502 0.213010 0.135079
H21   H     H_    0.300073 0.732434 0.332754 0.196299
H22   H     H_    0.432343 0.859613 0.296040 0.174983
H23   H     H_    0.378593 0.806958 0.541144 0.121040
H24   H     H_    0.905915 0.889614 0.319705 0.139266
H25   H     H_    0.858148 0.883656 0.428664 0.155736
H26   H     H_    0.775951 0.027972 0.348742 0.172669
H27   H     H_    0.939058 0.081045 0.351755 0.138063
H28   H     H_    0.840372 0.037907 0.247258 0.207473
H29   H     H_    0.656966 0.137423 0.028307 0.128196
H30   H     H_    0.671875 0.241672 0.097809 0.131153
H31   H     H_    0.644123 0.096397 0.236480 0.154593
H32   H     H_    0.517694 0.047043 0.147582 0.108288
H33   H     H_    0.630501 0.990882 0.168971 0.180462
H34   H     H_    0.555298 0.835647 0.536374 0.149796
H35   H     H_    0.785432 0.283090 0.680205 0.148838
H36   H     H_    0.728235 0.268349 0.786734 0.105301
H37   H     H_    0.732847 0.077051 0.832722 0.144927
H38   H     H_    0.640696 0.083593 0.723374 0.101072
H39   H     H_    0.791911 0.093820 0.727071 0.191375
H40   H     H_    0.236928 0.676318 0.707840 0.134231
H41   H     H_    0.264752 0.713137 0.822656 0.114891
H42   H     H_    0.308644 0.911900 0.764462 0.196610
H43   H     H_    0.392717 0.870645 0.705871 0.073913
H44   H     H_    0.254419 0.881445 0.647818 0.193057
H45   H     H_    0.768433 0.894821 0.576342 0.163323
H46   H     H_    0.665768 0.283357 0.370935 0.155281
H47   H     H_    0.533768 0.277168 0.652654 0.140722
H48   H     H_    0.918634 0.320089 0.244449 0.149170
H49   H     H_    0.327132 0.557503 0.443822 0.193983
N1    N     N_R   0.246280 0.438190 0.553160 -0.267292
N2    N     N_R   0.754320 0.561190 0.447410 -0.279461
O1    O     O_R   0.972510 0.318130 0.526570 -0.399041
O2    O     O_3   0.364952 0.262364 0.730689 -0.551247
O3    O     O_3   0.501807 0.702173 0.393672 -0.570622
O4    O     O_3   0.718540 0.817351 0.321314 -0.562527
O5    O     O_3   0.815628 0.192292 0.120919 -0.584655
O6    O     O_3   0.910068 0.290459 0.794553 -0.579316
O7    O     O_3   0.100985 0.706622 0.742185 -0.499312
O8    O     O_R   0.806530 0.359650 0.490890 -0.554847
O9    O     O_R   0.082980 0.479210 0.647590 -0.491351
O10   O     O_R   0.917000 0.520730 0.611900 -0.501051
O11   O     O_R   0.193470 0.640350 0.509110 -0.527891
O12   O     O_R   0.027490 0.681870 0.473430 -0.487298
O13   O     O_R   0.083000 0.479270 0.388100 -0.514216
O14   O     O_R   0.917020 0.520790 0.352410 -0.481843
O15   O     O_3   0.152591 0.303082 0.677435 -0.460069

loop_
_geom_bond_atom_site_label_1
_geom_bond_atom_site_label_2
_ccdc_geom_bond_type
C13   C18   A    
C34   H4    S    
C38   C39   A    
C16   O12   A    
C49   H25   S    
C32   C33   A    
C44   H14   S    
C22   O2    S    
C48   H20   S    
C43   H11   S    
Cu2   O14   S    
C47   H19   S    
C44   C46   S    
C42   C43   S    
C7    C19   A    
C54   H37   S    
C26   O3    S    
C55   O7    S    
C59   C60   A    
C29   C33   A    
C17   H1    S    
C25   C26   A    
C53   H36   S    
C28   O14   A    
C2    C3    A    
C1    C21   S    
C41   C56   A    
C55   C57   S    
C8    C21   A    
C53   C54   S    
C1    O8    A    
C42   H8    S    
C31   C32   A    
Cu2   O8    S    
C46   H16   S    
C57   H44   S    
Br1   C37   S    
C44   O2    S    
C14   C15   A    
C50   H26   S    
C23   O5    S    
C19   H23   S    
C57   H43   S    
C5    C58   A    
C24   N2    A    
C13   C21   A    
Cu1   N1    S    
C10   C11   A    
C42   H7    S    
C11   C14   A    
C49   H24   S    
Br2   C8    S    
C48   H21   S    
C9    H45   S    
C43   H10   S    
C18   H46   S    
C47   H18   S    
C47   C48   S    
C54   H38   S    
C2    C45   A    
C56   C58   A    
C50   H28   S    
C47   O3    S    
Cu2   O12   S    
C20   H6    S    
C25   O4    S    
C48   H22   S    
C6    C20   A    
C3    C5    A    
C2    O6    S    
C29   N2    A    
Cu1   O1    S    
C55   H41   S    
C53   O6    S    
C46   H17   S    
C10   H34   S    
C40   C41   A    
C26   C27   A    
C39   H48   S    
C60   H5    S    
C7    C16   S    
Cu1   O11   S    
C52   H32   S    
C50   H27   S    
C30   C31   A    
C23   C34   A    
C6    H12   S    
C4    O9    A    
C34   C45   A    
C51   H30   S    
C57   H42   S    
C49   O4    S    
C23   C40   A    
C51   O5    S    
C42   O15   S    
C36   N1    A    
Cu2   N2    S    
C11   C13   A    
C1    O1    A    
C39   C40   A    
C53   H35   S    
C43   H9    S    
C49   C50   S    
C45   C56   A    
Br3   C59   S    
C54   H39   S    
C51   C52   S    
C37   C38   A    
C28   C38   S    
C27   C30   A    
C17   C18   A    
C14   C19   A    
C52   H31   S    
C12   C41   A    
C8    C9    A    
C33   H3    S    
C5    O7    S    
C3    C4    S    
C7    C20   A    
Cu1   O13   S    
C22   C31   A    
C30   C35   A    
C46   H15   S    
C55   H40   S    
Cu2   O10   S    
C28   O13   A    
Cu1   Cu2   S    
C27   C29   A    
C35   N1    A    
C36   O15   S    
C35   H49   S    
C52   H33   S    
C16   O11   A    
C15   C17   A    
C4    O10   A    
C58   C59   A    
C12   C37   A    
C51   H29   S    
C24   H2    S    
C6    C15   A    
C9    C10   A    
Cu1   O9    S    
C24   C25   A    
C12   C60   A    
C44   H13   S    
C22   C36   A    
C32   H47   S    
