data_mof_unit_11810.cif
_audit_creation_date              2012-12-11T15:23:31-0500
_audit_creation_method            fapswitch 2.2
_symmetry_space_group_name_H-M    P1
_symmetry_Int_Tables_number       1
_space_group_crystal_system       triclinic
_cell_length_a                    6.938155
_cell_length_b                    17.498416
_cell_length_c                    19.271334
_cell_angle_alpha                 109.517701
_cell_angle_beta                  90.229393
_cell_angle_gamma                 90.537734
_cell_volume                      2205.06777418

loop_
_atom_site_label
_atom_site_type_symbol
_atom_type_description
_atom_site_fract_x
_atom_site_fract_y
_atom_site_fract_z
_atom_type_partial_charge
O1    O     O_R   0.505810 0.439670 0.562310 -0.539284
O2    O     O_R   0.169070 0.404920 0.411210 -0.540267
O3    O     O_R   0.005550 0.560330 0.437690 -0.539528
C1    C     C_R   0.338347 0.381411 0.383004 0.677259
O4    O     O_R   0.175650 0.430000 0.560110 -0.542508
O5    O     O_R   0.012170 0.585580 0.587650 -0.538085
C2    C     C_R   0.344595 0.414684 0.581606 0.708678
O6    O     O_R   0.499180 0.414420 0.412350 -0.537877
O7    O     O_3   0.341430 0.551020 0.508860 -0.368696
V1    V     V_3+5 0.063930 0.490540 0.498360 1.397882
O8    O     O_R   0.682850 0.595080 0.588790 -0.542247
C3    C     C_R   0.852719 0.618383 0.616894 0.679604
O9    O     O_R   0.676280 0.570000 0.439890 -0.542237
C4    C     C_R   0.845164 0.585236 0.418326 0.709817
V2    V     V_3+5 0.564760 0.509460 0.501640 1.398351
O10   O     O_3   0.837130 0.448980 0.491140 -0.368701
C5    C     C_R   0.068721 0.865668 0.178850 -0.225057
C6    C     C_R   0.914754 0.865144 0.130869 -0.083815
C7    C     C_R   0.749111 0.818011 0.130862 -0.223425
C8    C     C_R   0.737377 0.771237 0.177475 0.089563
C9    C     C_R   0.891249 0.773019 0.226140 0.052651
C10   C     C_R   0.056985 0.820792 0.227099 0.090937
C11   C     C_R   0.574482 0.722621 0.176291 -0.191339
C12   C     C_R   0.562826 0.676947 0.223542 -0.185133
C13   C     C_R   0.713544 0.679237 0.273025 0.090939
C14   C     C_R   0.879266 0.727021 0.273989 0.052654
C15   C     C_R   0.033144 0.728804 0.322652 0.089552
C16   C     C_R   0.196036 0.777421 0.323838 -0.191327
C17   C     C_R   0.207698 0.823087 0.276583 -0.185138
C18   C     C_R   0.701844 0.634337 0.321259 -0.225048
C19   C     C_R   0.855838 0.634858 0.369229 -0.083910
C20   C     C_R   0.021441 0.682019 0.369251 -0.223376
H1    H     H_    0.196219 0.902285 0.179654 0.121392
H2    H     H_    0.630166 0.816942 0.093867 0.126573
H3    H     H_    0.455280 0.720295 0.139104 0.133353
H4    H     H_    0.435041 0.640217 0.221719 0.133941
H5    H     H_    0.574375 0.597700 0.320445 0.121430
H6    H     H_    0.140402 0.683090 0.406241 0.126653
H7    H     H_    0.315239 0.779746 0.361025 0.133357
H8    H     H_    0.335490 0.859810 0.278401 0.133937
C21   C     C_3   0.811725 0.816850 0.741435 -0.140976
C22   C     C_3   0.981072 0.767439 0.696677 -0.139653
H9    H     H_    0.059416 0.781381 0.652153 0.101962
H10   H     H_    0.751209 0.872582 0.734898 0.099863
C23   C     C_3   0.867581 0.688635 0.687594 -0.007122
C24   C     C_3   0.698071 0.737209 0.731524 -0.116044
C25   C     C_3   0.789979 0.732487 0.803372 -0.139660
C26   C     C_3   0.959327 0.683076 0.758614 -0.140985
C27   C     C_3   0.072980 0.762717 0.768525 -0.116043
C28   C     C_3   0.903471 0.811292 0.812454 -0.007112
H11   H     H_    0.543630 0.726303 0.715742 0.106275
H12   H     H_    0.711635 0.718545 0.847896 0.101927
H13   H     H_    0.019842 0.627344 0.765151 0.099832
H14   H     H_    0.227421 0.773623 0.784307 0.106268
C29   C     C_3   0.482602 0.236497 0.304894 -0.131802
C30   C     C_3   0.322147 0.180785 0.257593 -0.137580
H15   H     H_    0.270826 0.123085 0.263676 0.098860
H16   H     H_    0.561828 0.225361 0.350701 0.101612
C31   C     C_3   0.414709 0.189251 0.187812 -0.011526
C32   C     C_3   0.574967 0.244199 0.234349 -0.118808
C33   C     C_3   0.448946 0.319338 0.242321 -0.137569
C34   C     C_3   0.288490 0.263625 0.195018 -0.131752
C35   C     C_3   0.196126 0.255923 0.265565 -0.118808
C36   C     C_3   0.356383 0.310872 0.312101 -0.011576
H17   H     H_    0.730415 0.239095 0.220680 0.102935
H18   H     H_    0.500266 0.377040 0.236239 0.098915
H19   H     H_    0.209264 0.274759 0.149211 0.101678
H20   H     H_    0.040678 0.261026 0.279233 0.102933
C37   C     C_R   0.568770 0.134986 0.821203 -0.225725
C38   C     C_R   0.416704 0.135269 0.869446 -0.083687
C39   C     C_R   0.252659 0.182190 0.869712 -0.222326
C40   C     C_R   0.240428 0.228819 0.823019 0.089214
C41   C     C_R   0.392152 0.227185 0.774016 0.052599
C42   C     C_R   0.556408 0.179748 0.772856 0.091344
C43   C     C_R   0.079014 0.277069 0.824396 -0.192142
C44   C     C_R   0.066687 0.322542 0.777012 -0.184676
C45   C     C_R   0.215178 0.320396 0.727166 0.091350
C46   C     C_R   0.379442 0.272964 0.726007 0.052608
C47   C     C_R   0.531160 0.271329 0.677001 0.089262
C48   C     C_R   0.692580 0.223082 0.675628 -0.192162
C49   C     C_R   0.704905 0.177607 0.723012 -0.184658
C50   C     C_R   0.202786 0.365140 0.678807 -0.225677
C51   C     C_R   0.354824 0.364846 0.630551 -0.083881
C52   C     C_R   0.518901 0.317945 0.630295 -0.222425
H21   H     H_    0.694988 0.098561 0.820193 0.121551
H22   H     H_    0.135158 0.183105 0.906901 0.126830
H23   H     H_    0.961437 0.279249 0.861834 0.133263
H24   H     H_    0.940083 0.358995 0.779016 0.134234
H25   H     H_    0.076548 0.401553 0.679813 0.121515
H26   H     H_    0.636385 0.317027 0.593098 0.126717
H27   H     H_    0.810155 0.220902 0.638190 0.133260
H28   H     H_    0.831505 0.141151 0.721007 0.134250
O11   O     O_R   0.271890 0.085690 0.087580 -0.537930
O12   O     O_R   0.595690 0.070020 0.939870 -0.542439
O13   O     O_R   0.758900 0.914390 0.912370 -0.538086
C53   C     C_R   0.426807 0.085390 0.918358 0.708968
O14   O     O_R   0.602020 0.095100 0.088770 -0.540253
O15   O     O_R   0.765280 0.939660 0.062330 -0.539545
C54   C     C_R   0.432735 0.118681 0.116931 0.677246
O16   O     O_R   0.265520 0.060430 0.937620 -0.539509
O17   O     O_3   0.429560 0.949050 0.991100 -0.368740
V3    V     V_3+5 0.707160 0.009450 0.001650 1.397931
O18   O     O_R   0.094540 0.929890 0.060190 -0.542541
C55   C     C_R   0.925579 0.914720 0.081735 0.709559
O19   O     O_R   0.088200 0.904800 0.911290 -0.542310
C56   C     C_R   0.918339 0.881545 0.883154 0.679586
V4    V     V_3+5 0.206300 0.990390 0.998440 1.398463
O20   O     O_3   0.934030 0.050940 0.008900 -0.368609

loop_
_geom_bond_atom_site_label_1
_geom_bond_atom_site_label_2
_ccdc_geom_bond_type
O17   V4    S    
C2    C51   S    
C9    C14   A    
O17   V3    S    
C10   C17   A    
C31   C54   S    
C21   C22   S    
O2    C1    A    
C7    C8    A    
C4    C19   S    
C1    O6    A    
C23   C24   S    
O19   V4    S    
C14   C15   A    
C12   H4    S    
C50   H25   S    
C5    H1    S    
C34   H19   S    
C51   C52   A    
C16   C17   A    
O5    C3    A    
C47   C52   A    
V2    O10   S    
C30   H15   S    
C6    C7    A    
C41   C42   A    
O9    C4    A    
C35   H20   S    
C49   H28   S    
O8    V2    S    
C33   H18   S    
C19   C20   A    
C31   C34   S    
C21   C24   S    
V3    O20   S    
C38   C39   A    
O1    V2    S    
C20   H6    S    
O7    V1    S    
O11   C54   A    
O14   V3    S    
O13   V3    S    
C45   C46   A    
C31   C32   S    
C29   C32   S    
C37   C38   A    
C52   H26   S    
C40   C43   A    
O14   C54   A    
C25   C28   S    
C26   H13   S    
C12   C13   A    
O4    C2    A    
C46   C47   A    
C40   C41   A    
C22   C27   S    
C16   H7    S    
C13   C14   A    
O15   V3    S    
C24   H11   S    
C47   C48   A    
C18   H5    S    
C32   C33   S    
C22   C23   S    
C33   C36   S    
C38   C53   S    
C43   C44   A    
C34   C35   S    
O13   C56   A    
C39   H22   S    
C25   C26   S    
C8    C11   A    
C41   C46   A    
C29   C36   S    
C29   C30   S    
C5    C6    A    
C30   C35   S    
C37   C42   A    
C6    C55   S    
C44   C45   A    
O12   C53   A    
O3    C4    A    
C43   H23   S    
C26   C27   S    
C32   H17   S    
C50   C51   A    
O6    V2    S    
C11   H3    S    
O9    V2    S    
C21   H10   S    
C22   H9    S    
V4    O20   S    
O2    V1    S    
C21   C28   S    
O18   C55   A    
C37   H21   S    
C23   C26   S    
C13   C18   A    
C44   H24   S    
C24   C25   S    
O16   V4    S    
C15   C20   A    
O1    C2    A    
C48   C49   A    
C7    H2    S    
O5    V1    S    
O8    C3    A    
C25   H12   S    
C3    C23   S    
O19   C56   A    
C1    C36   S    
C5    C10   A    
C30   C31   S    
C48   H27   S    
O7    V2    S    
O4    V1    S    
O3    V1    S    
V1    O10   S    
O11   V4    S    
C18   C19   A    
C45   C50   A    
O15   C55   A    
C53   O16   A    
C17   H8    S    
C33   C34   S    
C11   C12   A    
C35   C36   S    
C39   C40   A    
C8    C9    A    
O12   V3    S    
C27   C28   S    
C29   H16   S    
C15   C16   A    
C28   C56   S    
O18   V4    S    
C42   C49   A    
C9    C10   A    
C27   H14   S    
