data_mof_unit_42713.cif
_audit_creation_date              2012-12-10T18:05:14-0500
_audit_creation_method            fapswitch 2.2
_symmetry_space_group_name_H-M    P1
_symmetry_Int_Tables_number       1
_space_group_crystal_system       triclinic
_cell_length_a                    9.601702
_cell_length_b                    10.835474
_cell_length_c                    17.092966
_cell_angle_alpha                 85.81056
_cell_angle_beta                  94.500715
_cell_angle_gamma                 89.568597
_cell_volume                      1767.95677415

loop_
_atom_site_label
_atom_site_type_symbol
_atom_type_description
_atom_site_fract_x
_atom_site_fract_y
_atom_site_fract_z
_atom_type_partial_charge
C1    C     C_R   0.500223 0.262365 0.499534 0.810029
C2    C     C_R   0.499779 0.737631 0.500499 0.810045
C3    C     C_R   0.373247 0.938040 0.491480 -0.145799
C4    C     C_R   0.626744 0.061944 0.508664 -0.146361
C5    C     C_R   0.499668 0.871540 0.501168 -0.056241
C6    C     C_R   0.500327 0.128447 0.498940 -0.056390
C7    C     C_R   0.082485 0.415751 0.547885 0.084737
C8    C     C_R   0.917524 0.584320 0.452157 0.084699
C9    C     C_R   0.933348 0.412605 0.546113 0.086398
C10   C     C_R   0.066666 0.587390 0.453876 0.086121
C11   C     C_R   0.517897 0.503652 0.651126 0.828112
C12   C     C_R   0.482061 0.496455 0.348843 0.828731
C13   C     C_R   0.526029 0.505700 0.738474 -0.120372
C14   C     C_R   0.473567 0.495198 0.261412 -0.119950
C15   C     C_R   0.407377 0.545708 0.774967 0.022989
C16   C     C_R   0.592709 0.457598 0.224406 0.021442
C17   C     C_R   0.396392 0.514875 0.855590 -0.112617
C18   C     C_R   0.602585 0.489643 0.143795 -0.111578
C19   C     C_R   0.512784 0.462921 0.902656 0.315879
C20   C     C_R   0.484743 0.539905 0.097205 0.316581
C21   C     C_R   0.632391 0.427473 0.867587 0.087925
C22   C     C_R   0.364761 0.572998 0.132753 0.085918
C23   C     C_R   0.642334 0.453152 0.786496 -0.112854
C24   C     C_R   0.355872 0.546198 0.213830 -0.112434
C25   C     C_R   0.373567 0.065879 0.489614 -0.076704
C26   C     C_R   0.626421 0.934104 0.510541 -0.076999
Cu1   Cu    Cu3+1 0.640660 0.500020 0.500000 0.994267
Cu2   Cu    Cu3+1 0.359340 0.499980 0.500000 0.994472
H1    H     H_    0.274594 0.115324 0.480480 0.212663
H2    H     H_    0.725388 0.884658 0.519709 0.212621
H3    H     H_    0.274217 0.891732 0.485101 0.210020
H4    H     H_    0.725774 0.108250 0.515053 0.209692
N1    N     N_2   0.514927 0.452157 0.986024 -0.161303
N2    N     N_2   0.481743 0.550844 0.013818 -0.161655
N3    N     N_R   0.852070 0.500030 0.499980 -0.242653
N4    N     N_R   0.147930 0.499970 0.500020 -0.242308
O1    O     O_R   0.618740 0.319660 0.500000 -0.608091
O2    O     O_R   0.381260 0.680340 0.500000 -0.607511
O3    O     O_R   0.381170 0.319630 0.500010 -0.553766
O4    O     O_R   0.618830 0.680370 0.499990 -0.554312
O5    O     O_R   0.631780 0.498870 0.613920 -0.575965
O6    O     O_R   0.368220 0.501130 0.386080 -0.576336
O7    O     O_R   0.394210 0.498840 0.613930 -0.588885
O8    O     O_R   0.605790 0.501160 0.386070 -0.588602
I1    I     I_    0.753269 0.339575 0.286598 -0.273359
I2    I     I_    0.248730 0.664649 0.711781 -0.273949
C27   C     C_2   0.739625 0.481633 0.109805 0.485154
H5    H     H_    0.814350 0.408553 0.129776 0.126802
O9    O     O_2   0.772687 0.560474 0.060133 -0.475678
C28   C     C_2   0.259299 0.525634 0.889030 0.488031
H6    H     H_    0.187855 0.601648 0.869967 0.125914
O10   O     O_2   0.222569 0.445996 0.937143 -0.475217
I3    I     I_    0.799192 0.332927 0.938728 -0.189793
I4    I     I_    0.195782 0.665777 0.062436 -0.191535
C29   C     C_2   0.778364 0.429839 0.755188 0.415932
H7    H     H_    0.826309 0.338367 0.763650 0.084071
O11   O     O_2   0.841836 0.514669 0.723836 -0.505467
C30   C     C_2   0.219408 0.566356 0.245503 0.415876
H8    H     H_    0.168882 0.656762 0.237181 0.082855
O12   O     O_2   0.158511 0.480037 0.277035 -0.504095
C31   C     C_2   0.166976 0.338192 0.608856 0.532490
H9    H     H_    0.197380 0.374743 0.664959 0.064918
O13   O     O_2   0.197038 0.231332 0.598612 -0.512329
C32   C     C_2   0.833014 0.662174 0.391345 0.531781
H10   H     H_    0.802267 0.625851 0.335224 0.064126
O14   O     O_2   0.803346 0.769065 0.401732 -0.512163
C33   C     C_2   0.866527 0.311283 0.592665 0.372648
H11   H     H_    0.768837 0.324583 0.617249 0.111685
O15   O     O_2   0.918865 0.207812 0.602697 -0.532130
C34   C     C_2   0.133520 0.688643 0.407271 0.369883
H12   H     H_    0.231059 0.675227 0.382542 0.111327
O16   O     O_2   0.081382 0.792198 0.397351 -0.531434

loop_
_geom_bond_atom_site_label_1
_geom_bond_atom_site_label_2
_ccdc_geom_bond_type
C16   I1    S    
C17   C28   S    
C4    C26   A    
C29   H7    S    
C9    C33   S    
C23   C29   S    
C34   H12   S    
C14   C16   A    
C1    O1    A    
C5    C26   A    
C11   C13   S    
C7    N4    A    
Cu1   O5    S    
Cu2   O7    S    
C28   O10   D    
C27   H5    S    
Cu2   O3    S    
Cu2   O2    S    
Cu1   O4    S    
C3    H3    S    
C20   N2    S    
C18   C27   S    
C3    C5    A    
C13   C15   A    
N1    N2    D    
C20   C22   A    
C27   O9    D    
C31   O13   D    
C32   H10   S    
C21   I3    S    
C22   I4    S    
Cu2   N4    S    
C4    H4    S    
C8    C32   S    
C10   C34   S    
Cu2   O6    S    
C19   C21   A    
C12   O8    A    
Cu1   O1    S    
C26   H2    S    
C18   C20   A    
C29   O11   D    
C21   C23   A    
C25   H1    S    
C31   H9    S    
C22   C24   A    
C11   O7    A    
C6    C25   A    
C34   O16   D    
C1    O3    A    
C33   O15   D    
C30   O12   D    
C33   H11   S    
C2    C5    S    
C24   C30   S    
C2    O4    A    
C3    C25   A    
C13   C23   A    
C16   C18   A    
C4    C6    A    
C19   N1    S    
C11   O5    A    
C14   C24   A    
Cu1   Cu2   S    
C15   C17   A    
C2    O2    A    
C17   C19   A    
C9    N3    A    
C12   O6    A    
C28   H6    S    
C15   I2    S    
Cu1   N3    S    
C30   H8    S    
Cu1   O8    S    
C8    N3    A    
C8    C10   A    
C7    C31   S    
C1    C6    S    
C12   C14   S    
C10   N4    A    
C7    C9    A    
C32   O14   D    
