data_mof_unit_50921.cif
_audit_creation_date              2012-12-10T17:06:43-0500
_audit_creation_method            fapswitch 2.2
_symmetry_space_group_name_H-M    P1
_symmetry_Int_Tables_number       1
_space_group_crystal_system       triclinic
_cell_length_a                    15.870079
_cell_length_b                    10.80447
_cell_length_c                    9.845261
_cell_angle_alpha                 109.948053
_cell_angle_beta                  99.371143
_cell_angle_gamma                 90.754521
_cell_volume                      1561.37877136

loop_
_atom_site_label
_atom_site_type_symbol
_atom_type_description
_atom_site_fract_x
_atom_site_fract_y
_atom_site_fract_z
_atom_type_partial_charge
C1    C     C_R   0.491183 0.252716 0.442321 0.913237
C2    C     C_R   0.502335 0.747031 0.557446 0.720963
C3    C     C_2   0.434031 0.066217 0.498414 0.032587
C4    C     C_2   0.434390 0.928145 0.494217 -0.134595
C5    C     C_2   0.505676 0.513594 0.081600 0.133449
C6    C     C_2   0.490077 0.493190 0.919651 0.153660
C7    C     C_R   0.339941 0.500660 0.499943 0.842620
C8    C     C_R   0.660123 0.500225 0.500244 0.818609
C9    C     C_3   0.979246 0.423679 0.577098 -0.401727
C10   C     C_3   0.021231 0.577241 0.424611 -0.413989
C11   C     C_3   0.019288 0.375997 0.436243 -0.068140
C12   C     C_3   0.981219 0.624938 0.565489 -0.062896
C13   C     C_1   0.250368 0.500461 0.499301 -0.117823
C14   C     C_1   0.749808 0.500557 0.501091 -0.123359
C15   C     C_3   0.043371 0.547602 0.636898 0.465376
C16   C     C_3   0.957162 0.453300 0.364784 0.464374
C17   C     C_3   0.083228 0.499150 0.497717 0.049462
C18   C     C_3   0.917194 0.501764 0.503888 0.049523
C19   C     C_1   0.174854 0.499939 0.498445 0.083253
C20   C     C_1   0.825427 0.501053 0.502499 0.092439
C21   C     C_2   0.480229 0.110055 0.415980 -0.156569
C22   C     C_2   0.495720 0.888831 0.582941 -0.254486
Cu1   Cu    Cu3+1 0.514700 0.521810 0.644910 1.010066
Cu2   Cu    Cu3+1 0.485300 0.478190 0.355090 0.999723
H1    H     H_    0.961120 0.361337 0.638544 0.157093
H2    H     H_    0.039376 0.639533 0.363121 0.157020
H3    H     H_    0.434103 0.431986 0.849508 0.148389
H4    H     H_    0.550107 0.594459 0.156200 0.123079
N1    N     N_2   0.463210 0.445420 0.137360 -0.036517
N2    N     N_2   0.536790 0.554580 0.862640 -0.041020
O1    O     O_R   0.507840 0.332340 0.577400 -0.551303
O2    O     O_R   0.492160 0.667660 0.422600 -0.602781
O3    O     O_R   0.483020 0.295500 0.332650 -0.532325
O4    O     O_R   0.516980 0.704500 0.667350 -0.610059
O5    O     O_R   0.391490 0.518400 0.622350 -0.565215
O6    O     O_R   0.608510 0.481600 0.377650 -0.557545
O7    O     O_R   0.366660 0.481570 0.377600 -0.639493
O8    O     O_R   0.633340 0.518430 0.622400 -0.561940
C23   C     C_2   0.038192 0.235891 0.362237 0.379096
H5    H     H_    0.986546 0.158655 0.322298 0.084922
O9    O     O_2   0.111037 0.207922 0.346285 -0.520900
C24   C     C_2   0.962513 0.765076 0.639733 0.369768
H6    H     H_    0.014206 0.842226 0.679261 0.087506
O10   O     O_2   0.889783 0.793165 0.656395 -0.555211
O11   O     O_3   0.905753 0.400325 0.223976 -0.565005
C25   C     C_3   0.955843 0.392187 0.115764 0.051597
H7    H     H_    0.015260 0.341334 0.132006 0.150021
H8    H     H_    0.973177 0.492637 0.117053 0.143336
C26   C     C_3   0.903992 0.313962 0.965444 -0.729746
H9    H     H_    0.845697 0.364735 0.943223 0.264638
H10   H     H_    0.943123 0.305242 0.879290 0.180309
H11   H     H_    0.884711 0.213323 0.961201 0.261316
O12   O     O_3   0.095363 0.600310 0.777223 -0.573512
C27   C     C_3   0.045972 0.608622 0.886350 0.036445
H12   H     H_    0.027224 0.508171 0.883515 0.144104
H13   H     H_    0.987471 0.662073 0.872541 0.157911
C28   C     C_3   0.099432 0.683509 0.036381 -0.711660
H14   H     H_    0.120240 0.784034 0.042234 0.273467
H15   H     H_    0.060905 0.692589 0.123404 0.180547
H16   H     H_    0.156850 0.630024 0.055977 0.250811
C29   C     C_2   0.360737 0.837088 0.395257 0.360822
H17   H     H_    0.345124 0.743801 0.407095 0.080073
O13   O     O_2   0.315226 0.867406 0.300647 -0.536594
C30   C     C_2   0.375936 0.148153 0.590996 0.464117
H18   H     H_    0.360395 0.122440 0.681635 0.083819
O14   O     O_2   0.341033 0.238283 0.562127 -0.564639
C31   C     C_2   0.561041 0.981282 0.702000 0.400375
H19   H     H_    0.613178 0.941404 0.756316 0.069288
O15   O     O_2   0.557281 0.100864 0.742889 -0.515894
C32   C     C_2   0.525072 0.017716 0.305267 0.350762
H20   H     H_    0.517558 0.911879 0.280327 0.089770
O16   O     O_2   0.571245 0.059384 0.240189 -0.533651
O17   O     O_3   0.614695 0.603005 0.944581 -0.503502
C33   C     C_3   0.629860 0.731688 0.944894 0.191844
H21   H     H_    0.571227 0.787681 0.954190 0.151344
H22   H     H_    0.654174 0.728145 0.844324 0.175872
C34   C     C_3   0.698230 0.806163 0.076599 -0.791500
H23   H     H_    0.758426 0.754804 0.070337 0.251125
H24   H     H_    0.711222 0.907868 0.077925 0.235630
H25   H     H_    0.676051 0.811948 0.179826 0.251861
O18   O     O_3   0.420928 0.332999 0.038929 -0.495687
C35   C     C_3   0.339347 0.321973 0.074040 0.229453
H26   H     H_    0.310638 0.419156 0.107606 0.135174
H27   H     H_    0.343193 0.278006 0.161301 0.196569
C36   C     C_3   0.279458 0.230076 0.939587 -0.858148
H28   H     H_    0.304603 0.130832 0.902932 0.256897
H29   H     H_    0.215111 0.220226 0.967023 0.219635
H30   H     H_    0.273187 0.270909 0.849356 0.262284

loop_
_geom_bond_atom_site_label_1
_geom_bond_atom_site_label_2
_ccdc_geom_bond_type
C1    C21   S    
O17   C33   S    
O18   C35   S    
C1    O3    A    
C23   O9    D    
C34   H23   S    
C25   C26   S    
Cu2   O6    S    
C33   H22   S    
C15   O12   S    
C8    O8    A    
C36   H28   S    
C5    C6    S    
C28   H15   S    
C10   C17   S    
C1    O1    A    
C2    O2    A    
C8    O6    A    
C29   O13   D    
Cu2   N1    S    
C12   C24   S    
C25   H7    S    
C26   H10   S    
C33   C34   S    
C2    C22   S    
Cu1   Cu2   S    
C32   H20   S    
C10   H2    S    
C34   H24   S    
C24   O10   D    
C5    N1    D    
C36   H29   S    
C27   H13   S    
C33   H21   S    
C13   C19   T    
C9    H1    S    
C31   H19   S    
Cu1   N2    S    
C14   C20   T    
C23   H5    S    
N2    O17   S    
C28   H16   S    
C3    C30   S    
C4    C29   S    
C31   O15   D    
C30   O14   D    
Cu2   O2    S    
N1    O18   S    
C5    H4    S    
C4    C22   D    
C11   C16   S    
C6    H3    S    
C12   C15   S    
Cu1   O4    S    
Cu2   O7    S    
C7    O7    A    
C11   C23   S    
C9    C11   S    
C10   C12   S    
C6    N2    D    
C35   H26   S    
C35   H27   S    
C3    C21   D    
C24   H6    S    
C3    C4    S    
C35   C36   S    
C36   H30   S    
C34   H25   S    
C15   C17   S    
C27   H12   S    
C11   C17   S    
C8    C14   S    
C7    O5    A    
C26   H11   S    
C16   O11   S    
O12   C27   S    
Cu1   O8    S    
Cu1   O5    S    
Cu2   O3    S    
C21   C32   S    
C30   H18   S    
C9    C15   S    
C10   C16   S    
C2    O4    A    
C28   H14   S    
C17   C19   S    
C18   C20   S    
C29   H17   S    
C22   C31   S    
C25   H8    S    
O11   C25   S    
C9    C18   S    
C7    C13   S    
C16   C18   S    
C26   H9    S    
C12   C18   S    
C32   O16   D    
Cu1   O1    S    
C27   C28   S    
