data_mof_unit_33392.cif
_audit_creation_date              2012-12-10T20:28:00-0500
_audit_creation_method            fapswitch 2.2
_symmetry_space_group_name_H-M    P1
_symmetry_Int_Tables_number       1
_space_group_crystal_system       triclinic
_cell_length_a                    18.711198
_cell_length_b                    18.526733
_cell_length_c                    18.982415
_cell_angle_alpha                 109.499176
_cell_angle_beta                  109.531664
_cell_angle_gamma                 108.841974
_cell_volume                      5098.94466585

loop_
_atom_site_label
_atom_site_type_symbol
_atom_type_description
_atom_site_fract_x
_atom_site_fract_y
_atom_site_fract_z
_atom_type_partial_charge
C1    C     C_R   0.381401 0.501394 0.381182 0.855353
C2    C     C_R   0.764777 0.805719 0.819011 -0.149986
C3    C     C_R   0.074592 0.255964 0.755792 -0.007087
C4    C     C_R   0.786315 0.193035 0.761826 -0.068763
C5    C     C_R   0.708373 0.190747 0.753556 -0.129554
C6    C     C_R   0.676507 0.235049 0.716138 -0.117066
C7    C     C_R   0.722598 0.281749 0.687014 -0.117660
C8    C     C_R   0.800891 0.284742 0.695775 -0.179041
C9    C     C_R   0.832948 0.240115 0.732983 0.078268
C10   C     C_R   0.820072 0.824080 0.575951 -0.228055
C11   C     C_R   0.813763 0.811013 0.496975 -0.060582
C12   C     C_R   0.742541 0.737507 0.418949 0.011061
C13   C     C_R   0.680259 0.675489 0.422331 -0.260925
C14   C     C_R   0.686637 0.688147 0.501390 -0.074405
C15   C     C_R   0.755016 0.764918 0.579046 -0.030574
C16   C     C_R   0.661018 0.715451 0.271966 -0.189965
C17   C     C_R   0.651589 0.698892 0.190939 -0.283276
C18   C     C_R   0.713631 0.685459 0.169352 0.581478
C19   C     C_R   0.620101 0.620725 0.500274 0.859762
C20   C     C_R   0.784777 0.690938 0.231550 -0.173334
C21   C     C_R   0.795033 0.709516 0.312996 -0.251777
C22   C     C_R   0.733210 0.721529 0.333690 0.136999
C23   C     C_R   0.444048 0.810849 0.513885 -0.154837
C24   C     C_R   0.376325 0.727059 0.447858 -0.133177
C25   C     C_R   0.392822 0.669085 0.394453 0.125603
C26   C     C_R   0.477644 0.696233 0.407451 -0.142571
C27   C     C_R   0.545044 0.780323 0.473159 -0.122040
C28   C     C_R   0.528321 0.837500 0.526460 -0.100463
C29   C     C_R   0.255768 0.578140 0.256400 -0.231848
C30   C     C_R   0.619157 0.498679 0.618809 0.955704
C31   C     C_R   0.187788 0.497177 0.185941 -0.075191
C32   C     C_R   0.182058 0.417592 0.180433 0.027069
C33   C     C_R   0.246928 0.421408 0.246460 -0.211230
C34   C     C_R   0.315720 0.502423 0.316265 -0.043402
C35   C     C_R   0.320389 0.581821 0.322437 0.033814
C36   C     C_R   0.059834 0.268095 0.120267 -0.270287
C37   C     C_R   0.994420 0.184144 0.051311 0.049763
C38   C     C_R   0.980910 0.162363 0.967864 -0.080388
C39   C     C_R   0.032457 0.223592 0.953937 -0.175881
C40   C     C_R   0.097421 0.307160 0.022767 -0.121294
C41   C     C_R   0.378033 0.379749 0.498175 0.872908
C42   C     C_R   0.111315 0.330140 0.106422 0.132137
C43   C     C_R   0.248463 0.543169 0.610342 -0.210283
C44   C     C_R   0.255278 0.467901 0.600284 -0.144065
C45   C     C_R   0.237652 0.407013 0.520323 0.066960
C46   C     C_R   0.211822 0.421410 0.450143 -0.213198
C47   C     C_R   0.201273 0.494865 0.458941 0.553843
C48   C     C_R   0.222031 0.557088 0.540275 -0.243343
C49   C     C_R   0.182651 0.262369 0.510805 -0.258590
C50   C     C_R   0.186429 0.185791 0.499987 -0.069394
C51   C     C_R   0.252638 0.172886 0.488748 -0.031067
C52   C     C_R   0.763647 0.868773 0.794734 -0.087637
C53   C     C_R   0.313845 0.236909 0.486407 -0.263062
C54   C     C_R   0.310345 0.313661 0.497031 -0.082465
C55   C     C_R   0.244695 0.327327 0.509919 0.021096
C56   C     C_R   0.301532 0.078691 0.534887 -0.108000
C57   C     C_R   0.306951 0.001760 0.516502 -0.165892
C58   C     C_R   0.264718 0.934888 0.431358 -0.174566
C59   C     C_R   0.216342 0.944374 0.364325 -0.100574
C60   C     C_R   0.209644 0.021215 0.381708 0.023682
C61   C     C_R   0.253081 0.088885 0.468072 0.026805
C62   C     C_2   0.738223 0.478380 0.809596 -0.265177
C63   C     C_R   0.760697 0.858045 0.716576 0.014635
C64   C     C_2   0.819794 0.509113 0.824112 -0.407192
C65   C     C_2   0.673792 0.486470 0.747409 0.497550
C66   C     C_2   0.682204 0.492189 0.681665 -0.486661
C67   C     C_R   0.000728 0.878598 0.381320 0.879135
C68   C     C_R   0.879969 0.877945 0.498068 0.932301
C69   C     C_R   0.997402 0.118809 0.619083 0.960095
C70   C     C_R   0.120118 0.119796 0.499713 0.884731
C71   C     C_R   0.000709 0.379859 0.881187 0.894044
C72   C     C_R   0.122369 0.498288 0.120971 0.855603
C73   C     C_R   0.002843 0.620412 0.122357 0.884588
C74   C     C_R   0.761686 0.783269 0.664010 0.021626
C75   C     C_R   0.883875 0.501961 0.885121 0.979045
C76   C     C_R   0.131108 0.783338 0.555772 -0.169095
C77   C     C_R   0.115066 0.795379 0.484279 -0.093063
C78   C     C_R   0.034978 0.737980 0.407589 0.134271
C79   C     C_R   0.973327 0.665444 0.402210 -0.205484
C80   C     C_R   0.989496 0.653560 0.473801 -0.140648
C81   C     C_R   0.068176 0.712722 0.550683 -0.116810
C82   C     C_R   0.016936 0.683104 0.263054 -0.273357
C83   C     C_R   0.004383 0.687536 0.188588 -0.087737
C84   C     C_R   0.994447 0.755813 0.178545 0.034940
C85   C     C_R   0.765473 0.722182 0.690999 -0.078943
C86   C     C_R   0.992167 0.817118 0.242495 -0.186952
C87   C     C_R   0.004865 0.813311 0.317860 -0.115877
C88   C     C_R   0.019753 0.746752 0.329697 -0.003778
C89   C     C_R   0.054274 0.801213 0.091810 -0.176847
C90   C     C_R   0.042905 0.802054 0.015126 0.380239
C91   C     C_R   0.958127 0.755307 0.943417 0.479427
C92   C     C_R   0.886751 0.717135 0.953476 -0.281432
C93   C     C_R   0.898526 0.719888 0.030876 -0.250557
C94   C     C_R   0.982246 0.761101 0.100009 0.072371
C95   C     C_R   0.274479 0.230162 0.803366 0.531092
C96   C     C_R   0.764354 0.732094 0.766357 -0.018814
C97   C     C_R   0.199884 0.229201 0.804800 -0.190600
C98   C     C_R   0.159390 0.267400 0.764921 0.068665
C99   C     C_R   0.196444 0.311104 0.728271 -0.176452
C100  C     C_R   0.273050 0.315775 0.730558 -0.213936
C101  C     C_R   0.311994 0.275141 0.767641 -0.209828
C102  C     C_R   0.074300 0.320050 0.818258 -0.264528
C103  C     C_R   0.996048 0.313177 0.811600 -0.082145
C104  C     C_R   0.915457 0.242451 0.741155 -0.084066
C105  C     C_R   0.914434 0.175060 0.677974 -0.059242
C106  C     C_R   0.994956 0.183619 0.685038 -0.119312
H1    H     H_    0.764709 0.813312 0.878055 0.157453
H2    H     H_    0.832437 0.680252 0.216191 0.163134
H3    H     H_    0.850925 0.714257 0.360104 0.140337
H4    H     H_    0.580488 0.902658 0.577118 0.152338
H5    H     H_    0.431079 0.855323 0.554924 0.127005
H6    H     H_    0.311121 0.707301 0.438272 0.138915
H7    H     H_    0.491204 0.652795 0.366028 0.102626
H8    H     H_    0.610056 0.801413 0.482256 0.140754
H9    H     H_    0.258336 0.638677 0.259864 0.146126
H10   H     H_    0.244173 0.360912 0.243294 0.145712
H11   H     H_    0.762571 0.924764 0.836023 0.209933
H12   H     H_    0.070820 0.285397 0.184885 0.128618
H13   H     H_    0.930975 0.097981 0.913585 0.187279
H14   H     H_    0.022289 0.205849 0.889650 0.156157
H15   H     H_    0.137447 0.353585 0.011061 0.107169
H16   H     H_    0.217448 0.615938 0.549236 0.132689
H17   H     H_    0.263430 0.590671 0.672488 0.151776
H18   H     H_    0.275246 0.457538 0.654934 0.128224
H19   H     H_    0.197641 0.374390 0.388053 0.125005
H20   H     H_    0.131239 0.271355 0.519884 0.147896
H21   H     H_    0.364539 0.226903 0.476590 0.162836
H22   H     H_    0.335510 0.130669 0.601119 0.117382
H23   H     H_    0.344243 0.994098 0.568280 0.123900
H24   H     H_    0.269166 0.875355 0.417261 0.134628
H25   H     H_    0.184183 0.891507 0.298987 0.161351
H26   H     H_    0.718774 0.449261 0.845715 0.181800
H27   H     H_    0.842390 0.545882 0.794883 0.162369
H28   H     H_    0.765312 0.664389 0.651302 0.104193
H29   H     H_    0.730793 0.481767 0.667565 0.118390
H30   H     H_    0.080751 0.703298 0.605984 0.124959
H31   H     H_    0.192606 0.828372 0.614900 0.118375
H32   H     H_    0.165008 0.849304 0.488705 0.140831
H33   H     H_    0.912937 0.617903 0.342410 0.135366
H34   H     H_    0.941328 0.598050 0.469436 0.134170
H35   H     H_    0.026205 0.630607 0.269816 0.151983
H36   H     H_    0.981563 0.868514 0.233927 0.192699
H37   H     H_    0.119284 0.830485 0.144383 0.166557
H38   H     H_    0.761537 0.681222 0.782386 0.143347
H39   H     H_    0.821355 0.682383 0.900739 0.171982
H40   H     H_    0.842416 0.687600 0.036103 0.207981
H41   H     H_    0.370404 0.277068 0.767817 0.139086
H42   H     H_    0.170837 0.194553 0.832479 0.144739
H43   H     H_    0.165342 0.340352 0.696923 0.134319
H44   H     H_    0.300686 0.349621 0.701924 0.167133
H45   H     H_    0.135632 0.375125 0.873231 0.160281
H46   H     H_    0.874505 0.882136 0.635222 0.162581
H47   H     H_    0.810946 0.159161 0.791431 0.179290
H48   H     H_    0.672705 0.154673 0.776169 0.134882
H49   H     H_    0.616157 0.233221 0.709715 0.110472
H50   H     H_    0.697771 0.315831 0.657871 0.132563
H51   H     H_    0.836326 0.321396 0.673347 0.126211
H52   H     H_    0.626158 0.617296 0.362992 0.158371
H53   H     H_    0.612580 0.724703 0.287053 0.148281
H54   H     H_    0.596133 0.697271 0.146445 0.123624
O1    O     O_R   0.408620 0.551720 0.460350 -0.601287
O2    O     O_R   0.949210 0.908400 0.357560 -0.620934
O3    O     O_R   0.959770 0.908340 0.551360 -0.632936
O4    O     O_R   0.856990 0.908380 0.448600 -0.583436
O5    O     O_R   0.050790 0.091560 0.642400 -0.640481
O6    O     O_R   0.948010 0.091600 0.539640 -0.604036
O7    O     O_R   0.143010 0.091580 0.551350 -0.627039
O8    O     O_R   0.040230 0.091620 0.448600 -0.632838
O9    O     O_R   0.055540 0.460120 0.912140 -0.631277
O10   O     O_R   0.952100 0.356700 0.912170 -0.610377
O11   O     O_R   0.145980 0.551740 0.094190 -0.624729
O12   O     O_R   0.409320 0.448300 0.357580 -0.630979
O13   O     O_R   0.042530 0.448320 0.094220 -0.615225
O14   O     O_R   0.054350 0.643370 0.094170 -0.629267
O15   O     O_R   0.950900 0.539950 0.094200 -0.623500
O16   O     O_R   0.963910 0.551750 0.912120 -0.646301
O17   O     O_R   0.860470 0.448330 0.912150 -0.607647
O18   O     O_R   0.591270 0.643330 0.551380 -0.614380
O19   O     O_R   0.591970 0.539910 0.448620 -0.625119
O20   O     O_R   0.590680 0.551700 0.642420 -0.579545
O21   O     O_R   0.591380 0.448280 0.539650 -0.635577
O22   O     O_R   0.408030 0.460090 0.551380 -0.610999
O23   O     O_R   0.408730 0.356670 0.448620 -0.630052
O24   O     O_R   0.051990 0.908360 0.460320 -0.624845
Zn1   Zn    Zn3+2 0.499530 0.569060 0.568620 0.997112
Zn2   Zn    Zn3+2 0.500470 0.430940 0.431380 0.945802
Zn3   Zn    Zn3+2 0.068630 0.999950 0.568590 0.932574
Zn4   Zn    Zn3+2 0.931370 0.000000 0.431370 0.989738
Zn5   Zn    Zn3+2 0.072290 0.569090 0.003150 0.945279
Zn6   Zn    Zn3+2 0.934150 0.430980 0.003190 0.964298
O25   O     O_3   0.712100 0.671503 0.091842 -0.633524
C107  C     C_3   0.628980 0.638952 0.023369 0.029445
H55   H     H_    0.611836 0.692203 0.031088 0.153411
H56   H     H_    0.578604 0.582461 0.018952 0.145215
C108  C     C_3   0.630816 0.606987 0.939368 -0.729369
H57   H     H_    0.647155 0.553134 0.929150 0.265351
H58   H     H_    0.566122 0.582169 0.884851 0.224196
H59   H     H_    0.680260 0.661660 0.941136 0.250495
C109  C     C_2   0.941497 0.120044 0.067790 0.375046
H60   H     H_    0.952773 0.138412 0.132707 0.062087
O26   O     O_2   0.884948 0.046080 0.009438 -0.590068
O27   O     O_3   0.173289 0.505526 0.387667 -0.621556
C110  C     C_3   0.096014 0.510541 0.371026 0.043670
H61   H     H_    0.111778 0.578575 0.412464 0.158964
H62   H     H_    0.051260 0.463889 0.381535 0.134256
C111  C     C_3   0.047900 0.486872 0.277654 -0.762476
H63   H     H_    0.034226 0.420430 0.234631 0.260547
H64   H     H_    0.985356 0.487146 0.262721 0.197545
H65   H     H_    0.088145 0.535552 0.266199 0.245649
C112  C     C_2   0.752696 0.922860 0.689526 0.336131
H66   H     H_    0.742038 0.912060 0.626380 0.121664
O28   O     O_2   0.757019 0.989317 0.737525 -0.616638
C113  C     C_2   0.158447 0.031336 0.310286 0.319433
H67   H     H_    0.148147 0.087625 0.323389 0.099600
O29   O     O_2   0.127148 0.977093 0.235411 -0.638437
O30   O     O_3   0.601868 0.482801 0.754751 -0.598435
C114  C     C_3   0.537420 0.393785 0.709526 0.106815
H68   H     H_    0.559109 0.356740 0.739335 0.123102
H69   H     H_    0.520143 0.361958 0.640584 0.131628
C115  C     C_3   0.456323 0.388480 0.712566 -0.859838
H70   H     H_    0.435162 0.428285 0.687152 0.275228
H71   H     H_    0.403933 0.318980 0.672375 0.212901
H72   H     H_    0.469395 0.413578 0.779954 0.247886
O31   O     O_3   0.114022 0.843486 0.007814 -0.653895
C116  C     C_3   0.156245 0.935029 0.063226 0.143467
H73   H     H_    0.196762 0.951952 0.130511 0.179985
H74   H     H_    0.109053 0.960030 0.060516 0.172496
C117  C     C_3   0.215794 0.981394 0.035936 -0.842583
H75   H     H_    0.177102 0.966160 0.968935 0.260286
H76   H     H_    0.249858 0.053489 0.079321 0.216432
H77   H     H_    0.264924 0.959451 0.039365 0.256117
O32   O     O_3   0.942200 0.751644 0.865108 -0.617802
C118  C     C_3   0.985766 0.713855 0.830530 0.153445
H78   H     H_    0.992788 0.664004 0.848452 0.141726
H79   H     H_    0.051082 0.766066 0.852247 0.204204
C119  C     C_3   0.935097 0.668888 0.732886 -0.907943
H80   H     H_    0.929790 0.717369 0.712366 0.272325
H81   H     H_    0.969218 0.639639 0.705291 0.213228
H82   H     H_    0.869003 0.615927 0.707948 0.243883
O33   O     O_3   0.310778 0.187383 0.837437 -0.624377
C120  C     C_3   0.280726 0.103962 0.769274 0.110060
H83   H     H_    0.303170 0.110299 0.723081 0.127109
H84   H     H_    0.208317 0.064962 0.734226 0.145600
C121  C     C_3   0.316708 0.053802 0.805525 -0.838468
H85   H     H_    0.294285 0.045009 0.850853 0.261044
H86   H     H_    0.293594 0.988207 0.752311 0.192876
H87   H     H_    0.388896 0.090397 0.840046 0.259917
C122  C     C_2   0.829474 0.095908 0.607759 0.405556
H88   H     H_    0.771299 0.101607 0.584068 0.074915
O34   O     O_2   0.822658 0.023021 0.578396 -0.598935

loop_
_geom_bond_atom_site_label_1
_geom_bond_atom_site_label_2
_ccdc_geom_bond_type
C79   H33   S    
C110  H61   S    
C121  H86   S    
C93   C94   A    
O8    Zn4   S    
C43   H17   S    
C2    H1    S    
C46   H19   S    
C36   C42   A    
C24   H6    S    
O9    Zn5   S    
C60   C113  S    
O31   C116  S    
O15   Zn6   S    
C115  H71   S    
C97   C98   A    
O16   Zn5   S    
C65   C66   D    
C7    C8    A    
O19   Zn2   S    
C76   H31   S    
C119  H80   S    
C114  C115  S    
C40   H15   S    
C99   H43   S    
C59   H25   S    
C26   C27   A    
O5    Zn3   S    
C83   C84   A    
O6    Zn4   S    
C57   H23   S    
C36   C37   A    
C84   C86   A    
C120  H83   S    
C67   O24   A    
C10   C15   A    
C48   H16   S    
C5    C6    A    
C85   C96   A    
C111  H64   S    
C39   H14   S    
C29   C35   A    
C12   C22   S    
O13   Zn6   S    
C89   C94   A    
C116  C117  S    
C121  H85   S    
O11   Zn5   S    
O3    Zn3   S    
C34   C35   A    
C73   O14   A    
C17   H54   S    
C69   O6    A    
C117  H75   S    
C62   C64   D    
C53   H21   S    
C10   H46   S    
C46   C47   A    
O18   Zn1   S    
C112  H66   S    
C7    H50   S    
C47   C48   A    
O12   Zn2   S    
C16   C17   A    
C51   C61   S    
O10   Zn6   S    
O1    Zn1   S    
C23   C24   A    
C71   O9    A    
C13   C14   A    
C36   H12   S    
C43   C48   A    
C6    H49   S    
C52   C63   A    
C79   C80   A    
C102  H45   S    
C108  H59   S    
C52   H11   S    
C40   C42   A    
C4    H47   S    
C29   H9    S    
C1    O1    A    
C109  H60   S    
C37   C109  S    
C21   C22   A    
C16   H53   S    
C5    H48   S    
C82   H35   S    
C8    H51   S    
C20   H2    S    
C117  H76   S    
C115  H70   S    
C122  O34   D    
C1    C34   S    
C116  H73   S    
C57   C58   A    
C113  O29   D    
C3    C106  A    
C116  H74   S    
C110  C111  S    
C18   O25   S    
O27   C110  S    
O25   C107  S    
C72   O11   A    
C62   H26   S    
O21   Zn2   S    
C33   C34   A    
C24   C25   A    
C65   O30   S    
C51   C53   A    
C10   C11   A    
O23   Zn2   S    
C91   C92   A    
C111  H63   S    
C8    C9    A    
C100  H44   S    
C25   C26   A    
C77   C78   A    
C12   C13   A    
C44   H18   S    
C108  H57   S    
C47   O27   S    
C60   C61   A    
C120  H84   S    
O22   Zn1   S    
C107  H56   S    
C73   O15   A    
C43   C44   A    
C107  C108  S    
C105  C122  S    
C90   O31   S    
C37   C38   A    
C49   H20   S    
C70   O8    A    
C96   H38   S    
C110  H62   S    
C99   C100  A    
C14   C15   A    
C113  H67   S    
C11   C12   A    
O30   C114  S    
O7    Zn3   S    
C95   C97   A    
C17   C18   A    
C71   O10   A    
C93   H40   S    
C50   C51   A    
C84   C94   S    
C72   O13   A    
C76   C77   A    
C92   C93   A    
C118  H79   S    
C19   O18   A    
C30   C66   S    
C2    C52   A    
C25   C35   S    
C38   H13   S    
C115  H72   S    
C3    C102  A    
C31   C72   S    
C49   C50   A    
C112  O28   D    
C97   H42   S    
C108  H58   S    
C41   O22   A    
C58   C59   A    
C23   C28   A    
C56   C57   A    
C63   C112  S    
C89   C90   A    
C19   O19   A    
C13   H52   S    
C39   C40   A    
C122  H88   S    
C86   H36   S    
C81   H30   S    
C64   H27   S    
C118  H78   S    
C68   O3    A    
C78   C88   S    
C71   C103  S    
C54   C55   A    
C101  H41   S    
C33   H10   S    
C16   C22   A    
O17   Zn6   S    
C62   C65   S    
C92   H39   S    
C86   C87   A    
C14   C19   S    
C31   C32   A    
C67   O2    A    
C44   C45   A    
C80   C81   A    
O4    Zn4   S    
C49   C55   A    
C76   C81   A    
C21   H3    S    
C69   C106  S    
O24   Zn3   S    
C53   C54   A    
C6    C7    A    
C63   C74   A    
C89   H37   S    
C114  H69   S    
C23   H5    S    
C105  C106  A    
C85   H28   S    
C1    O12   A    
C67   C87   S    
C119  H82   S    
C91   O32   S    
C120  C121  S    
C28   H4    S    
C107  H55   S    
C77   H32   S    
C2    C96   A    
C114  H68   S    
C68   O4    A    
C29   C31   A    
C121  H87   S    
C80   H34   S    
C70   O7    A    
C32   C33   A    
O33   C120  S    
C78   C79   A    
C111  H65   S    
C90   C91   A    
C38   C39   A    
C58   H24   S    
C9    C104  S    
C82   C88   A    
C4    C5    A    
C100  C101  A    
C30   O21   A    
C64   C75   S    
C119  H81   S    
C18   C20   A    
C95   O33   S    
C56   H22   S    
C74   C85   A    
C50   C70   S    
C102  C103  A    
C75   O17   A    
C118  C119  S    
C69   O5    A    
C41   C54   S    
C26   H7    S    
C11   C68   S    
O20   Zn1   S    
O14   Zn5   S    
C66   H29   S    
C27   H8    S    
C45   C46   A    
C59   C60   A    
C15   C74   S    
C103  C104  A    
C20   C21   A    
C45   C55   S    
C87   C88   A    
C98   C99   A    
C27   C28   A    
C109  O26   D    
C32   C42   S    
C56   C61   A    
C41   O23   A    
C82   C83   A    
C4    C9    A    
C75   O16   A    
C73   C83   S    
C30   O20   A    
C117  H77   S    
C3    C98   S    
C95   C101  A    
C104  C105  A    
O32   C118  S    
O2    Zn4   S    
