data_mof_unit_47637.cif
_audit_creation_date              2012-12-11T14:15:41-0500
_audit_creation_method            fapswitch 2.2
_symmetry_space_group_name_H-M    P1
_symmetry_Int_Tables_number       1
_space_group_crystal_system       triclinic
_cell_length_a                    11.143975
_cell_length_b                    12.736424
_cell_length_c                    23.382737
_cell_angle_alpha                 91.1853
_cell_angle_beta                  97.105066
_cell_angle_gamma                 68.609589
_cell_volume                      3065.40280677

loop_
_atom_site_label
_atom_site_type_symbol
_atom_type_description
_atom_site_fract_x
_atom_site_fract_y
_atom_site_fract_z
_atom_type_partial_charge
C1    C     C_R   0.150425 0.616463 0.429381 0.540121
C2    C     C_2   0.199704 0.213355 0.231600 -0.086466
C3    C     C_2   0.126460 0.172557 0.259443 0.033827
C4    C     C_R   0.751546 0.602299 0.403139 0.580143
C5    C     C_1   0.118342 0.199966 0.319474 -0.020543
C6    C     C_1   0.219903 0.188779 0.172369 -0.044652
C7    C     C_1   0.111841 0.230796 0.368376 -0.011515
C8    C     C_1   0.168191 0.755083 0.124489 0.002782
C9    C     C_2   0.146097 0.717612 0.232828 -0.099970
C10   C     C_2   0.241030 0.642410 0.268717 0.008329
C11   C     C_1   0.219657 0.636730 0.328006 -0.032775
C12   C     C_R   0.717258 0.536572 0.305710 -0.178959
C13   C     C_1   0.156679 0.734675 0.173149 -0.053552
C14   C     C_1   0.194036 0.629697 0.375946 0.000842
C15   C     C_1   0.628607 0.753456 0.865148 0.030761
C16   C     C_R   0.100939 0.280910 0.423716 0.538706
C17   C     C_2   0.699457 0.698086 0.761771 -0.102805
C18   C     C_2   0.608474 0.701308 0.717969 -0.125185
C19   C     C_1   0.645849 0.668575 0.661673 -0.034833
C20   C     C_1   0.664174 0.729694 0.818438 0.001587
C21   C     C_1   0.686435 0.639969 0.616226 0.006601
C22   C     C_R   0.200255 0.187775 0.855177 -0.008412
C23   C     C_R   0.686445 0.734848 0.317452 0.048890
C24   C     C_R   0.105820 0.220390 0.639738 -0.020296
C25   C     C_R   0.973858 0.227976 0.716824 0.030728
C26   C     C_R   0.987428 0.229519 0.658426 -0.166567
C27   C     C_R   0.219192 0.187913 0.679097 -0.005437
C28   C     C_R   0.153304 0.617923 0.590295 0.551844
C29   C     C_R   0.203719 0.201889 0.737789 0.013216
C30   C     C_R   0.084338 0.211151 0.758235 -0.009093
C31   C     C_R   0.084671 0.201216 0.819010 0.045419
C32   C     C_R   0.296653 0.216834 0.834106 -0.134121
C33   C     C_R   0.301290 0.219045 0.775906 -0.135196
C34   C     C_R   0.689300 0.744391 0.257632 -0.017219
C35   C     C_R   0.128866 0.750929 0.847433 -0.006564
C36   C     C_R   0.216850 0.645908 0.644880 0.001570
C37   C     C_R   0.319197 0.570332 0.740014 -0.146183
C38   C     C_R   0.315176 0.560811 0.680163 0.022880
C39   C     C_R   0.154930 0.750922 0.669427 -0.002455
C40   C     C_R   0.748607 0.602736 0.565569 0.553114
C41   C     C_R   0.133121 0.748499 0.727728 0.019276
C42   C     C_R   0.223284 0.658995 0.763627 -0.019148
C43   C     C_R   0.224069 0.663824 0.823067 -0.148745
C44   C     C_R   0.017466 0.821029 0.811552 0.057668
C45   C     C_R   0.718547 0.646329 0.223119 -0.005790
C46   C     C_R   0.026089 0.830311 0.751395 -0.026764
C47   C     C_R   0.265708 0.110971 0.069204 0.545361
C48   C     C_R   0.601968 0.775737 0.080640 0.593945
C49   C     C_R   0.188801 0.787950 0.069402 0.551326
C50   C     C_R   0.240125 0.118205 0.908596 0.552780
C51   C     C_R   0.573931 0.775878 0.918309 0.555752
C52   C     C_R   0.100040 0.277159 0.584838 0.539047
C53   C     C_R   0.164045 0.786975 0.905834 0.573599
C54   C     C_R   0.674338 0.763079 0.138080 -0.006494
C55   C     C_R   0.708078 0.628240 0.341546 -0.028117
C56   C     C_R   0.734158 0.656571 0.164710 0.075756
C57   C     C_R   0.721884 0.544035 0.246930 0.054479
C58   C     C_2   0.828493 0.564604 0.134290 0.608733
C59   C     C_2   0.971679 0.201830 0.846442 0.614530
C60   C     C_2   0.838450 0.268243 0.730627 0.607760
C61   C     C_3   0.354469 0.143730 0.659087 -0.225572
C62   C     C_3   0.370063 0.051788 0.613591 -0.298162
C63   C     C_3   0.474510 0.046847 0.576010 -0.438261
C64   C     C_2   0.894599 0.875912 0.838449 0.592724
C65   C     C_3   0.926251 0.928319 0.714602 -0.214105
C66   C     C_3   0.799517 0.910203 0.693385 -0.281620
C67   C     C_R   0.648331 0.859582 0.171571 -0.177225
C68   C     C_3   0.807197 0.848206 0.636916 -0.417636
C69   C     C_2   0.416462 0.465156 0.656018 0.588210
C70   C     C_3   0.193694 0.846737 0.650357 -0.254949
C71   C     C_3   0.123724 0.902117 0.591471 -0.293012
C72   C     C_3   0.205960 0.856910 0.542308 -0.403311
C73   C     C_2   0.719086 0.446463 0.211505 0.584182
C74   C     C_2   0.661364 0.834108 0.355294 0.578551
C75   C     C_3   0.047498 0.108757 0.227844 -0.212927
C76   C     C_3   0.970298 0.068011 0.266467 -0.283680
C77   C     C_3   0.879701 0.019400 0.230625 -0.442706
C78   C     C_R   0.660334 0.850012 0.230889 -0.142253
C79   C     C_3   0.361540 0.555485 0.248934 -0.226554
C80   C     C_3   0.346801 0.440284 0.245006 -0.303800
C81   C     C_3   0.466312 0.349237 0.225744 -0.431920
C82   C     C_1   0.239391 0.159854 0.124010 -0.000848
Cr1   Cr    Cr6+3 0.189770 0.415650 0.511620 1.046277
Cr2   Cr    Cr6+3 0.930400 0.667320 0.496770 1.036704
Cr3   Cr    Cr6+3 0.879870 0.417010 0.491650 1.028643
Cr4   Cr    Cr6+3 0.149500 0.973980 0.985330 1.081868
Cr5   Cr    Cr6+3 0.457000 0.976510 0.994660 1.030697
Cr6   Cr    Cr6+3 0.411170 0.724270 0.995270 1.071756
H1    H     H_    0.058609 0.772750 0.249548 0.129012
H2    H     H_    0.633316 0.927451 0.254376 0.156955
H3    H     H_    0.726427 0.456067 0.323994 0.168171
H4    H     H_    0.251483 0.261831 0.254732 0.114755
H5    H     H_    0.891684 0.501051 0.059070 0.346624
H6    H     H_    0.836253 0.135270 0.852818 0.368431
H7    H     H_    0.697997 0.384482 0.769447 0.357314
H8    H     H_    0.441212 0.123974 0.547937 0.178604
H9    H     H_    0.565729 0.040946 0.603058 0.156352
H10   H     H_    0.493959 0.972098 0.548248 0.141803
H11   H     H_    0.396811 0.968544 0.635794 0.150004
H12   H     H_    0.506707 0.728176 0.724247 0.126370
H13   H     H_    0.278764 0.066573 0.584511 0.167198
H14   H     H_    0.377125 0.215197 0.643498 0.218547
H15   H     H_    0.430990 0.103740 0.695491 0.141363
H16   H     H_    0.796045 0.875873 0.905404 0.340207
H17   H     H_    0.831781 0.894137 0.603197 0.150674
H18   H     H_    0.880439 0.761380 0.643559 0.195044
H19   H     H_    0.711028 0.844026 0.621656 0.141200
H20   H     H_    0.773809 0.862497 0.725680 0.195574
H21   H     H_    0.719783 0.993976 0.686627 0.190485
H22   H     H_    0.904842 0.005920 0.739964 0.233850
H23   H     H_    0.801296 0.670186 0.755415 0.145909
H24   H     H_    0.964070 0.950288 0.677165 0.135609
H25   H     H_    0.525238 0.407485 0.591103 0.339669
H26   H     H_    0.296942 0.874680 0.549736 0.139547
H27   H     H_    0.231827 0.764687 0.538415 0.183809
H28   H     H_    0.150465 0.898782 0.500999 0.151029
H29   H     H_    0.029168 0.891608 0.581324 0.186643
H30   H     H_    0.102134 0.994359 0.593506 0.136096
H31   H     H_    0.176840 0.913150 0.683319 0.127555
H32   H     H_    0.300733 0.814550 0.649726 0.140377
H33   H     H_    0.655800 0.391542 0.136422 0.335421
H34   H     H_    0.379302 0.221525 0.862300 0.157051
H35   H     H_    0.560589 0.923919 0.417315 0.330619
H36   H     H_    0.802006 0.087130 0.203647 0.171335
H37   H     H_    0.934226 0.953022 0.202082 0.155071
H38   H     H_    0.833850 0.981938 0.259788 0.177194
H39   H     H_    0.038888 0.002051 0.297509 0.165031
H40   H     H_    0.910189 0.139311 0.291119 0.207046
H41   H     H_    0.978731 0.165237 0.192974 0.200691
H42   H     H_    0.114190 0.034187 0.207381 0.138044
H43   H     H_    0.479777 0.369803 0.181714 0.185470
H44   H     H_    0.553775 0.341411 0.256345 0.189257
H45   H     H_    0.383036 0.232633 0.761255 0.156765
H46   H     H_    0.453587 0.266746 0.224788 0.139408
H47   H     H_    0.331795 0.414554 0.287904 0.168100
H48   H     H_    0.260584 0.446512 0.213728 0.193529
H49   H     H_    0.380434 0.579588 0.206506 0.178697
H50   H     H_    0.446901 0.549882 0.280549 0.148667
H51   H     H_    0.900329 0.251613 0.627601 0.158777
H52   H     H_    0.304426 0.603900 0.850545 0.140475
H53   H     H_    0.607439 0.943528 0.151956 0.148480
H54   H     H_    0.393449 0.506313 0.768117 0.146010
O1    O     O_R   0.196340 0.303200 0.448500 -0.512600
O2    O     O_R   0.555390 0.700940 0.062700 -0.447513
O3    O     O_R   0.295020 0.731920 0.049950 -0.491303
O4    O     O_R   0.199310 0.519670 0.454880 -0.488984
O5    O     O_R   0.094290 0.884230 0.921550 -0.461841
O6    O     O_R   0.168980 0.069410 0.926940 -0.471707
O7    O     O_R   0.358400 0.089990 0.927950 -0.521103
O8    O     O_R   0.544850 0.873850 0.939920 -0.499068
O9    O     O_R   0.536020 0.701900 0.936430 -0.492790
O10   O     O_R   0.277070 0.732810 0.932890 -0.514089
O11   O     O_3   0.339220 0.891590 0.991750 -0.270720
O12   O     O_R   0.811960 0.658090 0.547150 -0.509764
O13   O     O_R   0.045660 0.691380 0.441680 -0.497659
O14   O     O_R   0.811930 0.659460 0.430950 -0.463314
O15   O     O_R   0.757900 0.507620 0.421760 -0.523915
O16   O     O_R   0.988630 0.322990 0.439840 -0.496741
O17   O     O_R   0.196380 0.301720 0.573850 -0.511562
O18   O     O_R   0.199350 0.518300 0.571080 -0.459321
O19   O     O_R   0.045700 0.689900 0.567030 -0.536199
O20   O     O_2   0.917920 0.489832 0.162149 -0.515925
O21   O     O_R   0.820648 0.566991 0.074143 -0.672010
O22   O     O_2   0.933592 0.268053 0.884776 -0.487750
O23   O     O_R   0.757930 0.506140 0.547110 -0.492621
O24   O     O_R   0.912368 0.124614 0.830680 -0.680114
O25   O     O_2   0.764526 0.222567 0.709641 -0.503763
O26   O     O_R   0.792867 0.363423 0.764247 -0.664886
O27   O     O_2   0.804963 0.957361 0.815883 -0.537832
O28   O     O_R   0.880805 0.830688 0.890208 -0.687171
O29   O     O_2   0.470628 0.376540 0.683775 -0.531438
O30   O     O_R   0.454012 0.477892 0.602476 -0.684788
O31   O     O_2   0.778700 0.350220 0.230433 -0.554794
O32   O     O_R   0.646463 0.464487 0.156947 -0.697502
O33   O     O_2   0.725758 0.893960 0.355091 -0.541595
O34   O     O_R   0.988670 0.321620 0.556040 -0.508885
O35   O     O_R   0.567511 0.855599 0.392991 -0.705118
O36   O     O_3   0.000020 0.499990 0.500010 -0.255294
O37   O     O_R   0.113660 0.883270 0.047820 -0.505663
O38   O     O_R   0.186930 0.068530 0.043990 -0.490862
O39   O     O_R   0.377770 0.089040 0.054220 -0.516605
O40   O     O_R   0.562800 0.872960 0.056970 -0.515701

loop_
_geom_bond_atom_site_label_1
_geom_bond_atom_site_label_2
_ccdc_geom_bond_type
C24   C52   S    
C66   C68   S    
Cr6   O2    S    
C8    C13   T    
C6    C82   T    
C29   C33   A    
C35   C53   S    
C41   C42   A    
C12   H3    S    
C24   C27   A    
C53   O5    A    
H35   O35   S    
H7    O26   S    
H6    O24   S    
Cr5   O40   S    
C73   O32   S    
C81   H46   S    
C39   C41   A    
C78   H2    S    
C48   C54   S    
C74   O35   S    
C72   H27   S    
C45   C57   A    
C37   C38   A    
C80   H47   S    
C22   C32   A    
Cr3   O34   S    
C61   H15   S    
Cr4   O11   S    
C24   C26   A    
C63   H10   S    
C30   C31   A    
C11   C14   T    
C4    O14   A    
C81   H43   S    
C27   C29   A    
H5    O21   S    
C57   C73   S    
C72   H26   S    
C28   O18   A    
C17   C20   S    
C48   O2    A    
C18   C19   S    
C69   O29   D    
C47   C82   S    
C31   C59   S    
C37   C42   A    
C1    O13   A    
C9    C13   S    
C59   O22   D    
C27   C61   S    
Cr2   O12   S    
Cr1   O18   S    
H33   O32   S    
C51   O8    A    
C70   H32   S    
Cr3   O36   S    
Cr5   O8    S    
C53   O10   A    
C41   C46   A    
Cr5   O11   S    
C70   C71   S    
C68   H19   S    
C15   C51   S    
C29   C30   A    
C35   C43   A    
C9    C10   D    
C52   O34   A    
Cr1   O36   S    
C75   H42   S    
C47   O39   A    
C22   C50   S    
C62   H13   S    
C52   O17   A    
C38   C69   S    
C51   O9    A    
Cr4   O5    S    
C73   O31   D    
Cr6   O10   S    
C40   O12   A    
C1    O4    A    
C2    C6    S    
C67   C78   A    
C68   H18   S    
C42   C43   A    
C58   O21   S    
C17   H23   S    
C44   C46   A    
C28   O19   A    
H25   O30   S    
C15   C20   T    
C54   C56   A    
C60   O25   D    
C22   C31   A    
C71   H29   S    
C16   O16   A    
C32   H34   S    
C16   O1    A    
C76   C77   S    
C45   C56   A    
C46   C65   S    
C26   H51   S    
C37   H54   S    
C9    H1    S    
C5    C7    T    
C81   H44   S    
C54   C67   A    
C25   C26   A    
C63   H8    S    
C18   H12   S    
C44   C64   S    
C62   H11   S    
C69   O30   S    
Cr2   O36   S    
C75   C76   S    
C65   H24   S    
C62   C63   S    
Cr1   O4    S    
C4    O15   A    
C70   H31   S    
Cr6   O3    S    
C23   C34   A    
Cr1   O1    S    
Cr4   O38   S    
C17   C18   D    
C49   O3    A    
C43   H52   S    
C34   C45   A    
C60   O26   S    
C2    H4    S    
C35   C44   A    
C40   O23   A    
C59   O24   S    
C12   C57   A    
C7    C16   S    
C25   C60   S    
C68   H17   S    
C64   O27   D    
C4    C55   S    
C76   H40   S    
Cr6   O9    S    
Cr3   O16   S    
C23   C74   S    
C67   H53   S    
C77   H37   S    
C3    C75   S    
H16   O28   S    
C50   O6    A    
C25   C30   A    
C71   H30   S    
C19   C21   T    
C36   C39   A    
C66   H20   S    
C80   C81   S    
C3    C5    S    
Cr4   O6    S    
Cr5   O39   S    
C10   C79   S    
C23   C55   A    
C47   O38   A    
C72   H28   S    
C80   H48   S    
Cr3   O23   S    
C32   C33   A    
C36   C38   A    
C2    C3    D    
C71   C72   S    
C63   H9    S    
C77   H36   S    
Cr6   O11   S    
C48   O40   A    
Cr2   O14   S    
C50   O7    A    
C21   C40   S    
Cr4   O37   S    
Cr2   O13   S    
C39   C70   S    
C56   C58   S    
C61   H14   S    
C66   H21   S    
C64   O28   S    
C61   C62   S    
C65   H22   S    
C12   C55   A    
C10   C11   S    
C77   H38   S    
C79   C80   S    
C33   H45   S    
C74   O33   D    
C79   H50   S    
Cr1   O17   S    
C28   C36   S    
C65   C66   S    
Cr5   O7    S    
Cr3   O15   S    
C76   H39   S    
C1    C14   S    
C8    C49   S    
C79   H49   S    
C34   C78   A    
Cr2   O19   S    
C75   H41   S    
C49   O37   A    
C58   O20   D    
