data_mof_unit_68462.cif
_audit_creation_date              2013-03-05T15:52:18-0500
_audit_creation_method            fapswitch 2.2
_symmetry_space_group_name_H-M    P1
_symmetry_Int_Tables_number       1
_space_group_crystal_system       triclinic
_cell_length_a                    14.94019
_cell_length_b                    15.408632
_cell_length_c                    10.031915
_cell_angle_alpha                 91.246374
_cell_angle_beta                  84.806107
_cell_angle_gamma                 90.652928
_cell_volume                      2299.29639411

loop_
_atom_site_label
_atom_site_type_symbol
_atom_site_description
_atom_site_fract_x
_atom_site_fract_y
_atom_site_fract_z
_atom_type_partial_charge
O1    O     O_R   0.408390 0.908380 0.614690 -0.594402
O2    O     O_R   0.408390 0.091620 0.614690 -0.579800
O3    O     O_R   0.908390 0.408380 0.614690 -0.593670
O4    O     O_R   0.908390 0.591620 0.614690 -0.580812
O5    O     O_R   0.408370 0.908380 0.385360 -0.592572
O6    O     O_R   0.408370 0.091620 0.385360 -0.597500
O7    O     O_R   0.908370 0.408380 0.385360 -0.592292
O8    O     O_R   0.908370 0.591620 0.385360 -0.597210
C1    C     C_R   0.395134 0.869455 0.500549 0.942981
C2    C     C_R   0.386817 0.127076 0.505447 0.961726
C3    C     C_R   0.895166 0.369439 0.500578 0.942948
C4    C     C_R   0.887056 0.627239 0.505420 0.958721
Zn1   Zn    Zn3+2 0.500010 1.000000 0.653130 1.048815
Zn2   Zn    Zn3+2 0.000010 0.500000 0.653130 1.047101
Zn3   Zn    Zn3+2 0.499980 0.000000 0.346870 1.042232
Zn4   Zn    Zn3+2 0.999980 0.500000 0.346870 1.041758
O9    O     O_R   0.591620 0.091610 0.614640 -0.608463
O10   O     O_R   0.591620 0.908390 0.614640 -0.587027
O11   O     O_R   0.091620 0.591610 0.614640 -0.609353
O12   O     O_R   0.091620 0.408390 0.614640 -0.587200
O13   O     O_R   0.591610 0.091610 0.385310 -0.561037
O14   O     O_R   0.591610 0.908390 0.385310 -0.590762
O15   O     O_R   0.091610 0.591610 0.385310 -0.561808
O16   O     O_R   0.091610 0.408390 0.385310 -0.591877
C5    C     C_R   0.620011 0.121459 0.497699 0.945369
C6    C     C_R   0.615932 0.875485 0.494406 0.875357
C7    C     C_R   0.119970 0.621487 0.497686 0.942492
C8    C     C_R   0.115756 0.375381 0.494412 0.873572
C9    C     C_R   0.241420 0.187855 0.743974 0.237783
C10   C     C_R   0.329262 0.768049 0.758353 0.177706
C11   C     C_R   0.742779 0.688634 0.744690 0.243442
C12   C     C_R   0.829262 0.268207 0.758633 0.181321
C13   C     C_R   0.156888 0.160244 0.801338 -0.194820
C14   C     C_R   0.268913 0.750119 0.868847 -0.211123
C15   C     C_R   0.658467 0.660755 0.802310 -0.205218
C16   C     C_R   0.768867 0.250408 0.869147 -0.225456
H1    H     H_    0.148473 0.144103 0.906298 0.231444
H2    H     H_    0.291667 0.753377 0.967468 0.249617
H3    H     H_    0.650341 0.644382 0.907200 0.224801
H4    H     H_    0.791555 0.253876 0.967809 0.249697
C17   C     C_R   0.590621 0.641745 0.717311 -0.069021
C18   C     C_R   0.678326 0.235150 0.855302 -0.082938
C19   C     C_R   0.089007 0.141749 0.716295 -0.066174
C20   C     C_R   0.178348 0.734927 0.855031 -0.084351
C21   C     C_R   0.597298 0.683459 0.591744 0.116986
C22   C     C_R   0.650284 0.235573 0.726199 0.201698
C23   C     C_R   0.096210 0.183277 0.590470 0.107718
C24   C     C_R   0.150223 0.735704 0.725967 0.200320
C25   C     C_R   0.675580 0.732449 0.555594 0.009391
C26   C     C_R   0.713947 0.226697 0.615488 0.002936
C27   C     C_R   0.174852 0.231794 0.554454 0.013782
C28   C     C_R   0.213869 0.726779 0.615293 -0.000394
C29   C     C_R   0.251848 0.205620 0.606899 -0.002053
C30   C     C_R   0.300663 0.759202 0.625984 0.041457
C31   C     C_R   0.752811 0.706599 0.607696 0.000754
C32   C     C_R   0.800736 0.259182 0.626198 0.046139
C33   C     C_R   0.332139 0.207465 0.521305 -0.133868
C34   C     C_R   0.348440 0.785404 0.504119 -0.160837
C35   C     C_R   0.832729 0.707896 0.521286 -0.134317
C36   C     C_R   0.848541 0.285341 0.504284 -0.163365
C37   C     C_R   0.341552 0.274381 0.425385 -0.050399
C38   C     C_R   0.329465 0.743629 0.380955 -0.059309
C39   C     C_R   0.841841 0.774473 0.424780 -0.045719
C40   C     C_R   0.829574 0.243559 0.381144 -0.058290
H5    H     H_    0.775833 0.887507 0.356231 0.193516
H6    H     H_    0.736923 0.158033 0.290539 0.262500
H7    H     H_    0.275852 0.387758 0.357500 0.194769
H8    H     H_    0.236882 0.657968 0.290486 0.264615
C41   C     C_R   0.767849 0.828836 0.413822 -0.184885
C42   C     C_R   0.751784 0.192624 0.380737 -0.163928
C43   C     C_R   0.267669 0.328833 0.414467 -0.194397
C44   C     C_R   0.251712 0.692631 0.380619 -0.163070
C45   C     C_R   0.683257 0.807155 0.477741 -0.043576
C46   C     C_R   0.692418 0.186299 0.495141 -0.101737
C47   C     C_R   0.182928 0.306972 0.477634 -0.041903
C48   C     C_R   0.192347 0.686336 0.495028 -0.103493
C49   C     C_R   0.342742 0.013845 0.171855 0.213149
C50   C     C_R   0.842727 0.513985 0.171807 0.211619
C51   C     C_R   0.276067 0.956532 0.147446 0.083906
C52   C     C_R   0.775945 0.456808 0.147313 0.084256
C53   C     C_R   0.255724 0.951337 0.014794 0.073846
C54   C     C_R   0.755555 0.451802 0.014665 0.070937
C55   C     C_R   0.323225 0.976442 0.909240 0.105807
C56   C     C_R   0.823152 0.476779 0.909148 0.103586
C57   C     C_R   0.416322 0.997287 0.943159 0.086890
C58   C     C_R   0.916300 0.497425 0.943128 0.087328
C59   C     C_R   0.420865 0.008643 0.085764 -0.018454
C60   C     C_R   0.920857 0.508690 0.085751 -0.017933
N1    N     N_R   0.498810 1.000000 0.142780 -0.151909
N2    N     N_R   0.998810 0.500000 0.142780 -0.152939
C61   C     C_R   0.576362 0.989227 0.060556 -0.051560
C62   C     C_R   0.076333 0.489186 0.060583 -0.053771
C63   C     C_R   0.577533 0.995661 0.918571 0.191574
C64   C     C_R   0.077497 0.495601 0.918615 0.194091
N3    N     N_R   0.498740 0.000000 0.857170 -0.092404
N4    N     N_R   0.998740 0.500000 0.857170 -0.092316
C65   C     C_2   0.426337 0.290704 0.339974 0.983756
O17   O     O_2   0.426873 0.339207 0.244923 -0.561604
O18   O     O_R   0.505906 0.251695 0.368214 -0.802532
H9    H     H_    0.558601 0.267894 0.302779 0.389879
C66   C     C_2   0.390124 0.746733 0.252817 0.981805
O19   O     O_2   0.367609 0.709043 0.152671 -0.589264
O20   O     O_R   0.475253 0.785941 0.247035 -0.763081
H10   H     H_    0.508929 0.781614 0.154743 0.372818
C67   C     C_2   0.926423 0.790484 0.338742 0.983849
O21   O     O_2   0.926635 0.838384 0.243022 -0.569188
O22   O     O_R   0.006160 0.751842 0.367117 -0.802338
H11   H     H_    0.058630 0.767552 0.300938 0.389410
C68   C     C_2   0.890255 0.246701 0.253053 0.982051
O23   O     O_2   0.867679 0.209216 0.152767 -0.602106
O24   O     O_R   0.975469 0.285724 0.247479 -0.762364
H12   H     H_    0.009172 0.281443 0.155198 0.374729
I1    I     I_    0.113515 0.933119 0.997141 -0.146557
I2    I     I_    0.613223 0.434107 0.997000 -0.118579
I3    I     I_    0.256379 0.982426 0.729696 -0.279364
I4    I     I_    0.756413 0.482579 0.729461 -0.278003
I5    I     I_    0.706751 0.997843 0.806730 -0.203201
I6    I     I_    0.206577 0.497598 0.806829 -0.225624
I7    I     I_    0.335086 0.230132 0.871787 -0.167236
I8    I     I_    0.458532 0.793902 0.820250 -0.319221
I9    I     I_    0.836026 0.731932 0.872325 -0.158343
I10   I     I_    0.958403 0.294461 0.820860 -0.323175
C69   C     C_2   0.513760 0.584776 0.765662 1.016727
O25   O     O_2   0.487922 0.584853 0.884897 -0.542303
O26   O     O_R   0.471906 0.529702 0.677467 -0.739703
H13   H     H_    0.421670 0.493758 0.724099 0.375769
C70   C     C_2   0.616362 0.215464 0.975043 0.980824
O27   O     O_2   0.644373 0.215627 0.085862 -0.634591
O28   O     O_R   0.526807 0.193976 0.962090 -0.758019
H14   H     H_    0.491969 0.182935 0.051700 0.361615
C71   C     C_2   0.010859 0.086744 0.766003 1.011512
O29   O     O_2   0.969814 0.042546 0.688919 -0.555225
O30   O     O_R   0.983995 0.085720 0.903193 -0.736391
H15   H     H_    0.929457 0.047138 0.925273 0.387606
C72   C     C_2   0.116568 0.714558 0.974655 0.980532
O31   O     O_2   0.145106 0.712573 0.085096 -0.632404
O32   O     O_R   0.026605 0.694659 0.961913 -0.758137
H16   H     H_    0.992005 0.682796 0.051434 0.361002
I11   I     I_    0.526164 0.636450 0.433147 -0.167816
I12   I     I_    0.532943 0.301373 0.685979 -0.154650
I13   I     I_    0.026436 0.134792 0.431083 -0.163608
I14   I     I_    0.033585 0.802752 0.685578 -0.126090
C73   C     C_2   0.658739 0.963485 0.118323 0.994614
O33   O     O_2   0.697618 0.014345 0.188431 -0.607143
O34   O     O_R   0.694007 0.881121 0.087302 -0.766631
H17   H     H_    0.753466 0.871812 0.125724 0.374862
C74   C     C_2   0.158649 0.463395 0.118423 1.006732
O35   O     O_2   0.198078 0.514599 0.187369 -0.598059
O36   O     O_R   0.193215 0.380549 0.088792 -0.765479
H18   H     H_    0.252714 0.371191 0.127082 0.377132
I15   I     I_    0.277827 0.136381 0.190404 -0.259388
I16   I     I_    0.777982 0.636603 0.190009 -0.263339
I17   I     I_    0.187090 0.922599 0.317866 -0.187556
I18   I     I_    0.686934 0.422919 0.317715 -0.179657

loop_
_geom_bond_atom_site_label_1
_geom_bond_atom_site_label_2
_geom_bond_distance
_ccdc_geom_bond_type
C34   C38   1.430383 A    
Zn4   N2    2.049070 S    
C66   O19   1.221112 D    
C31   C35   1.410772 A    
C64   I6    2.141536 S    
C67   O21   1.223548 D    
C16   C18   1.389135 A    
O24   H12   1.014208 S    
O10   C6    1.319897 A    
C44   C48   1.389939 A    
C25   C45   1.402895 A    
C49   I15   2.129300 S    
C65   O17   1.223672 D    
C50   I16   2.129188 S    
C69   O25   1.223172 D    
H6    C42   1.079286 S    
O7    C3    1.311924 A    
C67   O22   1.392715 S    
C56   I4    2.141504 S    
C10   I8    2.112592 S    
Zn1   O10   1.984834 S    
Zn1   N3    2.045282 S    
C12   C16   1.394631 A    
C74   O36   1.398327 S    
C56   C58   1.491702 A    
C1    C34   1.463622 S    
C24   C28   1.400363 A    
C68   O24   1.398792 S    
C58   C60   1.445154 A    
C10   C30   1.434586 A    
C69   O26   1.396203 S    
C61   C63   1.428490 A    
C73   O33   1.218939 D    
C9    C13   1.404975 A    
C21   I11   2.103325 S    
C6    C45   1.460908 S    
C73   O34   1.397689 S    
C5    C46   1.463055 S    
C18   C22   1.397010 A    
C33   C37   1.422751 A    
O2    Zn1   2.044182 S    
C16   H4    1.074909 S    
C74   O35   1.219566 D    
C53   C55   1.450357 A    
O6    Zn3   1.984944 S    
C4    C35   1.489865 S    
Zn3   O14   2.044178 S    
C39   C41   1.408150 A    
C42   C46   1.389947 A    
O22   H11   1.011098 S    
C41   C45   1.404632 A    
C40   C42   1.395212 A    
O4    C4    1.303020 A    
O11   C7    1.302681 A    
C23   I13   2.105596 S    
H8    C44   1.079129 S    
C38   C66   1.505589 S    
C37   C43   1.407622 A    
C20   C72   1.483192 S    
C57   C59   1.445085 A    
C51   I17   2.138921 S    
Zn4   O16   2.044178 S    
C3    C36   1.463771 S    
C62   C74   1.468813 S    
C63   I5    2.143592 S    
Zn2   N4    2.045282 S    
C65   O18   1.392619 S    
C28   C30   1.396654 A    
O34   H17   1.012711 S    
C61   C73   1.469045 S    
O15   C7    1.312188 A    
C49   C51   1.358981 A    
C10   C14   1.394513 A    
C24   I14   2.110731 S    
C13   C19   1.406088 A    
C55   I3    2.141289 S    
C72   O31   1.223736 D    
C2    C33   1.489271 S    
O1    C1    1.310942 A    
C54   I2    2.163443 S    
C52   C54   1.392106 A    
C51   C53   1.392017 A    
C29   C33   1.410976 A    
C23   C27   1.408811 A    
O12   C8    1.319917 A    
C71   O30   1.398670 S    
C25   C31   1.375469 A    
C26   C32   1.396953 A    
C32   C36   1.423066 A    
C27   C29   1.375552 A    
C15   H3    1.083199 S    
C70   O28   1.391465 S    
O5    C1    1.311584 A    
Zn2   O12   1.984834 S    
Zn3   N1    2.049070 S    
C9    I7    2.072315 S    
N2    C62   1.369190 A    
O18   H9    1.010993 S    
C21   C25   1.408614 A    
O8    C4    1.326298 A    
C62   C64   1.428303 A    
C50   C52   1.359048 A    
C38   C44   1.395244 A    
C64   N4    1.379852 A    
C11   I9    2.071240 S    
O3    Zn2   2.010780 S    
C58   N4    1.438843 A    
C18   C70   1.483282 S    
O7    Zn4   1.974680 S    
C55   C57   1.491404 A    
C60   N2    1.352448 A    
Zn4   O15   2.010774 S    
C54   C56   1.450468 A    
C59   N1    1.352194 A    
O26   H13   1.013473 S    
C11   C15   1.404277 A    
O1    Zn1   2.010780 S    
C7    C48   1.462787 S    
O2    C2    1.302848 A    
C12   I10   2.113107 S    
C22   I12   2.109615 S    
O28   H14   1.013852 S    
C30   C34   1.422676 A    
C50   C60   1.389651 A    
C72   O32   1.391714 S    
C14   C20   1.389273 A    
O13   C5    1.312406 A    
O8    Zn4   1.984944 S    
C14   H2    1.074832 S    
Zn2   O11   1.974568 S    
C37   C65   1.485797 S    
O16   C8    1.298709 A    
C27   C47   1.403260 A    
C28   C48   1.407241 A    
O6    C2    1.326126 A    
C52   I18   2.138880 S    
O32   H16   1.013952 S    
C22   C26   1.400711 A    
C35   C39   1.422801 A    
C66   O20   1.398781 S    
Zn1   O9    1.974568 S    
C36   C40   1.430188 A    
O9    C5    1.302560 A    
C17   C69   1.489692 S    
C26   C46   1.407684 A    
O36   H18   1.012773 S    
C43   C47   1.404358 A    
C57   N3    1.438806 A    
C40   C68   1.505407 S    
O30   H15   1.014100 S    
C9    C29   1.402416 A    
H5    C41   1.083101 S    
C19   C71   1.490167 S    
H7    C43   1.083189 S    
O4    Zn2   2.044182 S    
C71   O29   1.221179 D    
C15   C17   1.406850 A    
C13   H1    1.083085 S    
O5    Zn3   1.974680 S    
O3    C3    1.310691 A    
C39   C67   1.485734 S    
C20   C24   1.397276 A    
Zn3   O13   2.010774 S    
C49   C59   1.389689 A    
C63   N3    1.380040 A    
N1    C61   1.369602 A    
O14   C6    1.298944 A    
C53   I1    2.162545 S    
O20   H10   1.014172 S    
C17   C21   1.421576 A    
C11   C31   1.402194 A    
C68   O23   1.221164 D    
C8    C47   1.460272 S    
C19   C23   1.422437 A    
C12   C32   1.434996 A    
C70   O27   1.222776 D    
