data_mof_unit_45007.cif
_audit_creation_date              2012-10-26T18:33:56-0400
_audit_creation_method            fapswitch 2.2
_symmetry_space_group_name_H-M    P1
_symmetry_Int_Tables_number       1
_space_group_crystal_system       triclinic
_cell_length_a                    11.121318
_cell_length_b                    10.853542
_cell_length_c                    9.598694
_cell_angle_alpha                 88.307489
_cell_angle_beta                  102.157903
_cell_angle_gamma                 92.415302
_cell_volume                      1131.37084681

loop_
_atom_site_label
_atom_site_type_symbol
_atom_type_description
_atom_site_fract_x
_atom_site_fract_y
_atom_site_fract_z
_atom_type_partial_charge
C1    C     C_R   0.498923 0.262462 0.501597 0.540758
C2    C     C_2   0.869737 0.500033 0.588270 -0.093515
C3    C     C_2   0.066152 0.509396 0.515039 0.224439
C4    C     C_2   0.933291 0.477991 0.487372 0.245288
C5    C     C_R   0.463941 0.068508 0.374192 -0.173478
C6    C     C_R   0.534299 0.932750 0.626558 -0.173990
C7    C     C_R   0.469577 0.941194 0.368149 0.230844
C8    C     C_R   0.535044 0.060532 0.631622 0.229044
C9    C     C_R   0.501387 0.872243 0.496247 -0.022128
C10   C     C_R   0.498397 0.128714 0.504004 -0.025176
C11   C     C_3   0.893641 0.307593 0.345199 -0.016227
C12   C     C_R   0.500194 0.737850 0.498270 0.551526
C13   C     C_3   0.776960 0.231932 0.354041 -0.353911
C14   C     C_3   0.132229 0.678126 0.649232 0.003704
C15   C     C_3   0.208965 0.720765 0.790903 -0.338216
C16   C     C_3   0.525243 0.911349 0.157456 0.001977
C17   C     C_3   0.483408 0.857067 0.010714 -0.335066
C18   C     C_3   0.692597 0.130227 0.805549 0.000736
C19   C     C_3   0.724158 0.202873 0.942393 -0.347182
C20   C     C_R   0.263592 0.500877 0.442657 0.547190
C21   C     C_R   0.736184 0.497505 0.557319 0.537940
C22   C     C_R   0.411542 0.434057 0.057264 0.365494
C23   C     C_R   0.589290 0.564766 0.942997 0.345269
C24   C     C_R   0.411196 0.433763 0.908187 0.292861
C25   C     C_R   0.590202 0.564172 0.092248 0.283752
C26   C     C_2   0.129699 0.495148 0.411875 -0.101395
Cu1   Cu    Cu3+1 0.500000 0.500020 0.640660 1.017957
Cu2   Cu    Cu3+1 0.500000 0.499980 0.359340 1.029658
H1    H     H_    0.916481 0.527008 0.694642 0.119638
H2    H     H_    0.038902 0.716179 0.634978 0.110749
H3    H     H_    0.177448 0.716243 0.563177 0.132772
H4    H     H_    0.303683 0.687011 0.804810 0.173981
H5    H     H_    0.213465 0.823092 0.792952 0.093452
H6    H     H_    0.167302 0.684286 0.879961 0.170709
H7    H     H_    0.268226 0.319599 0.039805 0.347751
H8    H     H_    0.733205 0.678436 0.960864 0.341790
H9    H     H_    0.349319 0.336109 0.742746 0.381774
H10   H     H_    0.653068 0.660364 0.258184 0.366751
H11   H     H_    0.613747 0.870483 0.210566 0.136740
H12   H     H_    0.082891 0.472533 0.304094 0.116275
H13   H     H_    0.541633 0.012296 0.142386 0.119779
H14   H     H_    0.412154 0.914812 0.944281 0.158276
H15   H     H_    0.563508 0.853999 0.959356 0.120355
H16   H     H_    0.444208 0.762296 0.019560 0.158221
H17   H     H_    0.733382 0.181601 0.723282 0.124207
H18   H     H_    0.734399 0.038293 0.826816 0.119036
H19   H     H_    0.686637 0.153159 0.027564 0.131435
H20   H     H_    0.825621 0.214125 0.977569 0.096987
H21   H     H_    0.684287 0.295553 0.924283 0.183493
H22   H     H_    0.432094 0.120294 0.276005 0.168646
H23   H     H_    0.561025 0.880930 0.725161 0.154222
H24   H     H_    0.971971 0.271950 0.427086 0.109078
H25   H     H_    0.915784 0.292153 0.239691 0.144211
H26   H     H_    0.698648 0.264750 0.271393 0.185257
H27   H     H_    0.790016 0.133218 0.336120 0.075289
H28   H     H_    0.755680 0.240496 0.461114 0.136323
N1    N     N_R   0.500030 0.500030 0.852080 -0.265441
N2    N     N_R   0.499970 0.499970 0.147920 -0.255899
O1    O     O_R   0.499990 0.319660 0.618740 -0.492468
O2    O     O_3   0.124683 0.547815 0.649961 -0.524670
O3    O     O_3   0.325966 0.365273 0.114961 -0.657533
O4    O     O_3   0.675148 0.633293 0.885505 -0.665371
O5    O     O_3   0.318001 0.366688 0.822737 -0.683319
O6    O     O_3   0.684277 0.629733 0.178103 -0.703285
O7    O     O_3   0.434320 0.884451 0.238090 -0.533641
O8    O     O_3   0.563433 0.117231 0.762212 -0.540429
O9    O     O_R   0.500010 0.680340 0.381260 -0.495705
O10   O     O_R   0.499990 0.319630 0.381170 -0.496269
O11   O     O_R   0.500010 0.680370 0.618830 -0.492146
O12   O     O_R   0.320690 0.500020 0.575130 -0.454189
O13   O     O_R   0.679310 0.499980 0.424870 -0.449389
O14   O     O_R   0.320680 0.499990 0.337560 -0.450205
O15   O     O_R   0.679320 0.500010 0.662440 -0.462957
O16   O     O_3   0.873798 0.435026 0.354521 -0.522430

loop_
_geom_bond_atom_site_label_1
_geom_bond_atom_site_label_2
_ccdc_geom_bond_type
C22   N2    A    
Cu1   O15   S    
C2    C4    D    
C12   O11   A    
C17   H15   S    
C8    O8    S    
C16   O7    S    
Cu2   N2    S    
C6    H23   S    
C7    O7    S    
C3    C26   D    
C14   O2    S    
C19   H21   S    
C15   H6    S    
C4    O16   S    
C11   H25   S    
C14   H3    S    
C13   H28   S    
C26   H12   S    
C3    O2    S    
C1    O10   A    
C2    C21   S    
C23   C25   A    
C17   H16   S    
C15   H4    S    
H7    O3    S    
Cu1   O1    S    
C22   O3    S    
C11   C13   S    
C20   O12   A    
C25   N2    A    
Cu2   O14   S    
Cu1   O12   S    
C20   C26   S    
C6    C9    A    
C2    H1    S    
H8    O4    S    
C18   H18   S    
Cu2   O10   S    
C14   H2    S    
C13   H26   S    
C24   O5    S    
C19   H19   S    
C1    O1    A    
C12   O9    A    
C22   C24   A    
C5    H22   S    
Cu2   O13   S    
C18   O8    S    
C9    C12   S    
C16   H11   S    
C3    C4    S    
C11   O16   S    
C18   H17   S    
C21   O15   A    
C5    C10   A    
Cu2   O9    S    
C21   O13   A    
C8    C10   A    
C18   C19   S    
Cu1   N1    S    
Cu1   Cu2   S    
C5    C7    A    
H10   O6    S    
C7    C9    A    
C14   C15   S    
C20   O14   A    
C6    C8    A    
C11   H24   S    
C23   N1    A    
H9    O5    S    
C17   H14   S    
C16   H13   S    
C15   H5    S    
C23   O4    S    
C1    C10   S    
C16   C17   S    
C19   H20   S    
C24   N1    A    
C13   H27   S    
C25   O6    S    
Cu1   O11   S    
