data_mof_unit_68497.cif
_audit_creation_date              2012-12-11T14:02:44-0500
_audit_creation_method            fapswitch 2.2
_symmetry_space_group_name_H-M    P1
_symmetry_Int_Tables_number       1
_space_group_crystal_system       triclinic
_cell_length_a                    7.184311
_cell_length_b                    11.606779
_cell_length_c                    12.808052
_cell_angle_alpha                 90.000129
_cell_angle_beta                  90.000145
_cell_angle_gamma                 90.00006
_cell_volume                      1068.02131835

loop_
_atom_site_label
_atom_site_type_symbol
_atom_type_description
_atom_site_fract_x
_atom_site_fract_y
_atom_site_fract_z
_atom_type_partial_charge
O1    O     O_R   0.563540 0.856420 0.141290 -0.520144
O2    O     O_R   0.436460 0.143580 0.858710 -0.528104
O3    O     O_R   0.436460 0.143580 0.641290 -0.520141
O4    O     O_R   0.563540 0.856420 0.358710 -0.528088
O5    O     O_R   0.063540 0.643580 0.358710 -0.520142
O6    O     O_R   0.936460 0.356420 0.641290 -0.528092
O7    O     O_R   0.936460 0.356420 0.858710 -0.520139
O8    O     O_R   0.063540 0.643580 0.141290 -0.528090
O9    O     O_R   0.233730 0.870400 0.357990 -0.547561
O10   O     O_R   0.766270 0.129600 0.642010 -0.541763
O11   O     O_R   0.766270 0.129600 0.857990 -0.547561
O12   O     O_R   0.233730 0.870400 0.142010 -0.541762
O13   O     O_R   0.733730 0.629600 0.142010 -0.547562
O14   O     O_R   0.266270 0.370400 0.857990 -0.541763
O15   O     O_R   0.266270 0.370400 0.642010 -0.547555
O16   O     O_R   0.733730 0.629600 0.357990 -0.541765
C1    C     C_R   0.404100 0.898309 0.392042 0.704844
C2    C     C_R   0.595896 0.100682 0.608574 0.694844
C3    C     C_R   0.595900 0.101691 0.892042 0.704837
C4    C     C_R   0.404103 0.899316 0.108573 0.694870
C5    C     C_R   0.904099 0.601691 0.107958 0.704841
C6    C     C_R   0.095897 0.399318 0.891426 0.694844
C7    C     C_R   0.095900 0.398309 0.607958 0.704853
C8    C     C_R   0.904103 0.600682 0.391426 0.694838
O17   O     O_3   0.396920 0.675570 0.250000 -0.382867
O18   O     O_3   0.603080 0.324430 0.750000 -0.382861
O19   O     O_3   0.896920 0.824430 0.250000 -0.382861
O20   O     O_3   0.103080 0.175570 0.750000 -0.382877
V1    V     V_3+5 0.122110 0.763800 0.250000 1.453912
V2    V     V_3+5 0.877890 0.236200 0.750000 1.453883
V3    V     V_3+5 0.622110 0.736200 0.250000 1.453903
V4    V     V_3+5 0.377890 0.263800 0.750000 1.453886
C9    C     C_2   0.922414 0.504760 0.468698 0.146136
C10   C     C_2   0.077304 0.494356 0.531270 0.184647
C11   C     C_2   0.077585 0.495241 0.968698 0.146142
C12   C     C_2   0.922696 0.505643 0.031270 0.184651
C13   C     C_2   0.422411 0.995236 0.031300 0.146141
C14   C     C_2   0.577301 0.005641 0.968728 0.184638
C15   C     C_2   0.577585 0.004759 0.531302 0.146141
C16   C     C_2   0.422695 0.994356 0.468730 0.184646
O21   O     O_3   0.799550 0.412656 0.461989 -0.588614
C17   C     C_3   0.622675 0.444489 0.499749 -0.126442
H1    H     H_    0.536274 0.480820 0.436008 0.168578
H2    H     H_    0.628912 0.504780 0.567480 0.131171
H3    H     H_    0.551885 0.365048 0.526439 0.162141
O22   O     O_3   0.218496 0.575691 0.526697 -0.561285
C18   C     C_3   0.202277 0.650008 0.613314 -0.283127
H4    H     H_    0.230010 0.603724 0.687775 0.143414
H5    H     H_    0.063068 0.692196 0.615764 0.122567
H6    H     H_    0.308095 0.719142 0.605743 0.167641
O23   O     O_3   0.200445 0.587346 0.961989 -0.588614
C19   C     C_3   0.377329 0.555514 0.999737 -0.126446
H7    H     H_    0.463725 0.519201 0.935986 0.168567
H8    H     H_    0.371111 0.495207 0.067458 0.131172
H9    H     H_    0.448112 0.634952 0.026439 0.162141
O24   O     O_3   0.781507 0.424305 0.026696 -0.561284
C20   C     C_3   0.797692 0.350009 0.113330 -0.283127
H10   H     H_    0.769890 0.396307 0.187777 0.143432
H11   H     H_    0.936916 0.307837 0.115820 0.122571
H12   H     H_    0.691902 0.280859 0.105746 0.167644
O25   O     O_3   0.299540 0.087335 0.038012 -0.588612
C21   C     C_3   0.122700 0.055510 0.000195 -0.126467
H13   H     H_    0.036279 0.019100 0.063883 0.168635
H14   H     H_    0.129003 0.995293 0.932417 0.131145
H15   H     H_    0.051889 0.134963 0.973559 0.162137
O26   O     O_3   0.718489 0.924303 0.973300 -0.561289
C22   C     C_3   0.702293 0.850003 0.886669 -0.283146
H16   H     H_    0.730082 0.896298 0.812219 0.143431
H17   H     H_    0.563070 0.807831 0.884187 0.122565
H18   H     H_    0.808085 0.780855 0.894249 0.167646
O27   O     O_3   0.700449 0.912655 0.538010 -0.588616
C23   C     C_3   0.877331 0.944491 0.500262 -0.126447
H19   H     H_    0.963733 0.980795 0.564016 0.168563
H20   H     H_    0.871111 0.004807 0.432547 0.131174
H21   H     H_    0.948110 0.865056 0.473551 0.162145
O28   O     O_3   0.281504 0.075692 0.473306 -0.561285
C24   C     C_3   0.297694 0.149995 0.386676 -0.283124
H22   H     H_    0.269902 0.103701 0.312226 0.143440
H23   H     H_    0.436916 0.192168 0.384194 0.122562
H24   H     H_    0.191900 0.219141 0.394260 0.167642

loop_
_geom_bond_atom_site_label_1
_geom_bond_atom_site_label_2
_ccdc_geom_bond_type
O17   V3    S    
O18   V4    S    
O12   V1    S    
O19   V1    S    
O21   C17   S    
C11   C12   D    
O15   V4    S    
C18   H5    S    
C5    C12   S    
C24   H22   S    
O16   V3    S    
C6    C11   S    
O11   C3    A    
C21   H13   S    
O8    V1    S    
C20   H11   S    
O1    V3    S    
O23   C19   S    
O24   C20   S    
O3    C2    A    
O2    V4    S    
C21   H14   S    
C14   O26   S    
O11   V2    S    
C10   O22   S    
C19   H9    S    
O9    V1    S    
O15   C7    A    
O26   C22   S    
O16   C8    A    
O7    V2    S    
O25   C21   S    
C17   H2    S    
C23   H21   S    
C19   H8    S    
O8    C5    A    
C18   H6    S    
O5    V1    S    
C24   H23   S    
C22   H16   S    
O28   C24   S    
C23   H20   S    
C15   C16   D    
C20   H12   S    
C16   O28   S    
C22   H17   S    
C17   H3    S    
C2    C15   S    
C13   C14   D    
C12   O24   S    
C3    C14   S    
O10   V2    S    
C18   H4    S    
C7    C10   S    
O12   C4    A    
C9    C10   D    
O13   C5    A    
O4    C1    A    
O9    C1    A    
O6    V2    S    
C11   O23   S    
C17   H1    S    
C19   H7    S    
C24   H24   S    
O22   C18   S    
O1    C4    A    
C21   H15   S    
O2    C3    A    
O13   V3    S    
O14   V4    S    
C23   H19   S    
C13   O25   S    
O7    C6    A    
C8    C9    S    
C22   H18   S    
C9    O21   S    
O14   C6    A    
O20   V2    S    
O27   C23   S    
C4    C13   S    
C20   H10   S    
O5    C8    A    
O10   C2    A    
O6    C7    A    
O3    V4    S    
O4    V3    S    
C15   O27   S    
C1    C16   S    
