data_mof_unit_34433.cif
_audit_creation_date              2012-12-10T18:01:17-0500
_audit_creation_method            fapswitch 2.2
_symmetry_space_group_name_H-M    P1
_symmetry_Int_Tables_number       1
_space_group_crystal_system       triclinic
_cell_length_a                    9.559507
_cell_length_b                    10.822074
_cell_length_c                    17.340533
_cell_angle_alpha                 91.585025
_cell_angle_beta                  84.623015
_cell_angle_gamma                 89.522659
_cell_volume                      1785.25733604

loop_
_atom_site_label
_atom_site_type_symbol
_atom_type_description
_atom_site_fract_x
_atom_site_fract_y
_atom_site_fract_z
_atom_type_partial_charge
C1    C     C_R   0.499688 0.737799 0.500096 0.787848
C2    C     C_R   0.500447 0.262182 0.499077 0.846751
C3    C     C_R   0.627145 0.935072 0.498763 -0.171737
C4    C     C_R   0.373051 0.064886 0.499925 -0.149111
C5    C     C_R   0.627595 0.062837 0.498257 -0.173037
C6    C     C_R   0.372598 0.937119 0.500426 -0.166545
C7    C     C_R   0.500556 0.128245 0.498893 0.007600
C8    C     C_R   0.499636 0.871706 0.499833 -0.020787
C9    C     C_R   0.913950 0.567468 0.554061 -0.007177
C10   C     C_R   0.086149 0.432609 0.445921 0.006990
C11   C     C_R   0.062262 0.568357 0.554869 0.098103
C12   C     C_R   0.937825 0.431271 0.445287 0.104023
C13   C     C_R   0.480182 0.500309 0.649396 0.894709
C14   C     C_R   0.519319 0.503783 0.349898 0.841943
C15   C     C_R   0.466308 0.504397 0.733232 -0.075481
C16   C     C_R   0.530678 0.502854 0.264612 -0.107446
C17   C     C_R   0.480517 0.397265 0.776474 -0.111683
C18   C     C_R   0.410672 0.519241 0.223458 -0.121572
C19   C     C_R   0.474892 0.409295 0.857842 0.386296
C20   C     C_R   0.419389 0.486143 0.144340 0.395418
C21   C     C_R   0.472694 0.528690 0.893841 -0.007285
C22   C     C_R   0.552870 0.471043 0.102501 0.010508
C23   C     C_R   0.452238 0.632422 0.849500 -0.200741
C24   C     C_R   0.672029 0.461432 0.143088 -0.243625
C25   C     C_R   0.447698 0.620203 0.770112 -0.234439
C26   C     C_R   0.660512 0.473367 0.223395 -0.223235
C27   C     C_2   0.489026 0.549198 0.977499 0.348141
C28   C     C_2   0.571252 0.473566 0.016626 0.354691
Cu1   Cu    Cu3+1 0.359340 0.499980 0.500000 0.974002
Cu2   Cu    Cu3+1 0.640660 0.500020 0.500000 0.946920
H1    H     H_    0.754173 0.461291 0.253038 0.197968
H2    H     H_    0.435857 0.702318 0.736772 0.143134
H3    H     H_    0.443284 0.724197 0.875692 0.170531
H4    H     H_    0.774733 0.445811 0.112776 0.173642
H5    H     H_    0.726606 0.886227 0.498279 0.159485
H6    H     H_    0.273584 0.113745 0.500490 0.155393
H7    H     H_    0.727165 0.110079 0.497445 0.150138
H8    H     H_    0.273013 0.889886 0.501307 0.157104
H9    H     H_    0.847587 0.622110 0.596311 0.172760
H10   H     H_    0.152683 0.378130 0.403662 0.162289
N1    N     N_R   0.147930 0.499970 0.499980 -0.222426
N2    N     N_R   0.852070 0.500030 0.500020 -0.227802
O1    O     O_R   0.381260 0.680340 0.500000 -0.602276
O2    O     O_R   0.618740 0.319660 0.500000 -0.614299
O3    O     O_R   0.618830 0.680370 0.500010 -0.591613
O4    O     O_R   0.381170 0.319630 0.499990 -0.583753
O5    O     O_R   0.367440 0.500000 0.613600 -0.590126
O6    O     O_R   0.632560 0.500000 0.386400 -0.617442
O7    O     O_R   0.605010 0.500030 0.613600 -0.581600
O8    O     O_R   0.394990 0.499970 0.386400 -0.557888
C29   C     C_2   0.503444 0.272393 0.739144 0.333206
H11   H     H_    0.553253 0.200163 0.769344 0.117818
O9    O     O_2   0.463932 0.247439 0.675753 -0.564936
C30   C     C_2   0.277959 0.578671 0.258613 0.415038
H12   H     H_    0.177290 0.549576 0.240805 0.096934
O10   O     O_2   0.280494 0.666593 0.304138 -0.536842
O11   O     O_3   0.673248 0.396070 0.977967 -0.579229
C31   C     C_3   0.785429 0.467199 0.944231 0.019724
H13   H     H_    0.838123 0.518121 0.989858 0.126823
H14   H     H_    0.748611 0.535237 0.903429 0.135819
C32   C     C_3   0.892476 0.380893 0.898652 -0.317181
H15   H     H_    0.931392 0.311744 0.937995 0.218539
H16   H     H_    0.840546 0.330638 0.852543 0.233271
C33   C     C_3   0.016924 0.452453 0.861295 -0.887111
H17   H     H_    0.980297 0.522065 0.821579 0.292498
H18   H     H_    0.090826 0.387624 0.827190 0.249797
H19   H     H_    0.073786 0.499934 0.906425 0.256985
O12   O     O_3   0.412363 0.646401 0.015603 -0.580768
C34   C     C_3   0.504145 0.741395 0.036018 0.002590
H20   H     H_    0.558535 0.781726 0.983139 0.126243
H21   H     H_    0.585182 0.707085 0.072454 0.136985
C35   C     C_3   0.418348 0.842574 0.082545 -0.279945
H22   H     H_    0.336068 0.878552 0.047610 0.217825
H23   H     H_    0.365390 0.802801 0.135931 0.244456
C36   C     C_3   0.511248 0.949024 0.105336 -0.914715
H24   H     H_    0.590178 0.915841 0.143325 0.266381
H25   H     H_    0.445336 0.022138 0.137364 0.253233
H26   H     H_    0.566461 0.989585 0.052901 0.263589
O13   O     O_3   0.297963 0.479028 0.106846 -0.591554
C37   C     C_3   0.234355 0.363717 0.122167 0.021538
H27   H     H_    0.230159 0.340388 0.184639 0.140686
H28   H     H_    0.294673 0.289789 0.087685 0.147757
C38   C     C_3   0.083622 0.368006 0.099809 -0.325776
H29   H     H_    0.022472 0.437717 0.137644 0.220968
H30   H     H_    0.083119 0.396817 0.038921 0.218122
C39   C     C_3   0.013262 0.242464 0.108657 -0.894699
H31   H     H_    0.072978 0.171247 0.071474 0.237780
H32   H     H_    0.904943 0.247963 0.090782 0.264889
H33   H     H_    0.007607 0.214389 0.169977 0.295183
O14   O     O_3   0.474434 0.304332 0.901716 -0.567783
C40   C     C_3   0.336588 0.257191 0.910419 0.059301
H34   H     H_    0.288640 0.248987 0.854364 0.131981
H35   H     H_    0.268588 0.319402 0.950054 0.130768
C41   C     C_3   0.338690 0.128833 0.945001 -0.337925
H36   H     H_    0.387098 0.133750 0.000708 0.223670
H37   H     H_    0.228939 0.096530 0.956675 0.168656
C42   C     C_3   0.420414 0.035197 0.890321 -0.777393
H38   H     H_    0.376522 0.031074 0.833227 0.243227
H39   H     H_    0.412422 0.942249 0.915490 0.222153
H40   H     H_    0.533142 0.060224 0.882187 0.268149
C43   C     C_2   0.119588 0.646088 0.616024 0.344588
H41   H     H_    0.225176 0.679859 0.610089 0.126366
O15   O     O_2   0.046423 0.675805 0.675304 -0.588081
C44   C     C_2   0.880761 0.352142 0.384685 0.302649
H42   H     H_    0.774257 0.320719 0.389884 0.139745
O16   O     O_2   0.955220 0.318452 0.326670 -0.615252

loop_
_geom_bond_atom_site_label_1
_geom_bond_atom_site_label_2
_ccdc_geom_bond_type
C4    H6    S    
C35   H23   S    
C43   H41   S    
C5    H7    S    
C32   C33   S    
C1    C8    S    
Cu2   O3    S    
C2    C7    S    
C17   C29   S    
C44   O16   D    
C42   H38   S    
O11   C31   S    
C28   O11   S    
C2    O4    A    
C9    N2    A    
Cu1   O5    S    
C22   C24   A    
Cu2   O6    S    
C19   C21   A    
C24   C26   A    
C12   C44   S    
C35   C36   S    
C39   H32   S    
C15   C25   A    
C31   H14   S    
C9    H9    S    
C32   H16   S    
C34   H21   S    
C12   N2    A    
C27   O12   S    
C1    O1    A    
C2    O2    A    
O12   C34   S    
C23   H3    S    
C6    H8    S    
C31   C32   S    
C21   C27   S    
C26   H1    S    
C43   O15   D    
C22   C28   S    
Cu1   O1    S    
C10   N1    A    
Cu2   O2    S    
C32   H15   S    
C4    C7    A    
C44   H42   S    
C42   H39   S    
Cu1   O8    S    
C16   C26   A    
C30   O10   D    
C29   H11   S    
C33   H19   S    
C37   H28   S    
C3    C8    A    
C40   H34   S    
C5    C7    A    
C39   H31   S    
C37   H27   S    
C14   O6    A    
C41   C42   S    
C31   H13   S    
C24   H4    S    
C29   O9    D    
C33   H18   S    
C34   C35   S    
C36   H24   S    
Cu1   Cu2   S    
C40   H35   S    
C36   H25   S    
C38   H29   S    
C3    H5    S    
C41   H36   S    
C11   C43   S    
C41   H37   S    
C9    C11   A    
C10   C12   A    
C13   O7    A    
C4    C6    A    
C38   H30   S    
Cu2   O7    S    
C20   C22   A    
C13   C15   S    
C14   C16   S    
C42   H40   S    
C13   O5    A    
C15   C17   A    
C30   H12   S    
C20   O13   S    
Cu1   N1    S    
C35   H22   S    
C3    C5    A    
C39   H33   S    
C6    C8    A    
Cu1   O4    S    
C33   H17   S    
C21   C23   A    
C19   O14   S    
C40   C41   S    
C1    O3    A    
O14   C40   S    
C14   O8    A    
C25   H2    S    
C37   C38   S    
C17   C19   A    
C11   N1    A    
C18   C20   A    
C23   C25   A    
C34   H20   S    
C36   H26   S    
C18   C30   S    
O13   C37   S    
C38   C39   S    
C16   C18   A    
C27   C28   D    
Cu2   N2    S    
C10   H10   S    
