data_mof_unit_5494.cif
_audit_creation_date              2013-03-05T16:47:54-0500
_audit_creation_method            fapswitch 2.2
_symmetry_space_group_name_H-M    P1
_symmetry_Int_Tables_number       1
_space_group_crystal_system       triclinic
_cell_length_a                    8.098186
_cell_length_b                    8.934287
_cell_length_c                    16.209942
_cell_angle_alpha                 90.379576
_cell_angle_beta                  85.168473
_cell_angle_gamma                 89.740517
_cell_volume                      1168.60563453

loop_
_atom_site_label
_atom_site_type_symbol
_atom_site_description
_atom_site_fract_x
_atom_site_fract_y
_atom_site_fract_z
_atom_type_partial_charge
O1    O     O_R   0.363150 0.714660 0.500000 -0.609441
O2    O     O_R   0.636850 0.285340 0.500000 -0.618776
O3    O     O_R   0.636850 0.714660 0.500000 -0.624835
O4    O     O_R   0.363150 0.285340 0.500000 -0.610380
C1    C     C_R   0.499775 0.782074 0.499900 0.978582
C2    C     C_R   0.500236 0.217919 0.499984 0.927927
O5    O     O_R   0.346950 0.500000 0.615800 -0.601663
O6    O     O_R   0.653050 0.500000 0.384200 -0.568445
O7    O     O_R   0.620700 0.500000 0.615800 -0.615920
O8    O     O_R   0.379300 0.500000 0.384200 -0.624227
C3    C     C_R   0.476339 0.510691 0.654942 0.969351
C4    C     C_R   0.522815 0.499943 0.344136 0.916552
Zn1   Zn    Zn3+2 0.317220 0.500000 0.500010 0.973177
Zn2   Zn    Zn3+2 0.682780 0.500000 0.499990 0.986955
N1    N     N_1   0.926360 0.500000 0.499990 -0.035823
N2    N     N_1   0.073640 0.500000 0.500010 -0.050369
C5    C     C_R   0.455543 0.574638 0.738748 -0.285385
C6    C     C_R   0.534416 0.531387 0.254570 -0.299696
C7    C     C_R   0.542009 0.516452 0.801932 -0.383678
C8    C     C_R   0.388346 0.568790 0.219924 -0.382479
C9    C     C_R   0.525255 0.581122 0.881178 0.514476
C10   C     C_R   0.389863 0.654456 0.148410 0.415278
C11   C     C_R   0.427065 0.712141 0.896807 -0.236216
C12   C     C_R   0.543266 0.691004 0.103819 -0.197937
C13   C     C_R   0.328148 0.762405 0.834302 0.406263
C14   C     C_R   0.691924 0.630358 0.132157 0.430295
C15   C     C_R   0.348883 0.698977 0.754355 0.403225
C16   C     C_R   0.687168 0.550763 0.207500 0.394663
C17   C     C_2   0.422904 0.793382 0.978333 0.533263
C18   C     C_2   0.552401 0.784705 0.025888 0.488448
C19   C     C_1   0.499629 0.934809 0.499979 -0.174887
C20   C     C_1   0.500309 0.065152 0.500004 -0.195618
H1    H     H_    0.621760 0.419597 0.790123 0.190114
H2    H     H_    0.269764 0.542269 0.252306 0.219416
O9    O     O_3   0.218485 0.880582 0.848534 -0.574071
C21   C     C_3   0.059162 0.822722 0.872664 -0.168788
H3    H     H_    0.045153 0.799779 0.939732 0.251357
H4    H     H_    0.029219 0.717319 0.840336 0.101759
H5    H     H_    0.964947 0.907617 0.859216 0.185055
O10   O     O_3   0.843999 0.661732 0.090072 -0.552699
C22   C     C_3   0.919238 0.530143 0.055208 -0.063452
H6    H     H_    0.830676 0.439189 0.043609 0.118998
H7    H     H_    0.013386 0.488124 0.095321 0.182706
H8    H     H_    0.985326 0.558032 0.994676 0.161905
O11   O     O_3   0.239449 0.698101 0.121772 -0.574047
C23   C     C_3   0.158756 0.799553 0.179465 -0.137537
H9    H     H_    0.244956 0.884834 0.201828 0.101326
H10   H     H_    0.094864 0.739033 0.232495 0.175250
H11   H     H_    0.062215 0.860994 0.148500 0.211801
O12   O     O_3   0.604370 0.514276 0.943604 -0.592095
C24   C     C_3   0.509078 0.390581 0.972603 -0.406240
H12   H     H_    0.513375 0.300349 0.924918 0.176972
H13   H     H_    0.378279 0.423220 0.991761 0.171823
H14   H     H_    0.562216 0.344685 0.028052 0.170064
O13   O     O_3   0.834896 0.507142 0.237684 -0.577988
C25   C     C_3   0.847524 0.349192 0.234707 -0.321317
H15   H     H_    0.824724 0.302804 0.172813 0.110098
H16   H     H_    0.761447 0.296190 0.282699 0.170068
H17   H     H_    0.975377 0.316861 0.247286 0.184224
O14   O     O_3   0.290944 0.775774 0.688299 -0.590684
C26   C     C_3   0.124091 0.739313 0.678555 -0.164098
H18   H     H_    0.086420 0.626763 0.702628 0.120762
H19   H     H_    0.105570 0.739535 0.611624 0.190353
H20   H     H_    0.041041 0.827559 0.707252 0.165432
O15   O     O_3   0.705845 0.824680 0.988829 -0.585719
C27   C     C_3   0.748353 0.963871 0.022973 -0.347829
H21   H     H_    0.732187 0.965410 0.091979 0.155661
H22   H     H_    0.675791 0.055908 0.997528 0.136665
H23   H     H_    0.880787 0.987002 0.005461 0.204335
O16   O     O_3   0.281557 0.874295 0.005271 -0.573474
C28   C     C_3   0.320452 0.025485 0.019108 -0.332342
H24   H     H_    0.387976 0.074410 0.963265 0.175750
H25   H     H_    0.391826 0.038297 0.074353 0.128779
H26   H     H_    0.203072 0.089290 0.031535 0.179027

loop_
_geom_bond_atom_site_label_1
_geom_bond_atom_site_label_2
_geom_bond_distance
_ccdc_geom_bond_type
C28   H26   1.109243 S    
C27   H22   1.110188 S    
O7    Zn2   1.902082 S    
C17   C18   1.355076 D    
C13   C15   1.407656 A    
O7    C3    1.285165 A    
C22   H6    1.111770 S    
C14   C16   1.415138 A    
C19   C20   1.164556 T    
C25   H17   1.109347 S    
O6    C4    1.284317 A    
C24   H14   1.108889 S    
C8    H2    1.082883 S    
C10   O11   1.381587 S    
O13   C25   1.414616 S    
C21   H4    1.112272 S    
O12   C24   1.411127 S    
C28   H24   1.110643 S    
C23   H9    1.114904 S    
O11   C23   1.415506 S    
C26   H20   1.108134 S    
O5    C3    1.273466 A    
C22   H7    1.108684 S    
C23   H11   1.109217 S    
C14   O10   1.387361 S    
O2    C2    1.262092 A    
O3    Zn2   1.951912 S    
O8    C4    1.282710 A    
C13   O9    1.382184 S    
O1    C1    1.262006 A    
C11   C17   1.501322 S    
O10   C22   1.414039 S    
C7    C9    1.400871 A    
C16   O13   1.385423 S    
C25   H16   1.109899 S    
C27   H21   1.115197 S    
C12   C18   1.516889 S    
C15   O14   1.388855 S    
C11   C13   1.417547 A    
C9    C11   1.421399 A    
C26   H18   1.115530 S    
O2    Zn2   1.955222 S    
C22   H8    1.107839 S    
C10   C12   1.424041 A    
C27   H23   1.106792 S    
O1    Zn1   1.955221 S    
C8    C10   1.392555 A    
C24   H13   1.115371 S    
C24   H12   1.111553 S    
C18   O15   1.383345 S    
C23   H10   1.110303 S    
O3    C1    1.260656 A    
C28   H25   1.111562 S    
O5    Zn1   1.912335 S    
O16   C28   1.409204 S    
C6    C16   1.409622 A    
C25   H15   1.113036 S    
C6    C8    1.391812 A    
O4    C2    1.260617 A    
O15   C27   1.413566 S    
C7    H1    1.083728 S    
Zn1   N2    1.972556 S    
C4    C6    1.475911 S    
O4    Zn1   1.951912 S    
C26   H19   1.107723 S    
Zn2   N1    1.972556 S    
C21   H3    1.104182 S    
C2    C20   1.364860 S    
O6    Zn2   1.912335 S    
C9    O12   1.380185 S    
C5    C7    1.390739 A    
C17   O16   1.388386 S    
O8    Zn1   1.902082 S    
C21   H5    1.109007 S    
C3    C5    1.466479 S    
N1    N2    1.192728 T    
C12   C14   1.429824 A    
O14   C26   1.412829 S    
C1    C19   1.364571 S    
O9    C21   1.417251 S    
C5    C15   1.412405 A    
