data_mof_unit_67086.cif
_audit_creation_date              2013-03-05T15:58:17-0500
_audit_creation_method            fapswitch 2.2
_symmetry_space_group_name_H-M    P1
_symmetry_Int_Tables_number       1
_space_group_crystal_system       triclinic
_cell_length_a                    8.192753
_cell_length_b                    12.670632
_cell_length_c                    14.291953
_cell_angle_alpha                 93.109279
_cell_angle_beta                  90.724693
_cell_angle_gamma                 97.884571
_cell_volume                      1467.11842511

loop_
_atom_site_label
_atom_site_type_symbol
_atom_site_description
_atom_site_fract_x
_atom_site_fract_y
_atom_site_fract_z
_atom_type_partial_charge
P1    P     P_3+3 0.054400 0.427280 0.286870 0.442262
O1    O     O_2   0.887370 0.460630 0.272300 -0.414168
O2    O     O_3   0.129410 0.451380 0.388510 -0.364974
O3    O     O_3   0.670210 0.653170 0.329170 -0.382827
O4    O     O_2   0.799024 0.602844 0.164580 -0.394464
O5    O     O_3   0.056206 0.291442 0.259024 -0.664509
O6    O     O_3   0.688371 0.787179 0.176919 -0.543443
H1    H     H_    0.764982 0.867943 0.302007 0.168758
C1    C     C_3   0.617038 0.959274 0.221383 -0.940431
H2    H     H_    0.634100 0.019809 0.281386 0.284188
H3    H     H_    0.698216 0.984208 0.162060 0.280354
P2    P     P_3+3 0.668300 0.742890 0.573060 0.447250
P3    P     P_3+3 0.130488 0.842970 0.377505 0.441444
O7    O     O_2   0.845380 0.761330 0.544970 -0.363302
O8    O     O_3   0.088930 0.704860 0.376040 -0.370970
O9    O     O_2   0.998889 0.887659 0.438582 -0.394675
O10   O     O_3   0.679471 0.764880 0.694964 -0.594161
O11   O     O_3   0.092526 0.883450 0.264975 -0.550173
C2    C     C_3   0.169098 0.821530 0.198472 0.349291
H4    H     H_    0.097750 0.740344 0.189052 0.118575
H5    H     H_    0.295332 0.811880 0.221789 0.023885
C3    C     C_3   0.177345 0.877263 0.104562 -0.380682
H6    H     H_    0.180600 0.965267 0.119880 0.212173
C4    C     C_3   0.233656 0.763752 0.660367 0.368155
H7    H     H_    0.366048 0.756368 0.656833 0.102157
H8    H     H_    0.169383 0.733014 0.593374 0.139376
C5    C     C_3   0.213229 0.880867 0.674845 -0.898471
H9    H     H_    0.247767 0.909727 0.748132 0.263353
H10   H     H_    0.291589 0.929786 0.625764 0.232893
H11   H     H_    0.081841 0.890173 0.663063 0.264946
Ba1   Ba    Ba6+2 0.855630 0.555280 0.454520 1.534481
C6    C     C_3   0.901995 0.229726 0.240435 1.103265
H12   H     H_    0.801536 0.278849 0.231145 0.016273
C7    C     C_3   0.915493 0.165011 0.147504 -1.103951
H13   H     H_    0.794473 0.150904 0.109455 0.228185
H14   H     H_    0.958590 0.086667 0.160222 0.277790
H15   H     H_    0.008388 0.209215 0.101997 0.245764
C8    C     C_3   0.708376 0.672127 0.737328 0.353494
H16   H     H_    0.831453 0.652947 0.718082 0.095148
H17   H     H_    0.613396 0.603598 0.716105 0.125647
C9    C     C_3   0.700737 0.691740 0.843688 -0.642965
H18   H     H_    0.723386 0.619222 0.879000 0.188334
H19   H     H_    0.575332 0.708724 0.862574 0.215745
P4    P     P_3+3 0.135310 0.572810 0.713130 0.453551
O12   O     O_2   0.302330 0.539400 0.727760 -0.375348
O13   O     O_3   0.060300 0.548700 0.611500 -0.394424
O14   O     O_3   0.519500 0.346920 0.670840 -0.384289
O15   O     O_3   0.168655 0.710895 0.737778 -0.589470
P5    P     P_3+3 0.057110 0.156363 0.627670 0.428051
O16   O     O_3   0.614310 0.373510 0.452640 -0.386108
O17   O     O_3   0.100780 0.295230 0.623970 -0.371814
O18   O     O_2   0.186998 0.109310 0.566620 -0.403877
O19   O     O_3   0.102922 0.124285 0.741530 -0.513926
Ba2   Ba    Ba6+2 0.334200 0.444810 0.545490 1.541352
P6    P     P_3+3 0.654435 0.654331 0.207464 0.449430
C10   C     C_3   0.655042 0.853369 0.254471 0.434500
H20   H     H_    0.547161 0.818547 0.293974 0.045377
H21   H     H_    0.486249 0.953717 0.197205 0.245334
O20   O     O_3   0.575400 0.626570 0.547370 -0.400416
C11   C     C_3   0.472930 0.307912 0.259901 0.410131
H22   H     H_    0.361640 0.334266 0.291535 0.132524
H23   H     H_    0.576703 0.374136 0.268971 0.101546
C12   C     C_3   0.439596 0.282440 0.155535 -1.013758
H24   H     H_    0.332497 0.218743 0.144687 0.279623
H25   H     H_    0.412158 0.354554 0.121190 0.230996
H26   H     H_    0.549323 0.255037 0.122345 0.249157
P7    P     P_3+3 0.527130 0.241214 0.422636 0.444715
O21   O     O_2   0.344320 0.238700 0.455090 -0.386300
O22   O     O_3   0.512396 0.216225 0.300986 -0.567235
C13   C     C_3   0.019141 0.187532 0.802979 0.471916
H27   H     H_    0.058216 0.274645 0.794729 0.119050
H28   H     H_    0.883669 0.168075 0.790987 0.014729
C14   C     C_3   0.057645 0.164780 0.903429 -0.960889
H29   H     H_    0.188001 0.199124 0.922867 0.291850
H30   H     H_    0.971502 0.204221 0.948745 0.216862
H31   H     H_    0.039251 0.076794 0.913165 0.260025
P8    P     P_3+3 0.534710 0.345832 0.793008 0.451235
C15   C     C_3   0.522961 0.142940 0.756697 0.510133
H32   H     H_    0.639142 0.172710 0.722044 0.014500
O23   O     O_2   0.399797 0.407093 0.835037 -0.382348
O24   O     O_3   0.480059 0.215338 0.827208 -0.517438
H33   H     H_    0.422518 0.127681 0.702884 0.156567
H34   H     H_    0.660896 0.048538 0.843067 0.257965
C16   C     C_3   0.545383 0.038511 0.800006 -1.062899
H35   H     H_    0.551741 0.975102 0.744105 0.246913
H36   H     H_    0.440011 0.014000 0.845919 0.277895
C17   C     C_R   0.983122 0.447129 0.061567 -0.141912
C18   C     C_R   0.181102 0.500590 0.197040 0.272692
C19   C     C_R   0.337367 0.549421 0.226657 -0.527198
C20   C     C_R   0.452116 0.591363 0.162844 0.279496
C21   C     C_R   0.408841 0.592186 0.068095 -0.332100
C22   C     C_R   0.249977 0.548567 0.035508 0.056708
C23   C     C_R   0.136125 0.497954 0.098934 -0.008755
H37   H     H_    0.372757 0.550962 0.299968 0.177586
C24   C     C_R   0.053283 0.503157 0.902553 -0.000545
C25   C     C_R   0.940566 0.450344 0.965535 0.077620
C26   C     C_R   0.008311 0.501277 0.804576 0.255538
C27   C     C_R   0.854510 0.448192 0.774335 -0.547316
C28   C     C_R   0.740705 0.403362 0.837481 0.249676
C29   C     C_R   0.783949 0.402519 0.932326 -0.325569
C30   C     C_R   0.206176 0.553879 0.939862 -0.145575
H38   H     H_    0.498599 0.628439 0.020259 0.157788
H39   H     H_    0.694952 0.364956 0.979976 0.159671
H40   H     H_    0.819437 0.446508 0.700945 0.178917
H41   H     H_    0.894565 0.404812 0.106286 0.137897
H42   H     H_    0.293988 0.596840 0.895036 0.158968
C31   C     C_R   0.755723 0.177387 0.543017 -0.471899
C32   C     C_R   0.425373 0.814216 0.466056 -0.529464
C33   C     C_R   0.401720 0.995471 0.431923 -0.215354
C34   C     C_R   0.336951 0.888211 0.427655 0.227889
C35   C     C_R   0.573237 0.847003 0.515559 0.279855
C36   C     C_R   0.636259 0.957696 0.526178 -0.061313
C37   C     C_R   0.550743 0.032112 0.481235 -0.073854
C38   C     C_R   0.614972 0.141578 0.488408 0.328665
C39   C     C_R   0.845447 0.105547 0.583513 0.150230
C40   C     C_R   0.783096 0.996552 0.578043 -0.191748
H43   H     H_    0.331522 0.049039 0.398110 0.175843
H44   H     H_    0.851843 0.943505 0.612874 0.177544
H45   H     H_    0.803419 0.261582 0.547542 0.172807
H46   H     H_    0.375092 0.730553 0.460653 0.176655
O25   O     O_3   0.858251 0.156422 0.311657 -0.693893
C41   C     C_3   0.991447 0.151732 0.376576 -0.011799
H47   H     H_    0.005869 0.225826 0.425050 0.158873
H48   H     H_    0.111402 0.142280 0.341818 0.155462
H49   H     H_    0.962956 0.079084 0.416089 0.163100
N1    N     N_3   0.822278 0.781185 0.877981 -0.185011
H50   H     H_    0.938848 0.768139 0.854951 0.172505
H51   H     H_    0.794613 0.851380 0.850045 0.189690
N2    N     N_3   0.328597 0.861370 0.054636 -0.200694
H52   H     H_    0.333049 0.905529 0.994639 0.149629
H53   H     H_    0.322551 0.780717 0.031557 0.134440
N3    N     N_3   0.032215 0.838552 0.044449 -0.206278
H54   H     H_    0.025600 0.755435 0.031116 0.143997
H55   H     H_    0.925453 0.853601 0.079699 0.206127

loop_
_geom_bond_atom_site_label_1
_geom_bond_atom_site_label_2
_geom_bond_distance
_ccdc_geom_bond_type
O5    C6    1.405778 S    
C12   H25   1.108412 S    
N1    H50   1.045520 S    
C5    H10   1.112557 S    
C7    H15   1.118481 S    
C9    H19   1.111806 S    
C14   H29   1.122049 S    
C32   H46   1.081618 S    
C2    H4    1.111757 S    
C4    C5    1.519389 S    
O6    P6    1.748038 S    
O7    Ba1   2.862013 S    
H1    C10   1.110056 S    
C26   C27   1.396106 A    
C33   H43   1.077309 S    
N2    H53   1.051056 S    
O16   Ba2   2.891251 S    
P3    O11   1.751283 S    
C11   C12   1.522137 S    
C2    H5    1.107240 S    
P7    C38   1.832006 S    
C4    H8    1.111848 S    
C7    H13   1.112611 S    
P6    C20   1.829193 S    
C8    H16   1.103840 S    
O2    Ba2   2.796213 S    
P5    O19   1.747072 S    
Ba2   O21   2.862231 S    
C39   C40   1.402868 A    
C25   C29   1.406747 A    
P1    Ba1   3.380100 S    
C10   H20   1.107804 S    
C11   H23   1.110583 S    
P1    O1    1.501841 D    
C9    H18   1.108206 S    
Ba1   O20   2.892029 S    
C19   H37   1.082032 S    
P2    O20   1.585177 S    
C35   C36   1.425837 A    
C32   C34   1.391801 A    
N3    H54   1.053881 S    
P5    O17   1.750603 S    
Ba1   O13   2.795648 S    
P2    O10   1.748646 S    
C13   H27   1.119297 S    
C1    H2    1.113308 S    
C33   C37   1.410704 A    
P1    C18   1.867394 S    
C12   H26   1.110072 S    
C5    H11   1.110556 S    
C14   H30   1.113771 S    
O6    C10   1.405719 S    
O19   C13   1.405156 S    
C6    O25   1.430982 S    
C31   H45   1.082792 S    
C36   C37   1.424095 A    
P4    O13   1.567957 S    
Ba2   O20   2.820088 S    
P7    O21   1.570157 D    
C4    O15   1.397714 S    
C2    C3    1.548110 S    
C4    H7    1.102948 S    
C8    C9    1.530371 S    
C21   C22   1.405610 A    
C15   H32   1.107814 S    
O11   C2    1.407727 S    
C29   H39   1.083723 S    
P1    O5    1.747507 S    
O3    P6    1.743589 S    
C11   H22   1.106714 S    
P1    O2    1.568076 S    
C6    C7    1.535939 S    
C31   C38   1.392834 A    
P3    C34   1.833633 S    
C15   C16   1.523271 S    
P4    C26   1.875196 S    
C15   H33   1.109169 S    
C28   C29   1.397683 A    
C17   H41   1.079135 S    
P8    O24   1.750237 S    
P5    O18   1.546046 D    
C17   C25   1.415910 A    
O13   Ba2   2.896130 S    
C13   C14   1.517245 S    
C1    C10   1.516900 S    
C16   H35   1.108789 S    
O2    Ba1   2.895371 S    
C1    H3    1.116540 S    
C31   C39   1.390642 A    
O25   C41   1.432949 S    
C22   C30   1.416377 A    
O14   Ba2   2.782338 S    
P5    C39   1.855225 S    
P2    O7    1.500805 D    
O12   Ba2   2.838128 S    
P3    O8    1.735231 S    
C3    N2    1.469856 S    
C14   H31   1.120799 S    
H34   C16   1.110983 S    
O14   P8    1.749826 S    
Ba1   O16   2.820757 S    
C41   H48   1.124767 S    
C19   C20   1.391104 A    
C36   C40   1.419294 A    
P4    O12   1.502199 D    
C37   C38   1.412149 A    
O16   P7    1.757759 S    
P8    O23   1.544878 D    
C30   H42   1.079974 S    
C18   C23   1.442689 A    
C1    H21   1.113474 S    
N1    H51   1.045650 S    
C3    N3    1.470002 S    
C9    N1    1.460802 S    
O4    P6    1.546442 D    
C16   H36   1.111380 S    
C24   C26   1.441537 A    
O8    Ba1   2.791848 S    
C32   C35   1.396069 A    
O17   Ba2   2.792436 S    
C6    H12   1.108673 S    
C41   H49   1.105204 S    
N2    H52   1.047327 S    
P2    Ba1   3.392090 S    
P4    O15   1.749142 S    
C33   C34   1.387327 A    
C8    H17   1.109757 S    
C15   O24   1.406307 S    
C20   C21   1.396397 A    
C11   O22   1.404000 S    
C27   H40   1.082336 S    
C17   C23   1.412619 A    
C22   C23   1.422442 A    
C40   H44   1.072317 S    
P8    C28   1.835390 S    
C7    H14   1.121248 S    
O10   C8    1.397764 S    
Ba1   Ba2   4.538331 S    
O3    Ba1   2.782927 S    
C12   H24   1.110859 S    
P4    Ba2   3.380549 S    
C18   C19   1.393394 A    
N3    H55   1.049619 S    
C27   C28   1.392145 A    
P3    O9    1.543601 D    
C24   C25   1.423950 A    
C3    H6    1.121251 S    
O1    Ba1   2.837611 S    
C13   H28   1.112447 S    
C21   H38   1.083184 S    
P7    O22   1.749879 S    
C41   H47   1.127944 S    
P2    C35   1.845393 S    
C24   C30   1.411195 A    
C5    H9    1.110596 S    
