data_mof_unit_10614.cif
_audit_creation_date              2012-12-10T17:51:22-0500
_audit_creation_method            fapswitch 2.2
_symmetry_space_group_name_H-M    P1
_symmetry_Int_Tables_number       1
_space_group_crystal_system       triclinic
_cell_length_a                    14.733247
_cell_length_b                    14.577058
_cell_length_c                    17.316169
_cell_angle_alpha                 106.320433
_cell_angle_beta                  73.401269
_cell_angle_gamma                 115.345259
_cell_volume                      3166.37329222

loop_
_atom_site_label
_atom_site_type_symbol
_atom_type_description
_atom_site_fract_x
_atom_site_fract_y
_atom_site_fract_z
_atom_type_partial_charge
C1    C     C_R   0.118802 0.689499 0.515799 0.888044
C2    C     C_R   0.880862 0.310334 0.486048 0.871992
C3    C     C_R   0.185380 0.800670 0.533324 -0.162401
C4    C     C_R   0.812593 0.199597 0.486047 -0.165328
C5    C     C_R   0.217285 0.985233 0.574192 0.404122
C6    C     C_R   0.779781 0.017378 0.476466 0.372834
C7    C     C_R   0.148575 0.881981 0.555980 -0.115496
C8    C     C_R   0.848687 0.118071 0.464497 -0.106509
C9    C     C_R   0.288808 0.824566 0.531405 -0.241722
C10   C     C_R   0.707719 0.177105 0.514789 -0.196928
C11   C     C_R   0.356555 0.926013 0.554030 0.022016
C12   C     C_R   0.638110 0.077957 0.527744 0.026293
C13   C     C_R   0.319395 0.006487 0.576242 0.040384
C14   C     C_R   0.675381 0.997938 0.509094 0.049458
C15   C     C_R   0.462335 0.950413 0.549165 0.115752
C16   C     C_R   0.531200 0.055088 0.554210 0.105386
C17   C     C_R   0.490527 0.132907 0.584271 -0.238160
C18   C     C_R   0.502065 0.874168 0.538349 -0.241569
C19   C     C_R   0.386313 0.108621 0.596515 -0.179295
C20   C     C_R   0.606827 0.898351 0.520652 -0.218581
C21   C     C_R   0.314847 0.363925 0.340083 0.314576
C22   C     C_R   0.708575 0.675142 0.638428 0.338440
C23   C     C_R   0.986857 0.498544 0.651690 0.821894
C24   C     C_R   0.012166 0.499545 0.348127 0.847662
C25   C     C_R   0.221910 0.376854 0.372447 -0.024344
C26   C     C_R   0.791095 0.643716 0.615432 0.025309
C27   C     C_R   0.283576 0.486926 0.491173 0.042477
C28   C     C_R   0.714696 0.512005 0.510346 0.053382
C29   C     C_R   0.375563 0.467596 0.467495 -0.078193
C30   C     C_R   0.631194 0.543869 0.527389 -0.048423
C31   C     C_R   0.390945 0.407020 0.388631 0.037342
C32   C     C_R   0.624268 0.618748 0.598453 0.021704
C33   C     C_R   0.455478 0.512089 0.515408 0.039003
C34   C     C_R   0.552448 0.501221 0.479206 0.022032
C35   C     C_R   0.567886 0.450930 0.395879 -0.058262
C36   C     C_R   0.444786 0.569452 0.597235 -0.126115
C37   C     C_R   0.485526 0.398317 0.355139 -0.215123
C38   C     C_R   0.531082 0.629987 0.632665 -0.259651
C39   C     C_R   0.975568 0.487637 0.735389 -0.127304
C40   C     C_R   0.021881 0.504954 0.263499 -0.118617
C41   C     C_R   0.063920 0.531849 0.768342 -0.149644
C42   C     C_R   0.935492 0.448738 0.228246 -0.219942
C43   C     C_R   0.060884 0.519512 0.845168 -0.102823
C44   C     C_R   0.937970 0.454009 0.149346 -0.120384
C45   C     C_R   0.968533 0.463211 0.891584 0.054995
C46   C     C_R   0.028210 0.514081 0.103158 0.066416
C47   C     C_R   0.877227 0.417663 0.859855 -0.049491
C48   C     C_R   0.118300 0.568872 0.136603 -0.060235
C49   C     C_R   0.880771 0.430148 0.780690 -0.089371
C50   C     C_R   0.115024 0.564578 0.218007 -0.100538
C51   C     C_2   0.970262 0.448395 0.971490 -0.145325
C52   C     C_2   0.025232 0.526340 0.022713 -0.151918
Cu1   Cu    Cu3+1 0.916740 0.524770 0.521640 0.994963
Cu2   Cu    Cu3+1 0.083260 0.475230 0.478360 0.991823
H1    H     H_    0.135931 0.576001 0.733846 0.212759
H2    H     H_    0.865336 0.401133 0.262638 0.193671
H3    H     H_    0.537469 0.213506 0.599705 0.154630
H4    H     H_    0.453741 0.795206 0.544244 0.135873
H5    H     H_    0.498722 0.358128 0.292557 0.217486
H6    H     H_    0.522533 0.677492 0.692876 0.194913
H7    H     H_    0.718439 0.446249 0.463436 0.135263
H8    H     H_    0.272305 0.545414 0.542274 0.137942
H9    H     H_    0.855176 0.684625 0.646761 0.168458
H10   H     H_    0.162748 0.343918 0.336498 0.161287
H11   H     H_    0.069462 0.601557 0.005235 0.158724
H12   H     H_    0.925319 0.372978 0.988359 0.158933
H13   H     H_    0.867715 0.413534 0.125623 0.187591
H14   H     H_    0.131934 0.552268 0.867534 0.190284
H15   H     H_    0.359190 0.171443 0.617877 0.202603
H16   H     H_    0.633453 0.836942 0.512266 0.174224
H17   H     H_    0.681026 0.238470 0.525143 0.169966
H18   H     H_    0.316230 0.762446 0.510061 0.170745
N1    N     N_R   0.208390 0.438070 0.445820 -0.205099
N2    N     N_R   0.791610 0.561930 0.554180 -0.216343
O1    O     O_R   0.020090 0.662480 0.528530 -0.566965
O2    O     O_R   0.979910 0.337520 0.471470 -0.559350
O3    O     O_R   0.160710 0.620650 0.491980 -0.583614
O4    O     O_R   0.839290 0.379350 0.508020 -0.582298
O5    O     O_R   0.921540 0.523360 0.633990 -0.581915
O6    O     O_R   0.078460 0.476640 0.366010 -0.588452
O7    O     O_R   0.062170 0.481520 0.597440 -0.568714
O8    O     O_R   0.937830 0.518480 0.402560 -0.562724
O9    O     O_3   0.330615 0.306849 0.262064 -0.628627
C53   C     C_3   0.331340 0.356393 0.201982 0.053449
H19   H     H_    0.405995 0.370659 0.158755 0.183994
H20   H     H_    0.324641 0.433272 0.226700 0.158228
C54   C     C_3   0.245789 0.285365 0.154191 -0.365723
H21   H     H_    0.259045 0.213220 0.122507 0.238398
H22   H     H_    0.170885 0.264298 0.197026 0.221800
C55   C     C_3   0.241336 0.337306 0.090862 -0.803575
H23   H     H_    0.224033 0.407438 0.121651 0.276006
H24   H     H_    0.179954 0.283110 0.056262 0.255849
H25   H     H_    0.315363 0.359133 0.046961 0.268059
O10   O     O_3   0.710703 0.758826 0.701384 -0.599688
C56   C     C_3   0.729576 0.844465 0.667390 0.067812
H26   H     H_    0.659970 0.834612 0.647654 0.139345
H27   H     H_    0.794226 0.854380 0.613685 0.179119
C57   C     C_3   0.757099 0.942710 0.732178 -0.305364
H28   H     H_    0.693297 0.934799 0.786127 0.227238
H29   H     H_    0.826786 0.953847 0.752482 0.257504
C58   C     C_3   0.777100 0.037371 0.698602 -0.796578
H30   H     H_    0.841004 0.047159 0.644744 0.278250
H31   H     H_    0.798175 0.107546 0.746672 0.278571
H32   H     H_    0.707320 0.029284 0.680247 0.257103
C59   C     C_2   0.670704 0.466156 0.343519 0.793753
O11   O     O_2   0.683860 0.396333 0.288690 -0.614256
O12   O     O_R   0.751101 0.562108 0.354094 -0.772675
H33   H     H_    0.816274 0.564525 0.312959 0.347477
C60   C     C_2   0.345625 0.559074 0.653903 0.833060
O13   O     O_2   0.280299 0.473273 0.660648 -0.535432
O14   O     O_R   0.326633 0.646047 0.702012 -0.769490
H34   H     H_    0.381978 0.713471 0.687796 0.290225
C61   C     C_2   0.207914 0.622173 0.255275 0.897367
O15   O     O_2   0.203789 0.679635 0.321836 -0.586476
O16   O     O_R   0.300132 0.610976 0.213860 -0.772257
H35   H     H_    0.357618 0.653658 0.245538 0.333614
C62   C     C_2   0.786503 0.382410 0.745464 0.908465
O17   O     O_2   0.785046 0.325008 0.678685 -0.607698
O18   O     O_R   0.699090 0.402160 0.789327 -0.732468
H36   H     H_    0.639763 0.364938 0.759098 0.335612
C63   C     C_2   0.779536 0.355521 0.908296 0.864197
O19   O     O_2   0.753433 0.388686 0.980684 -0.581715
O20   O     O_R   0.717657 0.258952 0.871049 -0.759661
H37   H     H_    0.653400 0.224261 0.910201 0.343216
C64   C     C_2   0.214372 0.632074 0.087341 0.862433
O21   O     O_2   0.244176 0.595617 0.016793 -0.579781
O22   O     O_R   0.270397 0.733285 0.121608 -0.737934
H38   H     H_    0.334178 0.768136 0.082134 0.345271
C65   C     C_2   0.955642 0.133199 0.424215 0.880525
O23   O     O_2   0.006333 0.108079 0.453007 -0.617757
O24   O     O_R   0.995732 0.169119 0.350076 -0.789025
H39   H     H_    0.065682 0.166195 0.324339 0.314509
C66   C     C_2   0.040117 0.862621 0.560235 0.859992
O25   O     O_2   0.990802 0.894134 0.623771 -0.589031
O26   O     O_R   0.996318 0.813438 0.490339 -0.736695
H40   H     H_    0.922637 0.806504 0.500302 0.332347
O27   O     O_3   0.185876 0.067195 0.590523 -0.601325
C67   C     C_3   0.176000 0.084115 0.517038 0.118998
H41   H     H_    0.138272 0.140521 0.535018 0.226929
H42   H     H_    0.125231 0.013155 0.482500 0.180740
C68   C     C_3   0.279378 0.130208 0.460659 -0.454697
H43   H     H_    0.322431 0.209992 0.490194 0.236289
H44   H     H_    0.326147 0.083170 0.448460 0.231362
C69   C     C_3   0.263347 0.132132 0.378109 -0.766183
H45   H     H_    0.226126 0.052230 0.345687 0.260401
H46   H     H_    0.338455 0.169276 0.339554 0.276630
H47   H     H_    0.214140 0.175707 0.386957 0.269781
O28   O     O_3   0.814683 0.937591 0.457959 -0.619628
C70   C     C_3   0.829931 0.899672 0.372254 0.066057
H48   H     H_    0.905251 0.891633 0.353887 0.199037
H49   H     H_    0.832873 0.951769 0.334237 0.131441
C71   C     C_3   0.746318 0.793508 0.352419 -0.378396
H50   H     H_    0.737614 0.743743 0.394379 0.266356
H51   H     H_    0.672469 0.802266 0.361743 0.213750
C72   C     C_3   0.771483 0.741334 0.263852 -0.806474
H52   H     H_    0.779160 0.789483 0.220967 0.249204
H53   H     H_    0.708950 0.665049 0.251419 0.269539
H54   H     H_    0.843940 0.729215 0.252968 0.262823

loop_
_geom_bond_atom_site_label_1
_geom_bond_atom_site_label_2
_ccdc_geom_bond_type
C15   C18   A    
C54   H21   S    
C58   H30   S    
C29   C33   A    
C72   H53   S    
C1    O3    A    
C56   H26   S    
C53   C54   S    
C4    C8    A    
C28   N2    A    
C68   H44   S    
C56   C57   S    
C70   H48   S    
O20   H37   S    
C39   C41   A    
Cu1   Cu2   S    
C59   O12   S    
C22   C32   A    
C2    O4    A    
C35   C37   A    
C25   N1    A    
C53   H20   S    
C7    C66   S    
C3    C7    A    
C62   O18   S    
C23   C39   S    
C47   C63   S    
C27   C29   A    
C45   C51   S    
C15   C16   A    
C46   C52   S    
C33   C36   A    
C34   C35   A    
C22   O10   S    
C24   O8    A    
C41   H1    S    
C42   H2    S    
C48   C64   S    
C11   C15   A    
C24   O6    A    
C49   C62   S    
C12   C16   A    
C16   C17   A    
O12   H33   S    
C9    H18   S    
C32   C38   A    
C40   C42   A    
C5    C13   A    
Cu2   O3    S    
C10   H17   S    
C48   C50   A    
C58   H31   S    
C72   H54   S    
C41   C43   A    
C70   H49   S    
C20   H16   S    
Cu1   O1    S    
C42   C44   A    
C69   H47   S    
C44   C46   A    
Cu2   O6    S    
C45   C47   A    
C46   C48   A    
C72   H52   S    
C30   C34   A    
C51   C52   D    
C1    O1    A    
C21   O9    S    
O26   H40   S    
C53   H19   S    
C69   H46   S    
C70   C71   S    
C5    C7    A    
C13   C19   A    
C43   H14   S    
C6    C8    A    
C68   C69   S    
C31   C37   A    
C61   O16   S    
Cu1   O8    S    
C1    C3    S    
C51   H12   S    
C2    C4    S    
C26   H9    S    
C35   C59   S    
C27   H8    S    
C14   C20   A    
C6    C14   A    
Cu2   N1    S    
C6    O28   S    
C55   H24   S    
O9    C53   S    
C71   C72   S    
O16   H35   S    
C21   C31   A    
C33   C34   A    
O28   C70   S    
C3    C9    A    
C43   C45   A    
C63   O19   D    
C37   H5    S    
C10   C12   A    
C38   H6    S    
C39   C49   A    
C71   H51   S    
C58   H32   S    
C57   H29   S    
C9    C11   A    
C66   O25   D    
Cu2   O2    S    
C19   H15   S    
C4    C10   A    
O24   H39   S    
C36   C60   S    
C2    O2    A    
C55   H25   S    
C64   O22   S    
C61   O15   D    
C59   O11   D    
C21   C25   A    
C24   C40   S    
C23   O7    A    
O14   H34   S    
Cu1   O5    S    
C12   C14   A    
C69   H45   S    
C67   C68   S    
O18   H36   S    
C56   H27   S    
C5    O27   S    
C67   H42   S    
C47   C49   A    
C57   C58   S    
O27   C67   S    
C62   O17   D    
C50   C61   S    
C60   O14   S    
Cu1   O4    S    
C65   O23   D    
C29   C31   A    
C68   H43   S    
C28   H7    S    
C36   C38   A    
C30   C32   A    
C11   C13   A    
C55   H23   S    
C64   O21   D    
C40   C50   A    
C28   C30   A    
C26   N2    A    
C18   H4    S    
C18   C20   A    
O10   C56   S    
C63   O20   S    
C67   H41   S    
C17   C19   A    
C71   H50   S    
C57   H28   S    
C22   C26   A    
C54   C55   S    
C60   O13   D    
C8    C65   S    
C66   O26   S    
C54   H22   S    
C44   H13   S    
C23   O5    A    
C27   N1    A    
C25   H10   S    
Cu2   O7    S    
C52   H11   S    
O22   H38   S    
C17   H3    S    
C65   O24   S    
Cu1   N2    S    
