data_mof_unit_24920.cif
_audit_creation_date              2013-03-05T16:35:44-0500
_audit_creation_method            fapswitch 2.2
_symmetry_space_group_name_H-M    P1
_symmetry_Int_Tables_number       1
_space_group_crystal_system       triclinic
_cell_length_a                    19.352211
_cell_length_b                    9.09546
_cell_length_c                    7.777305
_cell_angle_alpha                 89.999812
_cell_angle_beta                  90.426438
_cell_angle_gamma                 89.999957
_cell_volume                      1368.90200885

loop_
_atom_site_label
_atom_site_type_symbol
_atom_site_description
_atom_site_fract_x
_atom_site_fract_y
_atom_site_fract_z
_atom_type_partial_charge
O1    O     O_R   0.500000 0.288390 0.642760 -0.565754
O2    O     O_R   0.500000 0.711610 0.357240 -0.574485
O3    O     O_R   0.500000 0.711610 0.642760 -0.574429
O4    O     O_R   0.500000 0.288390 0.357240 -0.565761
C1    C     C_R   0.500000 0.219985 0.500000 0.883008
C2    C     C_R   0.500000 0.780016 0.500000 0.840057
O5    O     O_R   0.400140 0.500000 0.642830 -0.546961
O6    O     O_R   0.599860 0.500000 0.357170 -0.546956
O7    O     O_R   0.599860 0.500000 0.642830 -0.547278
O8    O     O_R   0.400140 0.500000 0.357170 -0.547175
C3    C     C_R   0.366995 0.499306 0.499121 0.859518
C4    C     C_R   0.633004 0.499299 0.500876 0.859639
Cu1   Cu    Cu3+1 0.500000 0.500000 0.669080 1.141796
Cu2   Cu    Cu3+1 0.500000 0.500000 0.330920 1.141797
C5    C     C_1   0.500000 0.065364 0.500000 -0.073220
C6    C     C_1   0.500000 0.934644 0.500000 -0.086626
N1    N     N_1   0.500000 0.500000 0.076820 0.009814
N2    N     N_1   0.500000 0.500000 0.923180 0.009792
C7    C     C_R   0.252950 0.426717 0.626845 0.316471
C8    C     C_R   0.747055 0.426692 0.373193 0.316473
C9    C     C_R   0.745375 0.580608 0.631469 0.314629
C10   C     C_R   0.254607 0.580595 0.368528 0.314524
C11   C     C_R   0.180896 0.440511 0.630460 -0.180285
C12   C     C_R   0.819111 0.440462 0.369640 -0.180292
C13   C     C_R   0.817338 0.587961 0.628196 -0.164731
C14   C     C_R   0.182644 0.587983 0.371887 -0.164654
H1    H     H_    0.151938 0.383594 0.728866 0.199515
H2    H     H_    0.848078 0.383533 0.271258 0.199511
H3    H     H_    0.844333 0.649697 0.727192 0.192522
H4    H     H_    0.155637 0.649694 0.272891 0.192613
C15   C     C_R   0.145622 0.518972 0.502477 -0.070061
C16   C     C_R   0.854374 0.518924 0.497645 -0.070017
C17   C     C_R   0.290743 0.500047 0.496713 -0.258669
C18   C     C_R   0.709253 0.500050 0.503281 -0.258664
N3    N     N_R   0.034353 0.524763 0.350396 -0.206141
N4    N     N_R   0.965642 0.524770 0.649740 -0.206125
N5    N     N_R   0.965623 0.523892 0.349015 -0.205959
N6    N     N_R   0.034373 0.523923 0.651122 -0.205947
C19   C     C_R   0.930082 0.523986 0.498691 0.455241
C20   C     C_R   0.069914 0.524013 0.501444 0.455240
N7    N     N_R   0.286184 0.331942 0.750340 0.155989
O9    O     O_R   0.333079 0.238869 0.700812 -0.341230
O10   O     O_R   0.261401 0.319938 0.904808 -0.290711
N8    N     N_R   0.713829 0.331928 0.249676 0.155973
O11   O     O_R   0.666924 0.238865 0.299171 -0.341202
O12   O     O_R   0.738624 0.319932 0.095220 -0.290756
N9    N     N_R   0.709805 0.660344 0.762532 0.129051
O13   O     O_R   0.712890 0.803202 0.764324 -0.319031
O14   O     O_R   0.688341 0.591430 0.898613 -0.285077
N10   N     N_R   0.290152 0.660238 0.237333 0.128991
O15   O     O_R   0.286733 0.803065 0.234829 -0.318951
O16   O     O_R   0.311827 0.591091 0.101619 -0.285018

loop_
_geom_bond_atom_site_label_1
_geom_bond_atom_site_label_2
_geom_bond_distance
_ccdc_geom_bond_type
O5    Cu1   1.941756 S    
N6    C20   1.356494 A    
C12   C16   1.398559 A    
C14   H4    1.083975 S    
C11   H1    1.083598 S    
N7    O9    1.301467 A    
N10   O16   1.300831 A    
N9    O13   1.300799 A    
O3    Cu1   1.935544 S    
C10   N10   1.431587 S    
O6    C4    1.284482 A    
O3    C2    1.272735 A    
C8    C18   1.419506 A    
C13   C16   1.396326 A    
N4    N6    1.330086 A    
N3    C20   1.357063 A    
C7    N7    1.438751 S    
C14   C15   1.396304 A    
N5    C19   1.356489 A    
Cu1   Cu2   2.629974 S    
C15   C20   1.465799 S    
O5    C3    1.284520 A    
N7    O10   1.301441 A    
Cu2   N1    1.976212 S    
O2    C2    1.272737 A    
Cu1   N2    1.976212 S    
O1    C1    1.272729 A    
N3    N5    1.330072 A    
N8    O12   1.301438 A    
N1    N2    1.194906 T    
O4    Cu2   1.935545 S    
O2    Cu2   1.935546 S    
O7    C4    1.280956 A    
C1    C5    1.406348 S    
C8    N8    1.438744 S    
O1    Cu1   1.935547 S    
O8    C3    1.280944 A    
C2    C6    1.406407 S    
C5    C6    1.188961 T    
C8    C12   1.400526 A    
C3    C17   1.475628 S    
O7    Cu1   1.944776 S    
N8    O11   1.301465 A    
C13   H3    1.083976 S    
N9    O14   1.300791 A    
C10   C14   1.394698 A    
C16   C19   1.465795 S    
C10   C17   1.417495 A    
C9    C13   1.394679 A    
C7    C11   1.400528 A    
O6    Cu2   1.941754 S    
C9    C18   1.417422 A    
N10   O15   1.300897 A    
C7    C17   1.419534 A    
C4    C18   1.475580 S    
N4    C19   1.357069 A    
C12   H2    1.083602 S    
O8    Cu2   1.944778 S    
O4    C1    1.272728 A    
C9    N9    1.431522 S    
C11   C15   1.398534 A    
