data_mof_unit_65857.cif
_audit_creation_date              2012-10-26T20:26:08-0400
_audit_creation_method            fapswitch 2.2
_symmetry_space_group_name_H-M    P1
_symmetry_Int_Tables_number       1
_space_group_crystal_system       triclinic
_cell_length_a                    19.273399
_cell_length_b                    15.87353
_cell_length_c                    14.644589
_cell_angle_alpha                 89.925833
_cell_angle_beta                  90.126649
_cell_angle_gamma                 89.68466
_cell_volume                      4480.23720057

loop_
_atom_site_label
_atom_site_type_symbol
_atom_type_description
_atom_site_fract_x
_atom_site_fract_y
_atom_site_fract_z
_atom_type_partial_charge
Br1   Br    Br    0.351057 0.572751 0.924633 -0.337098
Br2   Br    Br    0.374179 0.380302 0.075170 -0.360222
Br3   Br    Br    0.648702 0.426876 0.075841 -0.357429
Br4   Br    Br    0.133323 0.325970 0.430990 -0.478609
Br5   Br    Br    0.872675 0.670823 0.526814 -0.475199
Br6   Br    Br    0.598923 0.928968 0.331984 -0.454978
Br7   Br    Br    0.405704 0.070969 0.666160 -0.425922
Br8   Br    Br    0.476880 0.692563 0.074458 -0.309150
Br9   Br    Br    0.522963 0.307063 0.925816 -0.301172
Br10  Br    Br    0.625762 0.619474 0.925482 -0.324531
C1    C     C_R   0.500328 0.339547 0.499993 0.527127
C2    C     C_3   0.542627 0.971631 0.431381 0.182910
C3    C     C_3   0.503006 0.083226 0.499050 0.010609
C4    C     C_3   0.501377 0.917100 0.498761 0.012277
C5    C     C_1   0.502506 0.174711 0.499412 -0.013050
C6    C     C_1   0.500945 0.825515 0.499241 -0.014686
C7    C     C_3   0.551299 0.548679 0.969415 0.152589
C8    C     C_3   0.448564 0.451000 0.030736 0.152583
C9    C     C_3   0.490513 0.578532 0.030576 0.152464
C10   C     C_3   0.509345 0.421138 0.969550 0.155867
C11   C     C_3   0.560698 0.470040 0.031041 0.151247
C12   C     C_R   0.500306 0.660505 0.499949 0.527761
C13   C     C_3   0.439156 0.529634 0.969096 0.152605
C14   C     C_3   0.499919 0.499905 0.091959 -0.066445
C15   C     C_3   0.499946 0.499787 0.908132 -0.067791
C16   C     C_R   0.367319 0.500579 0.499881 0.527651
C17   C     C_R   0.632560 0.499897 0.500053 0.526810
C18   C     C_1   0.499947 0.499960 0.194356 0.254321
C19   C     C_1   0.499988 0.499895 0.805672 0.265012
C20   C     C_R   0.253660 0.573084 0.525770 0.011346
C21   C     C_R   0.742769 0.418365 0.485383 0.010502
C22   C     C_R   0.180015 0.569869 0.530281 -0.000709
C23   C     C_3   0.526241 0.971195 0.580001 -0.098243
C24   C     C_R   0.816231 0.416934 0.476426 0.001822
C25   C     C_R   0.145778 0.496086 0.500290 0.037166
C26   C     C_R   0.853672 0.492562 0.490604 0.039444
C27   C     C_R   0.183313 0.424711 0.471823 0.164876
C28   C     C_R   0.819055 0.569272 0.507809 0.168458
C29   C     C_R   0.256274 0.425244 0.473113 0.003511
C30   C     C_R   0.746171 0.571936 0.512100 0.004431
C31   C     C_R   0.291133 0.499711 0.499421 0.014935
C32   C     C_R   0.708509 0.496559 0.500184 0.014793
C33   C     C_R   0.929850 0.491663 0.491682 0.358647
C34   C     C_3   0.478261 0.029211 0.417774 -0.098710
C35   C     C_R   0.069864 0.493430 0.496551 0.362336
C36   C     C_3   0.293208 0.654339 0.545415 -0.269550
C37   C     C_3   0.317917 0.695881 0.457111 -0.423089
C38   C     C_3   0.700348 0.337241 0.483302 -0.275068
C39   C     C_3   0.683139 0.309713 0.385980 -0.398956
C40   C     C_3   0.137299 0.642453 0.570055 -0.260729
C41   C     C_3   0.123621 0.712191 0.500203 -0.395962
C42   C     C_3   0.855447 0.336766 0.449031 -0.276077
C43   C     C_3   0.881665 0.341822 0.350680 -0.392325
C44   C     C_3   0.296602 0.345847 0.447674 -0.254325
C45   C     C_3   0.567142 0.026577 0.511852 0.009306
C46   C     C_3   0.306861 0.339124 0.344520 -0.364503
C47   C     C_3   0.708607 0.655218 0.529253 -0.264366
C48   C     C_3   0.694341 0.701855 0.439923 -0.386684
C49   C     C_3   0.640513 0.060078 0.526749 -0.266495
C50   C     C_3   0.691654 0.989406 0.549637 -0.397431
C51   C     C_3   0.363721 0.941636 0.470002 -0.269504
C52   C     C_3   0.313092 0.013209 0.448426 -0.396537
C53   C     C_3   0.437307 0.973928 0.485883 0.010946
C54   C     C_1   0.501526 0.250093 0.499843 -0.002748
C55   C     C_1   0.500666 0.750067 0.499683 -0.004719
C56   C     C_3   0.461836 0.028685 0.566401 0.185737
Cu1   Cu    Cu3+1 0.500010 0.500000 0.590220 1.051608
Cu2   Cu    Cu3+1 0.499990 0.500000 0.409780 1.011132
H1    H     H_    0.545537 0.946498 0.646362 0.155740
H2    H     H_    0.730778 0.293099 0.347738 0.167561
H3    H     H_    0.726677 0.285827 0.521446 0.141082
H4    H     H_    0.650900 0.344699 0.521009 0.154688
H5    H     H_    0.171547 0.747594 0.485103 0.146077
H6    H     H_    0.102716 0.685528 0.435809 0.199618
H7    H     H_    0.084934 0.757329 0.528148 0.180928
H8    H     H_    0.086349 0.620235 0.595340 0.185138
H9    H     H_    0.161979 0.668172 0.632450 0.160674
H10   H     H_    0.838463 0.357821 0.303363 0.175944
H11   H     H_    0.922839 0.389774 0.343579 0.197668
H12   H     H_    0.459034 0.053968 0.351402 0.152972
H13   H     H_    0.903892 0.279961 0.330336 0.173829
H14   H     H_    0.899694 0.325108 0.495958 0.190924
H15   H     H_    0.823907 0.279194 0.453974 0.148706
H16   H     H_    0.335803 0.394273 0.318249 0.200039
H17   H     H_    0.337018 0.281169 0.328690 0.158419
H18   H     H_    0.256131 0.335757 0.308786 0.214302
H19   H     H_    0.348074 0.343694 0.481610 0.148101
H20   H     H_    0.269746 0.288806 0.473118 0.197682
H21   H     H_    0.743694 0.715608 0.404037 0.212092
H22   H     H_    0.660705 0.663437 0.394751 0.187910
H23   H     H_    0.344078 0.755951 0.473657 0.127403
H24   H     H_    0.667355 0.762341 0.454527 0.165810
H25   H     H_    0.658762 0.645657 0.565380 0.160672
H26   H     H_    0.738707 0.696191 0.575870 0.205347
H27   H     H_    0.676420 0.957517 0.614018 0.164970
H28   H     H_    0.693584 0.942335 0.493745 0.198632
H29   H     H_    0.744313 0.016155 0.558779 0.163020
H30   H     H_    0.657743 0.093242 0.464000 0.168815
H31   H     H_    0.639713 0.106069 0.583851 0.163112
H32   H     H_    0.311154 0.059133 0.505404 0.205136
H33   H     H_    0.328753 0.046280 0.384930 0.161332
H34   H     H_    0.355387 0.655251 0.420353 0.189500
H35   H     H_    0.260322 0.987090 0.438252 0.161590
H36   H     H_    0.364409 0.897052 0.411633 0.159581
H37   H     H_    0.346089 0.907521 0.531939 0.171700
H38   H     H_    0.273501 0.709260 0.410925 0.167990
H39   H     H_    0.262379 0.701591 0.583057 0.154231
H40   H     H_    0.338358 0.641508 0.590545 0.179758
H41   H     H_    0.649269 0.253375 0.388193 0.144760
H42   H     H_    0.655211 0.360730 0.348982 0.205474
N1    N     N_R   0.033707 0.452899 0.562453 -0.169796
N2    N     N_R   0.966104 0.532420 0.425934 -0.174350
N3    N     N_R   0.964717 0.452202 0.560141 -0.199030
N4    N     N_R   0.035090 0.533235 0.428328 -0.198696
N5    N     N_1   0.499980 0.500000 0.274190 -0.168635
N6    N     N_1   0.500020 0.500000 0.725810 -0.158097
O1    O     O_R   0.500010 0.379080 0.576170 -0.472287
O2    O     O_R   0.499990 0.620920 0.423830 -0.483026
O3    O     O_R   0.500000 0.379080 0.423800 -0.500999
O4    O     O_R   0.500000 0.620920 0.576200 -0.493867
O5    O     O_R   0.400150 0.499990 0.576210 -0.485799
O6    O     O_R   0.599850 0.500010 0.423790 -0.494892
O7    O     O_R   0.400140 0.499990 0.423840 -0.506546
O8    O     O_R   0.599860 0.500010 0.576160 -0.492724

loop_
_geom_bond_atom_site_label_1
_geom_bond_atom_site_label_2
_ccdc_geom_bond_type
C23   C45   S    
C44   H20   S    
C21   C32   A    
C45   C49   S    
Br2   C8    S    
C49   H31   S    
C41   H6    S    
C1    O3    A    
Cu1   O8    S    
C4    C23   S    
N2    N4    A    
C46   H17   S    
C29   C31   A    
C12   O4    A    
C8    C14   S    
C43   H11   S    
C41   H7    S    
Cu2   O3    S    
Br6   C2    S    
C44   H19   S    
C29   C44   S    
C10   C15   S    
Br10  C7    S    
C43   H13   S    
C51   C53   S    
Cu2   O2    S    
C35   N4    A    
C36   H40   S    
C5    C54   T    
C20   C31   A    
C16   O5    A    
C51   H37   S    
Cu1   O4    S    
C8    C10   S    
C23   H1    S    
C52   H33   S    
C30   C32   A    
C53   C56   S    
C49   C50   S    
C37   H34   S    
C47   H25   S    
Br5   C28   S    
C38   H4    S    
Cu1   O5    S    
Cu2   O7    S    
C17   O6    A    
C23   C56   S    
C46   H16   S    
C3    C56   S    
C34   C53   S    
C15   C19   S    
C21   C38   S    
C44   C46   S    
Br8   C9    S    
Cu1   Cu2   S    
C22   C25   A    
C14   C18   S    
C34   H12   S    
C51   H36   S    
C50   H29   S    
Cu2   O6    S    
C7    C11   S    
C8    C13   S    
C42   H15   S    
C9    C13   S    
Cu1   N6    S    
C12   C55   S    
C18   N5    T    
C40   H8    S    
Cu1   O1    S    
Br9   C10   S    
C46   H18   S    
C37   H38   S    
C36   H39   S    
C40   C41   S    
C21   C24   A    
N1    N3    A    
Br4   C27   S    
C42   H14   S    
C48   H22   S    
C22   C40   S    
C52   H32   S    
C50   H28   S    
C38   C39   S    
C19   N6    T    
C2    C4    S    
C1    C54   S    
C47   H26   S    
C3    C5    S    
C4    C6    S    
Br3   C11   S    
C16   O7    A    
C38   H3    S    
C1    O1    A    
C40   H9    S    
C42   C43   S    
C39   H41   S    
C52   H35   S    
C12   O2    A    
C36   C37   S    
C30   C47   S    
C25   C27   A    
C37   H23   S    
C20   C36   S    
C41   H5    S    
C17   O8    A    
C35   N1    A    
Br1   C13   S    
C24   C42   S    
C39   H2    S    
C7    C15   S    
C26   C28   A    
C9    C14   S    
C2    C34   S    
C33   N3    A    
Br7   C56   S    
C20   C22   A    
C17   C32   S    
C47   C48   S    
C28   C30   A    
C4    C53   S    
C7    C9    S    
C43   H10   S    
C24   C26   A    
C13   C15   S    
C51   C52   S    
C48   H21   S    
C2    C45   S    
Cu2   N5    S    
C50   H27   S    
C10   C11   S    
C27   C29   A    
C33   N2    A    
C11   C14   S    
C49   H30   S    
C26   C33   S    
C6    C55   T    
C48   H24   S    
C3    C34   S    
C16   C31   S    
C39   H42   S    
C3    C45   S    
C25   C35   S    
