data_mof_unit_55770.cif
_audit_creation_date              2012-12-10T20:39:54-0500
_audit_creation_method            fapswitch 2.2
_symmetry_space_group_name_H-M    P1
_symmetry_Int_Tables_number       1
_space_group_crystal_system       triclinic
_cell_length_a                    23.413423
_cell_length_b                    10.726021
_cell_length_c                    9.862342
_cell_angle_alpha                 90.672691
_cell_angle_beta                  90.314984
_cell_angle_gamma                 89.598346
_cell_volume                      2476.49034828

loop_
_atom_site_label
_atom_site_type_symbol
_atom_type_description
_atom_site_fract_x
_atom_site_fract_y
_atom_site_fract_z
_atom_type_partial_charge
C1    C     C_R   0.501120 0.259597 0.498637 0.876089
C2    C     C_R   0.972532 0.345836 0.688151 -0.027451
C3    C     C_R   0.031944 0.346521 0.683758 -0.182015
C4    C     C_R   0.060826 0.418563 0.589050 -0.029410
C5    C     C_R   0.030037 0.491202 0.495224 -0.022404
C6    C     C_R   0.059360 0.564486 0.399297 -0.069590
C7    C     C_R   0.027348 0.634977 0.304049 -0.028124
C8    C     C_R   0.967934 0.632983 0.307231 -0.186739
C9    C     C_R   0.120329 0.419771 0.586634 0.558260
C10   C     C_R   0.119564 0.564169 0.403893 0.577586
C11   C     C_R   0.239092 0.431242 0.396865 0.705076
C12   C     C_R   0.389494 0.499771 0.499757 0.910444
C13   C     C_R   0.298310 0.433446 0.396936 -0.254538
C14   C     C_R   0.327581 0.498387 0.499339 -0.150666
C15   C     C_R   0.297512 0.561254 0.601991 -0.251285
C16   C     C_R   0.238097 0.560495 0.601673 -0.028649
C17   C     C_R   0.208878 0.494794 0.498729 0.126410
C18   C     C_R   0.761494 0.399864 0.440540 -0.134951
C19   C     C_R   0.702241 0.399800 0.439725 -0.062039
C20   C     C_R   0.672330 0.499327 0.501781 -0.122790
C21   C     C_R   0.702044 0.597657 0.566566 -0.091321
C22   C     C_R   0.761935 0.596206 0.567245 -0.000143
C23   C     C_R   0.502060 0.739677 0.500605 0.880076
C24   C     C_R   0.791123 0.497205 0.503223 0.250990
C25   C     C_R   0.515248 0.065138 0.617875 0.131238
C26   C     C_R   0.509216 0.127233 0.494877 -0.160795
C27   C     C_R   0.514013 0.058679 0.371183 -0.035659
C28   C     C_R   0.516566 0.930296 0.375870 -0.263558
C29   C     C_R   0.511467 0.870175 0.500136 -0.112294
C30   C     C_R   0.516061 0.937772 0.620588 0.164656
C31   C     C_3   0.481137 0.932874 0.746642 -0.478076
C32   C     C_3   0.480120 0.074186 0.744077 -0.445877
C33   C     C_R   0.464622 0.576966 0.071498 -0.031361
C34   C     C_R   0.610323 0.499779 0.500395 0.878566
C35   C     C_R   0.539359 0.431403 0.072163 0.644378
C36   C     C_R   0.538810 0.429448 0.928002 -0.133429
C37   C     C_R   0.465087 0.578125 0.929055 0.076366
C38   C     C_3   0.401592 0.583678 0.920529 -0.493970
C39   C     C_3   0.400911 0.579816 0.074173 0.504203
C40   C     C_R   0.879568 0.562289 0.406619 0.529806
C41   C     C_R   0.880305 0.423118 0.594124 0.513548
C42   C     C_R   0.940514 0.418520 0.594898 -0.060508
C43   C     C_R   0.969841 0.490544 0.497810 -0.018931
C44   C     C_R   0.939058 0.562396 0.403232 -0.021960
H1    H     H_    0.517208 0.877777 0.281114 0.175221
H2    H     H_    0.438449 0.890451 0.729445 0.203356
H3    H     H_    0.505764 0.894689 0.833648 0.216477
H4    H     H_    0.436808 0.113982 0.725656 0.213567
H5    H     H_    0.504047 0.117536 0.829851 0.222663
H6    H     H_    0.055742 0.290555 0.755855 0.199805
H7    H     H_    0.386192 0.674044 0.879571 0.145797
H8    H     H_    0.382881 0.499470 0.871305 0.250172
H9    H     H_    0.382976 0.664931 0.123717 0.077869
H10   H     H_    0.944135 0.687612 0.233928 0.195732
H11   H     H_    0.321273 0.382473 0.318868 0.237681
H12   H     H_    0.320273 0.612465 0.680492 0.165894
H13   H     H_    0.785082 0.323813 0.393187 0.154352
N1    N     N_R   0.851932 0.494280 0.501429 -0.352737
N2    N     N_R   0.148013 0.492763 0.496333 -0.338530
N3    N     N_R   0.499610 0.499140 0.142800 -0.132271
N4    N     N_R   0.499610 0.499180 0.857150 -0.134280
O1    O     O_R   0.500010 0.316790 0.614690 -0.623967
O2    O     O_2   0.849872 0.358217 0.684725 -0.536847
O3    O     O_2   0.150610 0.348896 0.673984 -0.532046
O4    O     O_2   0.149910 0.634802 0.318366 -0.525345
O5    O     O_R   0.500000 0.316760 0.385350 -0.578012
O6    O     O_R   0.416160 0.499980 0.614700 -0.626326
O7    O     O_R   0.416150 0.499940 0.385360 -0.570884
O8    O     O_R   0.500000 0.683240 0.614650 -0.613558
O9    O     O_R   0.499990 0.683210 0.385310 -0.640236
O10   O     O_R   0.583850 0.500060 0.614640 -0.621790
O11   O     O_R   0.583840 0.500020 0.385300 -0.564161
O12   O     O_2   0.849244 0.629731 0.316183 -0.541625
Zn1   Zn    Zn3+2 0.500000 0.500020 0.653130 0.966934
Zn2   Zn    Zn3+2 0.500000 0.499980 0.346870 1.045388
C45   C     C_1   0.946773 0.268902 0.790232 0.301243
N5    N     N_1   0.926404 0.207164 0.872150 -0.140350
C46   C     C_1   0.673113 0.294165 0.379680 0.268585
N6    N     N_1   0.649893 0.209278 0.332057 -0.136028
C47   C     C_1   0.671216 0.700787 0.629472 0.201674
N7    N     N_1   0.646598 0.782973 0.679600 -0.183334
C48   C     C_1   0.793876 0.695118 0.633249 0.222767
N8    N     N_1   0.819459 0.774073 0.685927 -0.157396
C49   C     C_1   0.509524 0.111828 0.237434 0.304998
N9    N     N_1   0.505414 0.152234 0.129542 -0.176556
F1    F     F_    0.578801 0.363497 0.140821 -0.652850
C50   C     C_1   0.578753 0.350238 0.856971 0.343777
N10   N     N_1   0.610953 0.286124 0.800495 -0.183329
F2    F     F_    0.378432 0.469269 0.120329 -0.634670
C51   C     C_1   0.053115 0.710028 0.200309 0.304489
N11   N     N_1   0.073495 0.770183 0.117013 -0.130596
F3    F     F_    0.210886 0.366880 0.298273 -0.622174
C52   C     C_1   0.207621 0.628437 0.706015 0.250525
N12   N     N_1   0.183136 0.682842 0.789680 -0.148229

loop_
_geom_bond_atom_site_label_1
_geom_bond_atom_site_label_2
_ccdc_geom_bond_type
C50   N10   T    
C52   N12   T    
C34   O11   A    
C9    O3    S    
C41   C42   A    
C23   O8    A    
C19   C20   A    
C1    O1    A    
C7    C8    A    
C39   H9    S    
O7    Zn2   S    
C12   O7    A    
C16   C52   S    
C33   C39   S    
C18   C24   A    
C22   C48   S    
C28   C29   A    
C41   N1    A    
C5    C6    A    
C35   F1    S    
C38   H8    S    
C15   C16   A    
C40   O12   S    
C18   C19   A    
C11   F3    S    
C11   C17   A    
C35   C36   A    
C16   C17   A    
C31   H2    S    
C29   C30   A    
C20   C34   S    
C25   C32   S    
C5    C43   A    
C31   H3    S    
C21   C22   A    
C32   H4    S    
C23   O9    A    
O11   Zn2   S    
C3    H6    S    
C36   C50   S    
C38   C39   S    
C12   O6    A    
C28   H1    S    
C40   N1    A    
C45   N5    T    
C8    H10   S    
C46   N6    T    
C4    C5    A    
C38   H7    S    
C25   C26   A    
C7    C51   S    
C33   C37   A    
C35   N3    A    
C9    N2    A    
C19   C46   S    
C43   C44   A    
C37   C38   S    
C18   H13   S    
C31   C32   S    
C1    O5    A    
C26   C27   A    
O8    Zn1   S    
O6    Zn1   S    
C49   N9    T    
C17   N2    S    
C12   C14   S    
C33   N3    A    
C1    C26   S    
C22   C24   A    
C42   C43   A    
C41   O2    S    
C3    C4    A    
C23   C29   S    
O9    Zn2   S    
C2    C45   S    
C10   O4    S    
C25   C30   A    
C27   C49   S    
C8    C44   A    
C47   N7    T    
C6    C10   A    
O10   Zn1   S    
C37   N4    A    
C6    C7    A    
N4    Zn1   S    
N3    Zn2   S    
C15   H12   S    
C2    C3    A    
C11   C13   A    
C51   N11   T    
C30   C31   S    
C2    C42   A    
O5    Zn2   S    
C21   C47   S    
C10   N2    A    
C32   H5    S    
C40   C44   A    
C20   C21   A    
C24   N1    S    
C48   N8    T    
C27   C28   A    
C14   C15   A    
O1    Zn1   S    
C4    C9    A    
C13   C14   A    
C34   O10   A    
C39   F2    S    
C36   N4    A    
C13   H11   S    
