data_mof_unit_52181.cif
_audit_creation_date              2012-12-10T16:59:19-0500
_audit_creation_method            fapswitch 2.2
_symmetry_space_group_name_H-M    P1
_symmetry_Int_Tables_number       1
_space_group_crystal_system       triclinic
_cell_length_a                    7.779692
_cell_length_b                    8.70756
_cell_length_c                    27.263168
_cell_angle_alpha                 89.859397
_cell_angle_beta                  86.232915
_cell_angle_gamma                 93.82327
_cell_volume                      1838.73012055

loop_
_atom_site_label
_atom_site_type_symbol
_atom_type_description
_atom_site_fract_x
_atom_site_fract_y
_atom_site_fract_z
_atom_type_partial_charge
C1    C     C_R   0.544550 0.793541 0.494133 0.933263
C2    C     C_R   0.718170 0.474926 0.128904 -0.047839
C3    C     C_R   0.517913 0.508910 0.647802 -0.253117
C4    C     C_R   0.483073 0.471878 0.352524 -0.219449
C5    C     C_R   0.777136 0.465449 0.025676 0.020702
C6    C     C_R   0.599040 0.238220 0.971217 0.006682
C7    C     C_R   0.586824 0.229636 0.023554 -0.006360
C8    C     C_R   0.773260 0.487670 0.973928 -0.012554
C9    C     C_R   0.662216 0.353644 0.049864 0.056425
C10   C     C_R   0.685999 0.368718 0.946880 0.057453
C11   C     C_R   0.896366 0.544264 0.054687 -0.279362
C12   C     C_R   0.453971 0.205316 0.498562 0.871810
C13   C     C_R   0.509328 0.129442 0.942684 -0.236811
C14   C     C_R   0.867940 0.553699 0.105827 0.203435
C15   C     C_R   0.529476 0.127408 0.891291 0.134281
C16   C     C_R   0.504366 0.505174 0.594224 0.891370
C17   C     C_R   0.496721 0.499370 0.405584 0.896792
C18   C     C_R   0.836787 0.628288 0.948522 0.149797
C19   C     C_R   0.504061 0.103489 0.051893 0.150955
C20   C     C_2   0.565686 0.954147 0.481389 -0.070192
C21   C     C_2   0.426528 0.042971 0.489445 -0.103523
C22   C     C_R   0.688944 0.550996 0.824093 0.510538
C23   C     C_R   0.675046 0.384552 0.895429 -0.068186
C24   C     C_R   0.443221 0.289522 0.173593 0.519174
C25   C     C_R   0.602304 0.286493 0.815554 0.505769
C26   C     C_R   0.659603 0.495479 0.178468 0.501495
C27   C     C_R   0.416489 0.415713 0.729985 0.110641
C28   C     C_R   0.435758 0.567521 0.270586 0.126300
C29   C     C_R   0.395149 0.423125 0.679037 0.441638
C30   C     C_R   0.468013 0.596099 0.320211 0.468313
C31   C     C_R   0.664348 0.584582 0.667522 0.053831
C32   C     C_R   0.486394 0.321161 0.333271 0.034350
C33   C     C_R   0.703284 0.543309 0.714898 -0.152412
C34   C     C_R   0.626324 0.364355 0.101223 -0.097036
C35   C     C_R   0.498686 0.301949 0.282387 -0.159400
C36   C     C_R   0.581140 0.461444 0.746749 0.186438
C37   C     C_R   0.474665 0.423656 0.250740 0.160527
C38   C     C_3   0.757956 0.725842 0.641898 -0.331337
C39   C     C_3   0.937340 0.772526 0.659186 -0.819998
C40   C     C_3   0.489366 0.180092 0.365149 -0.400997
C41   C     C_3   0.343429 0.059934 0.355372 -0.784643
C42   C     C_3   0.991761 0.333361 0.416035 -0.162337
C43   C     C_3   0.986481 0.401465 0.582266 -0.079360
C44   C     C_3   0.673542 0.791538 0.318378 -0.347556
C45   C     C_R   0.730223 0.524667 0.872363 -0.084464
C46   C     C_3   0.283640 0.194148 0.652002 -0.389718
C47   C     C_3   0.363932 0.689987 0.239477 -0.350139
C48   C     C_3   0.183218 0.725491 0.259860 -0.851731
C49   C     C_3   0.262452 0.363241 0.764992 -0.369678
C50   C     C_3   0.212188 0.490129 0.800633 -0.876836
C51   C     C_3   0.005713 0.642292 0.133076 -0.349187
C52   C     C_3   0.977135 0.814344 0.133678 -0.830433
C53   C     C_3   0.459582 0.987350 0.863212 -0.304511
C54   C     C_3   0.400569 0.843276 0.893847 -0.921801
C55   C     C_3   0.914085 0.771367 0.973944 -0.447631
C56   C     C_R   0.499148 0.263029 0.124752 -0.063521
C57   C     C_3   0.908833 0.926732 0.947387 -0.919556
C58   C     C_3   0.515855 0.935856 0.037688 -0.418515
C59   C     C_3   0.338997 0.849810 0.036312 -0.942360
C60   C     C_3   0.744728 0.016854 0.460478 -0.420304
C61   C     C_3   0.847575 0.906449 0.428210 -0.852031
C62   C     C_3   0.237095 0.985757 0.486314 -0.343758
C63   C     C_3   0.143113 0.960721 0.537120 -0.810573
C64   C     C_R   0.816152 0.640254 0.898080 -0.160384
C65   C     C_R   0.443420 0.129908 0.100450 -0.162392
C66   C     C_R   0.604917 0.262291 0.866979 -0.069473
H1    H     H_    0.825906 0.581474 0.728639 0.197132
H2    H     H_    0.772081 0.712046 0.601661 0.253536
H3    H     H_    0.675663 0.824331 0.648261 0.189066
H4    H     H_    0.216315 0.109783 0.360427 0.222741
H5    H     H_    0.359092 0.014545 0.317495 0.288957
H6    H     H_    0.345310 0.962482 0.381484 0.274147
H7    H     H_    0.615649 0.130302 0.358191 0.199494
H8    H     H_    0.475433 0.209837 0.404192 0.192371
H9    H     H_    0.868679 0.319314 0.397960 0.158762
H10   H     H_    0.005848 0.236587 0.441216 0.114250
H11   H     H_    0.096372 0.331682 0.386526 0.160044
H12   H     H_    0.528687 0.191417 0.267086 0.176990
H13   H     H_    0.963550 0.412138 0.622617 0.186929
H14   H     H_    0.107969 0.345337 0.574268 0.191092
H15   H     H_    0.881388 0.322596 0.569231 0.117994
H16   H     H_    0.689132 0.798806 0.277736 0.211616
H17   H     H_    0.768229 0.713278 0.331780 0.183670
H18   H     H_    0.707433 0.908375 0.331716 0.187128
H19   H     H_    0.164245 0.133099 0.639977 0.182717
H20   H     H_    0.316815 0.136091 0.686237 0.195231
H21   H     H_    0.387433 0.182825 0.622396 0.168937
H22   H     H_    0.094313 0.620305 0.259552 0.269593
H23   H     H_    0.865352 0.742541 0.877974 0.212125
H24   H     H_    0.132629 0.815385 0.236921 0.267300
H25   H     H_    0.185973 0.768704 0.298084 0.277617
H26   H     H_    0.353684 0.651158 0.200941 0.198581
H27   H     H_    0.448564 0.797573 0.238188 0.229827
H28   H     H_    0.312303 0.512049 0.827286 0.259995
H29   H     H_    0.194230 0.597982 0.780274 0.271894
H30   H     H_    0.088993 0.453666 0.821635 0.252508
H31   H     H_    0.146700 0.331169 0.744563 0.246395
H32   H     H_    0.286753 0.258775 0.785860 0.225534
H33   H     H_    0.976263 0.859474 0.095552 0.242998
H34   H     H_    0.368502 0.038992 0.120994 0.187969
H35   H     H_    0.852456 0.836539 0.153652 0.289998
H36   H     H_    0.083099 0.877679 0.152092 0.253271
H37   H     H_    0.015483 0.596743 0.170633 0.251337
H38   H     H_    0.134520 0.624560 0.114788 0.173076
H39   H     H_    0.283063 0.862125 0.917529 0.257922
H40   H     H_    0.504376 0.809114 0.916820 0.275154
H41   H     H_    0.368670 0.746765 0.868888 0.272348
H42   H     H_    0.350140 0.019982 0.842043 0.219245
H43   H     H_    0.565034 0.950793 0.837384 0.292274
H44   H     H_    0.006472 0.938040 0.915873 0.262895
H45   H     H_    0.016083 0.595103 0.038114 0.154967
H46   H     H_    0.779899 0.940288 0.933792 0.279166
H47   H     H_    0.938142 0.022037 0.973195 0.261598
H48   H     H_    0.843271 0.785949 0.010017 0.225849
H49   H     H_    0.051744 0.755047 0.978734 0.213773
H50   H     H_    0.288377 0.821234 0.074234 0.268788
H51   H     H_    0.246037 0.920700 0.019005 0.268099
H52   H     H_    0.350785 0.740800 0.015674 0.261243
H53   H     H_    0.591193 0.922341 0.002538 0.226025
H54   H     H_    0.589570 0.878375 0.065272 0.214084
H55   H     H_    0.928828 0.838232 0.450608 0.288934
H56   H     H_    0.417162 0.047643 0.960232 0.201103
H57   H     H_    0.759235 0.825805 0.409280 0.289422
H58   H     H_    0.934531 0.971555 0.400386 0.212364
H59   H     H_    0.726222 0.112646 0.435376 0.221292
H60   H     H_    0.823371 0.058489 0.490925 0.222808
H61   H     H_    0.221998 0.899281 0.562300 0.271854
H62   H     H_    0.114169 0.072941 0.553674 0.218559
H63   H     H_    0.019260 0.891869 0.533790 0.259668
H64   H     H_    0.170569 0.071047 0.466100 0.191872
H65   H     H_    0.220382 0.883831 0.462460 0.228114
H66   H     H_    0.927427 0.816855 0.697357 0.263933
H67   H     H_    0.020747 0.673836 0.657041 0.283223
H68   H     H_    0.999159 0.866577 0.635303 0.234331
N1    N     N_R   0.624030 0.432516 0.796543 -0.313032
N2    N     N_R   0.521092 0.406591 0.199153 -0.331528
N3    N     N_2   0.950320 0.457960 0.486880 0.154004
N4    N     N_2   0.049680 0.542040 0.513120 0.195529
O1    O     O_R   0.389250 0.738570 0.503220 -0.624221
O2    O     O_2   0.312119 0.199250 0.195381 -0.588682
O3    O     O_2   0.737698 0.604110 0.205914 -0.623963
O4    O     O_2   0.577156 0.167814 0.784646 -0.609532
O5    O     O_3   0.006973 0.476079 0.439322 -0.506925
O6    O     O_3   0.987847 0.549838 0.560423 -0.538770
O7    O     O_3   0.502328 0.744966 0.335765 -0.637586
O8    O     O_3   0.251610 0.350101 0.659884 -0.632360
O9    O     O_R   0.610750 0.261430 0.496780 -0.662579
O10   O     O_R   0.678390 0.711630 0.494810 -0.603299
O11   O     O_R   0.321610 0.288370 0.505190 -0.638183
O12   O     O_R   0.355440 0.513440 0.575450 -0.570990
O13   O     O_R   0.644560 0.486560 0.424550 -0.612259
O14   O     O_R   0.644590 0.486500 0.567040 -0.613163
O15   O     O_R   0.355410 0.513500 0.432960 -0.576884
O16   O     O_2   0.709339 0.695226 0.805359 -0.592268
Zn1   Zn    Zn3+2 0.306940 0.517990 0.505620 1.016793
Zn2   Zn    Zn3+2 0.693060 0.482010 0.494380 0.985657

loop_
_geom_bond_atom_site_label_1
_geom_bond_atom_site_label_2
_ccdc_geom_bond_type
N4    Zn1   S    
C28   C47   S    
C34   C56   A    
C23   C45   A    
C27   C29   A    
C47   H26   S    
C62   H64   S    
C25   O4    S    
C44   H17   S    
C17   O15   A    
C53   C54   S    
C24   O2    S    
C52   H36   S    
C42   H9    S    
C54   H41   S    
C61   H58   S    
C15   C53   S    
C12   O9    A    
C60   H59   S    
C35   C37   A    
C45   C64   A    
C5    C11   A    
C44   H16   S    
C39   H67   S    
C38   C39   S    
C11   C14   A    
C50   H29   S    
C57   H46   S    
C39   H66   S    
C51   H37   S    
C56   C65   A    
C33   C36   A    
C40   H7    S    
C61   H55   S    
C3    C29   A    
C49   H32   S    
C47   C48   S    
C59   H50   S    
C48   H25   S    
C31   C33   A    
C20   C60   S    
C26   O3    S    
C63   H62   S    
C1    O1    A    
C41   H5    S    
C46   H19   S    
C2    C34   A    
C63   H63   S    
N3    O5    S    
C38   H3    S    
C59   H51   S    
C48   H24   S    
C43   O6    S    
C17   O13   A    
C64   H23   S    
C2    C14   A    
C62   H65   S    
C58   H54   S    
C19   C58   S    
C52   H35   S    
C54   H40   S    
C11   H45   S    
C51   C52   S    
C32   C35   A    
O14   Zn2   S    
C16   O14   A    
C29   O8    S    
C50   H28   S    
C57   H47   S    
C51   H38   S    
C15   C66   A    
C12   C21   S    
C8    C18   A    
N3    Zn2   S    
C60   C61   S    
C5    C9    A    
C62   C63   S    
C14   C51   S    
O1    Zn1   S    
C48   H22   S    
C44   O7    S    
C47   H27   S    
C37   N2    S    
C2    C26   A    
O13   Zn2   S    
C3    C31   A    
O9    Zn2   S    
C21   C62   S    
C4    C32   A    
C18   C55   S    
C41   H6    S    
C4    C17   S    
C40   C41   S    
C38   H2    S    
C59   H52   S    
C7    C19   A    
O12   Zn1   S    
C13   C15   A    
C9    C34   A    
C43   H15   S    
C58   C59   S    
O15   Zn1   S    
C36   N1    S    
C23   C66   A    
C30   O7    S    
C46   H21   S    
C22   O16   S    
C53   H43   S    
C7    C9    A    
C1    C20   S    
C35   H12   S    
C54   H39   S    
C12   O11   A    
C25   C66   A    
C65   H34   S    
C44   H18   S    
C24   N2    A    
C6    C10   A    
C5    C8    A    
C57   H44   S    
C6    C7    A    
C55   H48   S    
C10   C23   A    
C24   C56   A    
N3    N4    D    
C52   H33   S    
C42   H10   S    
C50   H30   S    
C31   C38   S    
C22   N1    A    
C61   H57   S    
C27   C36   A    
C55   C57   S    
C43   H14   S    
C28   C30   A    
C33   H1    S    
N4    O6    S    
C6    C13   A    
C13   H56   S    
C53   H42   S    
C18   C64   A    
C46   O8    S    
C55   H49   S    
C28   C37   A    
C60   H60   S    
C58   H53   S    
C40   H8    S    
C19   C65   A    
C32   C40   S    
O11   Zn1   S    
C25   N1    A    
C4    C30   A    
C26   N2    A    
C49   H31   S    
C22   C45   A    
C20   C21   D    
C42   H11   S    
C8    C10   A    
C49   C50   S    
C42   O5    S    
C1    O10   A    
C16   O12   A    
O10   Zn2   S    
C43   H13   S    
C63   H61   S    
C3    C16   S    
C27   C49   S    
C41   H4    S    
C46   H20   S    
C39   H68   S    
