data_mof_unit_18818.cif
_audit_creation_date              2013-03-05T16:25:43-0500
_audit_creation_method            fapswitch 2.2
_symmetry_space_group_name_H-M    P1
_symmetry_Int_Tables_number       1
_space_group_crystal_system       triclinic
_cell_length_a                    11.050747
_cell_length_b                    15.091057
_cell_length_c                    13.854408
_cell_angle_alpha                 89.81543
_cell_angle_beta                  89.851248
_cell_angle_gamma                 90.001349
_cell_volume                      2310.44455744

loop_
_atom_site_label
_atom_site_type_symbol
_atom_site_description
_atom_site_fract_x
_atom_site_fract_y
_atom_site_fract_z
_atom_type_partial_charge
O1    O     O_R   0.500010 0.371450 0.581430 -0.572615
O2    O     O_R   0.499990 0.628550 0.418570 -0.596777
O3    O     O_R   0.500010 0.371460 0.418560 -0.621786
O4    O     O_R   0.499990 0.628540 0.581440 -0.608653
C1    C     C_R   0.502194 0.329807 0.500196 0.884799
C2    C     C_R   0.501728 0.669980 0.499871 0.867154
O5    O     O_R   0.319640 0.500000 0.581430 -0.558648
O6    O     O_R   0.680360 0.500000 0.418570 -0.535283
O7    O     O_R   0.319640 0.500010 0.418560 -0.602865
O8    O     O_R   0.680360 0.499990 0.581440 -0.602546
C3    C     C_R   0.261872 0.500712 0.500153 0.891342
C4    C     C_R   0.737961 0.498114 0.500294 0.885386
Cu1   Cu    Cu3+1 0.500000 0.499990 0.596430 0.952630
Cu2   Cu    Cu3+1 0.500000 0.500010 0.403570 0.948956
C5    C     C_R   0.203636 0.665795 0.218440 0.226540
C6    C     C_R   0.763467 0.357049 0.783920 0.303363
C7    C     C_R   0.160744 0.638377 0.311045 0.318713
C8    C     C_R   0.818582 0.378217 0.695511 0.379785
C9    C     C_R   0.120415 0.549841 0.324119 -0.080464
C10   C     C_R   0.875197 0.460946 0.682691 -0.116533
C11   C     C_R   0.134523 0.487410 0.249918 0.292089
C12   C     C_R   0.875022 0.522603 0.759807 0.285317
C13   C     C_R   0.182931 0.513591 0.160547 0.262617
C14   C     C_R   0.840946 0.494822 0.853406 0.255914
C15   C     C_R   0.209713 0.602764 0.142574 0.263396
C16   C     C_R   0.780717 0.411687 0.865542 0.179437
C17   C     C_R   0.935409 0.515538 0.415285 0.442089
C18   C     C_R   0.064485 0.481218 0.587319 0.408655
C19   C     C_R   0.871891 0.497540 0.501700 -0.281348
C20   C     C_R   0.127760 0.501956 0.500928 -0.271992
C21   C     C_R   0.937085 0.481994 0.588913 -0.012348
C22   C     C_R   0.061848 0.521258 0.415629 -0.002988
C23   C     C_R   0.480418 0.093370 0.584713 0.471012
C24   C     C_R   0.440688 0.906292 0.433319 0.507770
C25   C     C_R   0.479864 0.185867 0.584885 -0.280940
C26   C     C_R   0.441217 0.814106 0.431142 -0.266209
H1    H     H_    0.454988 0.220338 0.650453 0.180122
H2    H     H_    0.386683 0.780015 0.378219 0.227115
C27   C     C_R   0.508490 0.233229 0.500804 -0.151157
C28   C     C_R   0.506999 0.766176 0.499535 -0.182245
C29   C     C_R   0.544291 0.188013 0.417465 -0.309336
C30   C     C_R   0.578484 0.810254 0.567260 -0.318865
H3    H     H_    0.567806 0.223915 0.352224 0.175567
H4    H     H_    0.630018 0.773105 0.620070 0.158247
C31   C     C_R   0.550969 0.095903 0.417241 0.501155
C32   C     C_R   0.587699 0.902299 0.565197 0.528221
C33   C     C_R   0.517187 0.048187 0.500762 -0.065030
C34   C     C_R   0.516067 0.951052 0.499349 -0.056228
C35   C     C_R   0.500355 0.580118 0.108286 -0.228004
C36   C     C_R   0.469018 0.424017 0.891991 -0.194961
H5    H     H_    0.495204 0.644192 0.074093 0.156106
H6    H     H_    0.446589 0.362178 0.926785 0.123970
C37   C     C_R   0.499731 0.578268 0.209311 0.054565
C38   C     C_R   0.471064 0.424893 0.790981 0.090297
H7    H     H_    0.497455 0.640502 0.247278 0.155250
H8    H     H_    0.448568 0.364903 0.752832 0.148335
N1    N     N_R   0.500000 0.500020 0.258690 -0.185923
N2    N     N_R   0.500000 0.499980 0.741310 -0.194965
C39   C     C_R   0.504738 0.422261 0.208947 0.036573
C40   C     C_R   0.524390 0.576143 0.789948 0.016586
H9    H     H_    0.508753 0.359770 0.246717 0.120089
H10   H     H_    0.547081 0.635996 0.751185 0.134143
C41   C     C_R   0.502784 0.421226 0.107873 -0.187228
C42   C     C_R   0.520480 0.578659 0.890800 -0.322560
H11   H     H_    0.504962 0.357464 0.073235 0.126255
H12   H     H_    0.542087 0.640921 0.924562 0.137780
C43   C     C_R   0.498973 0.500930 0.054525 0.187331
C44   C     C_R   0.494674 0.501464 0.944986 0.180397
O9    O     O_3   0.260317 0.622069 0.053032 -0.565783
C45   C     C_3   0.204330 0.695218 0.007911 0.116662
H13   H     H_    0.256381 0.755924 0.025863 0.200343
H14   H     H_    0.108296 0.703402 0.030543 0.095968
C46   C     C_3   0.205689 0.681770 0.898323 -0.374430
H15   H     H_    0.281531 0.637670 0.877096 0.245774
H16   H     H_    0.119930 0.649294 0.876399 0.240843
C47   C     C_3   0.219255 0.769303 0.843774 -0.924801
H17   H     H_    0.151575 0.818269 0.869421 0.247770
H18   H     H_    0.206073 0.758039 0.765324 0.266454
H19   H     H_    0.311376 0.796790 0.855077 0.265597
O10   O     O_3   0.721535 0.387562 0.950503 -0.603904
C48   C     C_3   0.799962 0.379521 0.030536 0.084903
H20   H     H_    0.777592 0.432940 0.082295 0.174880
H21   H     H_    0.896354 0.384733 0.010917 0.146421
C49   C     C_3   0.779776 0.290341 0.081484 -0.420170
H22   H     H_    0.682030 0.273573 0.082400 0.229242
H23   H     H_    0.828673 0.237435 0.041778 0.194897
C50   C     C_3   0.824903 0.291605 0.185472 -0.850004
H24   H     H_    0.923245 0.305345 0.187028 0.281623
H25   H     H_    0.808542 0.226013 0.219551 0.238699
H26   H     H_    0.776228 0.342854 0.227928 0.283805
O11   O     O_3   0.581272 0.052944 0.332541 -0.530959
C51   C     C_3   0.707852 0.041957 0.329002 -0.352019
H27   H     H_    0.736716 0.988714 0.379386 0.151779
H28   H     H_    0.757489 0.104612 0.344349 0.145924
H29   H     H_    0.733448 0.020871 0.255095 0.199108
O12   O     O_3   0.660501 0.943390 0.632733 -0.540378
C52   C     C_3   0.768592 0.971707 0.587822 -0.387963
H30   H     H_    0.754109 0.034701 0.548001 0.162523
H31   H     H_    0.807954 0.920584 0.539119 0.139706
H32   H     H_    0.836440 0.985418 0.644626 0.193945
O13   O     O_3   0.261337 0.746756 0.202985 -0.607564
C53   C     C_3   0.191440 0.822026 0.228739 0.108299
H33   H     H_    0.244981 0.881194 0.207240 0.192012
H34   H     H_    0.181897 0.828261 0.307422 0.208022
C54   C     C_3   0.068600 0.829129 0.177004 -0.436347
H35   H     H_    0.083800 0.840584 0.098761 0.212834
H36   H     H_    0.015211 0.767501 0.186547 0.200902
C55   C     C_3   0.994452 0.906546 0.216048 -0.937977
H37   H     H_    0.975633 0.897287 0.294226 0.242907
H38   H     H_    0.906860 0.910355 0.177144 0.263226
H39   H     H_    0.043914 0.969897 0.205142 0.256453
O14   O     O_3   0.685741 0.285007 0.786444 -0.565030
C56   C     C_3   0.733429 0.216019 0.843988 0.057785
H40   H     H_    0.688763 0.218304 0.915600 0.177754
H41   H     H_    0.833711 0.219767 0.853450 0.115904
C57   C     C_3   0.701800 0.127255 0.797878 -0.278081
H42   H     H_    0.601813 0.120421 0.794762 0.263098
H43   H     H_    0.737839 0.125260 0.722998 0.239616
C58   C     C_3   0.753923 0.049864 0.855528 -0.923922
H44   H     H_    0.854357 0.053349 0.856288 0.240345
H45   H     H_    0.726401 0.986372 0.821840 0.299124
H46   H     H_    0.719370 0.051056 0.930906 0.251321
O15   O     O_3   0.180133 0.691749 0.390948 -0.563511
C59   C     C_3   0.069660 0.725937 0.426681 -0.410225
H47   H     H_    0.026302 0.679374 0.477967 0.168783
H48   H     H_    0.005603 0.745089 0.368575 0.156735
H49   H     H_    0.089582 0.786895 0.468170 0.175042
O16   O     O_3   0.804521 0.321476 0.618110 -0.535821
C60   C     C_3   0.903290 0.262359 0.616034 -0.311959
H50   H     H_    0.885802 0.211560 0.560044 0.170748
H51   H     H_    0.915210 0.227007 0.685984 0.145361
H52   H     H_    0.988288 0.297282 0.596008 0.183434
O17   O     O_3   0.095840 0.400996 0.263519 -0.601094
C61   C     C_3   0.193473 0.347468 0.294042 0.136126
H53   H     H_    0.199201 0.349149 0.374077 0.138984
H54   H     H_    0.281822 0.369033 0.263283 0.166736
C62   C     C_3   0.170602 0.252147 0.262127 -0.411825
H55   H     H_    0.085857 0.227244 0.296063 0.220854
H56   H     H_    0.159636 0.250292 0.182446 0.227999
C63   C     C_3   0.275236 0.191615 0.290281 -0.864750
H57   H     H_    0.360980 0.215504 0.257268 0.256999
H58   H     H_    0.257409 0.123604 0.263681 0.273250
H59   H     H_    0.284870 0.189535 0.370019 0.250170
O18   O     O_3   0.926356 0.605949 0.748746 -0.583156
C64   C     C_3   0.848751 0.660852 0.693658 0.105963
H60   H     H_    0.763150 0.674289 0.733156 0.119792
H61   H     H_    0.824143 0.630338 0.624045 0.094652
C65   C     C_3   0.913177 0.747762 0.668849 -0.369176
H62   H     H_    0.008475 0.733878 0.647965 0.218897
H63   H     H_    0.867734 0.779052 0.605993 0.167013
C66   C     C_3   0.911307 0.812843 0.752654 -0.805847
H64   H     H_    0.816720 0.831082 0.771251 0.256985
H65   H     H_    0.961595 0.873783 0.732252 0.225562
H66   H     H_    0.955559 0.783099 0.816426 0.267426
O19   O     O_3   0.226032 0.450866 0.096368 -0.577682
C67   C     C_3   0.130510 0.416613 0.041119 0.079035
H67   H     H_    0.077445 0.471061 0.007488 0.183498
H68   H     H_    0.071843 0.374690 0.087359 0.169075
C68   C     C_3   0.183414 0.359001 0.960910 -0.341158
H69   H     H_    0.232351 0.402292 0.909278 0.222038
H70   H     H_    0.248071 0.310620 0.992610 0.221066
C69   C     C_3   0.086609 0.308371 0.905531 -0.954601
H71   H     H_    0.034504 0.264633 0.955039 0.244766
H72   H     H_    0.130327 0.266596 0.849583 0.261704
H73   H     H_    0.024603 0.355233 0.868825 0.254800
O20   O     O_3   0.896015 0.537817 0.930176 -0.627400
C70   C     C_3   0.814342 0.586388 0.987838 0.064157
H74   H     H_    0.843304 0.577538 0.063998 0.148244
H75   H     H_    0.720377 0.562464 0.983672 0.156165
C71   C     C_3   0.821915 0.685090 0.963651 -0.328146
H76   H     H_    0.918214 0.704072 0.955168 0.232586
H77   H     H_    0.773845 0.698104 0.895080 0.219663
C72   C     C_3   0.766289 0.742569 0.042554 -0.962182
H78   H     H_    0.668398 0.728451 0.050028 0.254877
H79   H     H_    0.777566 0.813564 0.023212 0.268001
H80   H     H_    0.811762 0.730396 0.112725 0.250283
O21   O     O_3   0.874849 0.519511 0.327567 -0.540118
C73   C     C_3   0.842879 0.607952 0.305646 -0.303276
H81   H     H_    0.915912 0.640096 0.263396 0.124447
H82   H     H_    0.819691 0.648170 0.370506 0.126273
H83   H     H_    0.761635 0.606974 0.258833 0.190577
O22   O     O_3   0.125913 0.444881 0.665482 -0.595619
C74   C     C_3   0.157665 0.511181 0.732818 -0.196806
H84   H     H_    0.103615 0.502800 0.799500 0.187377
H85   H     H_    0.150533 0.580439 0.704938 0.174895
H86   H     H_    0.252458 0.500963 0.755225 0.174881
O23   O     O_3   0.453155 0.046946 0.668337 -0.544845
C75   C     C_3   0.327118 0.049152 0.684193 -0.357069
H87   H     H_    0.278217 0.013437 0.626095 0.149915
H88   H     H_    0.292401 0.118093 0.691346 0.148585
H89   H     H_    0.307294 0.014205 0.753023 0.199519
O24   O     O_3   0.369036 0.951638 0.368031 -0.543061
C76   C     C_3   0.260414 0.976875 0.414204 -0.404978
H90   H     H_    0.274328 0.037884 0.457166 0.170623
H91   H     H_    0.221540 0.923241 0.460301 0.150502
H92   H     H_    0.192227 0.992610 0.358169 0.185529

loop_
_geom_bond_atom_site_label_1
_geom_bond_atom_site_label_2
_geom_bond_distance
_ccdc_geom_bond_type
C50   H24   1.106623 S    
C41   H11   1.076883 S    
O13   C53   1.419655 S    
C13   O19   1.384461 S    
C4    C19   1.480226 S    
C17   C19   1.411862 A    
C46   H16   1.110414 S    
C46   H15   1.109882 S    
C54   H35   1.109509 S    
C25   C27   1.400215 A    
C67   C68   1.528209 S    
C49   C50   1.525969 S    
C74   H84   1.105723 S    
O16   C60   1.410001 S    
C48   C49   1.533709 S    
C61   C62   1.527533 S    
C73   H81   1.106794 S    
O15   C59   1.414277 S    
C27   C29   1.399273 A    
C72   H78   1.107074 S    
C57   H42   1.110694 S    
O5    C3    1.295866 A    
C54   H36   1.108745 S    
C36   C38   1.399575 A    
C75   H89   1.109567 S    
O1    C1    1.290960 A    
C42   C44   1.412532 A    
C12   C14   1.411771 A    
C75   H88   1.113517 S    
C67   H67   1.111347 S    
C25   H1    1.083107 S    
C49   H23   1.110558 S    
C56   H40   1.107624 S    
O9    C45   1.410578 S    
C74   H85   1.115967 S    
C64   H60   1.110609 S    
C23   C25   1.395896 A    
C5    C15   1.421309 A    
C71   H76   1.107904 S    
N2    C40   1.361504 A    
C55   H37   1.110744 S    
C53   C54   1.540303 S    
C40   H10   1.078569 S    
C30   C32   1.392978 A    
C31   C33   1.410402 A    
O4    Cu1   1.950375 S    
C18   O22   1.390754 S    
O22   C74   1.414978 S    
C64   H61   1.104703 S    
C49   H22   1.109443 S    
C7    O15   1.388189 S    
C68   H69   1.107219 S    
C3    C20   1.482170 S    
C57   H43   1.110766 S    
C18   C20   1.418688 A    
C35   H5    1.076942 S    
C36   H6    1.077575 S    
C66   H64   1.110760 S    
C65   C66   1.523258 S    
C45   H13   1.110935 S    
C24   C26   1.391619 A    
C60   H52   1.111163 S    
C8    O16   1.383491 S    
C72   H79   1.110490 S    
Cu1   Cu2   2.671962 S    
C66   H65   1.109937 S    
C29   H3    1.083374 S    
O2    C2    1.290222 A    
C30   H4    1.083262 S    
O2    Cu2   1.951572 S    
C9    C22   1.484757 S    
C11   O17   1.384496 S    
O14   C56   1.412110 S    
C48   H21   1.101402 S    
C52   H30   1.109424 S    
C70   C71   1.527937 S    
C69   H72   1.110357 S    
C37   H7    1.078197 S    
C11   C13   1.403138 A    
C6    C16   1.414945 A    
C62   C63   1.524363 S    
C41   C43   1.410417 A    
C39   H9    1.077999 S    
C43   C44   1.518462 S    
C26   C28   1.395946 A    
C63   H57   1.110699 S    
C70   H75   1.101069 S    
C52   H31   1.114259 S    
C74   H86   1.104024 S    
C70   H74   1.111056 S    
C37   N1    1.362802 A    
O18   C64   1.415557 S    
C61   H54   1.112501 S    
Cu1   N2    2.007226 S    
C5    O13   1.393830 S    
C76   H91   1.114793 S    
C51   H29   1.109198 S    
C48   H20   1.108171 S    
C75   H87   1.111512 S    
C42   H12   1.077993 S    
O1    Cu1   1.951572 S    
C14   O20   1.389377 S    
O7    Cu2   2.003368 S    
C69   H73   1.108045 S    
C62   H56   1.111314 S    
C33   C34   1.466118 S    
O6    C4    1.300574 A    
C76   H92   1.108480 S    
O12   C52   1.411011 S    
C45   C46   1.532464 S    
C68   H70   1.111788 S    
C68   C69   1.524751 S    
C23   O23   1.384486 S    
C54   C55   1.526682 S    
C47   H17   1.109960 S    
C63   H59   1.110449 S    
C53   H34   1.099265 S    
O7    C3    1.296850 A    
C58   H45   1.109969 S    
O8    C4    1.290874 A    
C66   H66   1.104965 S    
C59   H49   1.108692 S    
C65   H63   1.110462 S    
O4    C2    1.289921 A    
C10   C12   1.419036 A    
C76   H90   1.108871 S    
C1    C27   1.459128 S    
O17   C61   1.412673 S    
C23   C33   1.409072 A    
C46   C47   1.526941 S    
C2    C28   1.452845 S    
C15   O9    1.389469 S    
C26   H2    1.081751 S    
O11   C51   1.409355 S    
C52   H32   1.108340 S    
C64   C65   1.530028 S    
C6    O14   1.385824 S    
C59   H48   1.110923 S    
C60   H50   1.109673 S    
C38   N2    1.361482 A    
C72   H80   1.110314 S    
C5    C7    1.426657 A    
Cu2   N1    2.007225 S    
O6    Cu2   2.004454 S    
C35   C43   1.410285 A    
C9    C11   1.405052 A    
C17   C22   1.399933 A    
C58   H46   1.111202 S    
C18   C21   1.408024 A    
C17   O21   1.390014 S    
C47   H18   1.110603 S    
O10   C48   1.414003 S    
O3    C1    1.292461 A    
O8    Cu1   2.003366 S    
C73   H82   1.115270 S    
C58   H44   1.111190 S    
C57   C58   1.526479 S    
C38   H8    1.079122 S    
C61   H53   1.111169 S    
C63   H58   1.109437 S    
O3    Cu2   1.950375 S    
C69   H71   1.110274 S    
C62   H55   1.111700 S    
C24   C34   1.412416 A    
C39   C41   1.400676 A    
C55   H39   1.110950 S    
C40   C42   1.398445 A    
O24   C76   1.411632 S    
C56   C57   1.526863 S    
C67   H68   1.107344 S    
O23   C75   1.409861 S    
C19   C21   1.427145 A    
C20   C22   1.419234 A    
C14   C16   1.429437 A    
C51   H28   1.114439 S    
O20   C70   1.410717 S    
C71   H77   1.106668 S    
C24   O24   1.383170 S    
C35   C37   1.399821 A    
C28   C30   1.398120 A    
C51   H27   1.110026 S    
C7    C9    1.419362 A    
C55   H38   1.110522 S    
C8    C10   1.406979 A    
C65   H62   1.111523 S    
C13   C15   1.399281 A    
C53   H33   1.110590 S    
C31   O11   1.382859 S    
C16   O10   1.392496 S    
C73   H83   1.109047 S    
N1    C39   1.363715 A    
C32   C34   1.414085 A    
O5    Cu1   2.004454 S    
C47   H19   1.110923 S    
C32   O12   1.383799 S    
C6    C8    1.402457 A    
O21   C73   1.412929 S    
C50   H26   1.111203 S    
C12   O18   1.387648 S    
O19   C67   1.405030 S    
C50   H25   1.109941 S    
C29   C31   1.392013 A    
C45   H14   1.112810 S    
C56   H41   1.117705 S    
C36   C44   1.411394 A    
C10   C21   1.499789 S    
C59   H47   1.105983 S    
C60   H51   1.112878 S    
C71   C72   1.525743 S    
