data_mof_unit_57157.cif
_audit_creation_date              2012-12-11T17:17:05-0500
_audit_creation_method            fapswitch 2.2
_symmetry_space_group_name_H-M    P1
_symmetry_Int_Tables_number       1
_space_group_crystal_system       triclinic
_cell_length_a                    6.940305
_cell_length_b                    13.374681
_cell_length_c                    14.670791
_cell_angle_alpha                 98.8588
_cell_angle_beta                  89.845773
_cell_angle_gamma                 90.238862
_cell_volume                      1345.54709012

loop_
_atom_site_label
_atom_site_type_symbol
_atom_type_description
_atom_site_fract_x
_atom_site_fract_y
_atom_site_fract_z
_atom_type_partial_charge
O1    O     O_R   0.354890 0.151580 0.148210 -0.529452
O2    O     O_R   0.645110 0.848420 0.851790 -0.529452
O3    O     O_R   0.682370 0.152980 0.336770 -0.543644
O4    O     O_R   0.317630 0.847020 0.663230 -0.543643
O5    O     O_R   0.854980 0.348430 0.351800 -0.538117
O6    O     O_R   0.145020 0.651570 0.648200 -0.538117
C1    C     C_R   0.513383 0.131272 0.366428 0.670605
C2    C     C_R   0.486617 0.868728 0.633571 0.670605
O7    O     O_R   0.684450 0.139580 0.148000 -0.538133
O8    O     O_R   0.315550 0.860420 0.852000 -0.538134
O9    O     O_R   0.857080 0.334940 0.161680 -0.544252
O10   O     O_R   0.142920 0.665060 0.838320 -0.544252
C3    C     C_R   0.515521 0.112703 0.113997 0.752534
C4    C     C_R   0.484479 0.887297 0.886003 0.752535
O11   O     O_R   0.352790 0.165070 0.338330 -0.542719
O12   O     O_R   0.647210 0.834930 0.661670 -0.542718
O13   O     O_3   0.522170 0.314120 0.254710 -0.371250
O14   O     O_3   0.477830 0.685880 0.745290 -0.371249
V1    V     V_3+5 0.796120 0.238110 0.249130 1.423824
V2    V     V_3+5 0.203880 0.761890 0.750870 1.423824
O15   O     O_R   0.186930 0.347040 0.163240 -0.530072
O16   O     O_R   0.813070 0.652960 0.836760 -0.530071
C5    C     C_R   0.018280 0.368506 0.133493 0.741587
C6    C     C_R   0.981720 0.631494 0.866507 0.741586
O17   O     O_R   0.184850 0.360440 0.352010 -0.541607
O18   O     O_R   0.815150 0.639560 0.647990 -0.541607
C7    C     C_R   0.015832 0.387341 0.385980 0.720439
C8    C     C_R   0.984167 0.612659 0.614020 0.720439
V3    V     V_3+5 0.296410 0.261900 0.250880 1.440859
V4    V     V_3+5 0.703590 0.738100 0.749120 1.440861
O19   O     O_3   0.020490 0.185890 0.245290 -0.370699
O20   O     O_3   0.979510 0.814110 0.754710 -0.370699
C9    C     C_1   0.005150 0.466913 0.466339 -0.196846
C10   C     C_1   0.994850 0.533087 0.533660 -0.196846
C11   C     C_3   0.177487 0.539288 0.989257 -0.255149
C12   C     C_3   0.822513 0.460712 0.010743 -0.255149
C13   C     C_3   0.061580 0.552677 0.081209 -0.285313
C14   C     C_3   0.938419 0.447324 0.918791 -0.285311
H1    H     H_    0.109756 0.595546 0.148167 0.120582
H2    H     H_    0.890245 0.404454 0.851834 0.120585
H3    H     H_    0.322847 0.571096 0.979663 0.153317
H4    H     H_    0.677153 0.428904 0.020337 0.153310
C15   C     C_3   0.007957 0.438776 0.063066 -0.124520
C16   C     C_3   0.992043 0.561224 0.936935 -0.124523
C17   C     C_3   0.121409 0.426181 0.972222 0.558782
C18   C     C_3   0.878591 0.573819 0.027778 0.558781
C19   C     C_3   0.319307 0.026359 0.481572 -0.115060
C20   C     C_3   0.680693 0.973641 0.518428 -0.115060
C21   C     C_3   0.397795 0.916773 0.467654 -0.142747
C22   C     C_3   0.602205 0.083227 0.532346 -0.142746
H5    H     H_    0.313491 0.847638 0.441437 0.097823
H6    H     H_    0.686509 0.152362 0.558562 0.097824
H7    H     H_    0.170128 0.048217 0.466120 0.108794
H8    H     H_    0.829872 0.951783 0.533880 0.108794
C23   C     C_3   0.495711 0.938758 0.562726 -0.002139
C24   C     C_3   0.504289 0.061241 0.437274 -0.002139
C25   C     C_3   0.417200 0.047521 0.577448 -0.144444
C26   C     C_3   0.582800 0.952478 0.422552 -0.144445
H9    H     H_    0.349190 0.086327 0.641810 0.101400
H10   H     H_    0.650810 0.913673 0.358190 0.101398
C27   C     C_1   0.504923 0.033110 0.033653 -0.174114
C28   C     C_1   0.495077 0.966890 0.966347 -0.174115
O21   O     O_3   0.248367 0.344302 0.947518 -0.554923
C29   C     C_3   0.343173 0.355331 0.864618 -0.277385
H11   H     H_    0.437952 0.423352 0.873725 0.140353
H12   H     H_    0.239085 0.358287 0.807570 0.129647
H13   H     H_    0.436516 0.288446 0.844284 0.162042
O22   O     O_3   0.751627 0.655696 0.052479 -0.554923
C30   C     C_3   0.656849 0.644680 0.135388 -0.277393
H14   H     H_    0.760957 0.641773 0.192438 0.129657
H15   H     H_    0.562125 0.576637 0.126309 0.140344
H16   H     H_    0.563451 0.711548 0.155701 0.162044

loop_
_geom_bond_atom_site_label_1
_geom_bond_atom_site_label_2
_ccdc_geom_bond_type
C20   C23   S    
C14   H2    S    
O13   V3    S    
C12   H4    S    
O4    C2    A    
V1    O19   S    
C19   C21   S    
C7    C9    S    
C14   C16   S    
O9    V1    S    
C11   C13   S    
O3    C1    A    
C25   H9    S    
C26   H10   S    
C4    C28   S    
C5    C15   S    
O9    C5    A    
C30   H15   S    
O7    C3    A    
C14   C17   S    
O5    C7    A    
O7    V1    S    
O6    C8    A    
O8    V2    S    
O22   C30   S    
C21   H5    S    
C22   H6    S    
O3    V1    S    
O14   V4    S    
C19   H7    S    
C20   C22   S    
C8    C10   S    
C2    O12   A    
C27   C28   T    
C1    C24   S    
C11   H3    S    
C2    C23   S    
C16   C18   S    
O11   V3    S    
O17   V3    S    
C29   H13   S    
O8    C4    A    
C21   C23   S    
O15   V3    S    
C17   O21   S    
C22   C24   S    
C21   C26   S    
C29   H12   S    
C13   C15   S    
C30   H16   S    
C20   H8    S    
C18   O22   S    
C19   C25   S    
O10   V2    S    
O1    V3    S    
C9    C10   T    
C12   C18   S    
C11   C16   S    
C15   C17   S    
O18   V4    S    
C23   C25   S    
C6    C16   S    
O16   C6    A    
O1    C3    A    
C12   C14   S    
C11   C17   S    
V2    O20   S    
O16   V4    S    
C22   C25   S    
C20   C26   S    
O5    V1    S    
O17   C7    A    
O6    V2    S    
O10   C6    A    
O18   C8    A    
O2    V4    S    
C29   H11   S    
O15   C5    A    
V3    O19   S    
V4    O20   S    
C1    O11   A    
O13   V1    S    
C24   C26   S    
O14   V2    S    
C30   H14   S    
O2    C4    A    
O21   C29   S    
O4    V2    S    
C3    C27   S    
C13   H1    S    
C12   C15   S    
C13   C18   S    
O12   V4    S    
C19   C24   S    
