data_mof_unit_49187.cif
_audit_creation_date              2012-10-26T21:33:23-0400
_audit_creation_method            fapswitch 2.2
_symmetry_space_group_name_H-M    P1
_symmetry_Int_Tables_number       1
_space_group_crystal_system       triclinic
_cell_length_a                    28.070718
_cell_length_b                    18.573868
_cell_length_c                    17.031618
_cell_angle_alpha                 89.999824
_cell_angle_beta                  60.870979
_cell_angle_gamma                 89.997998
_cell_volume                      7756.88777748

loop_
_atom_site_label
_atom_site_type_symbol
_atom_type_description
_atom_site_fract_x
_atom_site_fract_y
_atom_site_fract_z
_atom_type_partial_charge
C1    C     C_R   0.701569 0.268357 0.676103 0.954788
C2    C     C_R   0.074982 0.500036 0.581616 0.074286
C3    C     C_R   0.188839 0.220411 0.906289 -0.051213
C4    C     C_R   0.073711 0.100225 0.934408 0.960958
C5    C     C_R   0.926813 0.899186 0.065074 0.959528
C6    C     C_R   0.926154 0.100050 0.065726 0.958935
C7    C     C_R   0.073152 0.899129 0.934965 0.961723
C8    C     C_R   0.573842 0.600055 0.934276 0.957624
C9    C     C_R   0.426846 0.399132 0.065037 0.960724
C10   C     C_R   0.426293 0.600232 0.065588 0.959769
C11   C     C_R   0.573181 0.399179 0.934930 0.958582
C12   C     C_R   0.576766 0.130132 0.417531 0.031945
C13   C     C_R   0.425036 0.999954 0.418405 0.073091
C14   C     C_R   0.480497 0.869076 0.402965 0.004049
C15   C     C_R   0.480598 0.130556 0.402772 0.057611
C16   C     C_R   0.576684 0.869719 0.417877 0.000163
C17   C     C_R   0.019416 0.630676 0.597219 0.055811
C18   C     C_R   0.923658 0.369893 0.581533 0.076755
C19   C     C_R   0.923232 0.630219 0.582441 0.030470
C20   C     C_R   0.019573 0.369316 0.596752 0.079074
C21   C     C_R   0.557854 0.195115 0.398349 0.037963
C22   C     C_R   0.509719 0.804264 0.392384 0.097994
C23   C     C_R   0.509657 0.195205 0.391748 0.083975
C24   C     C_R   0.613640 0.999964 0.455268 0.067893
C25   C     C_R   0.557718 0.804669 0.399054 0.107118
C26   C     C_R   0.990338 0.695316 0.608244 0.084437
C27   C     C_R   0.942391 0.304887 0.600245 0.046061
C28   C     C_R   0.942131 0.695208 0.601642 0.038078
C29   C     C_R   0.990684 0.304529 0.607247 0.046910
C30   C     C_R   0.502030 0.065373 0.414032 -0.023040
C31   C     C_R   0.549531 0.934480 0.422666 0.004256
C32   C     C_R   0.549596 0.065320 0.422481 -0.000067
C33   C     C_R   0.501960 0.934342 0.414172 0.005132
C34   C     C_R   0.950442 0.565443 0.577423 0.004521
C35   C     C_R   0.069752 0.370136 0.596541 -0.160206
C36   C     C_R   0.998120 0.434542 0.585631 -0.017641
C37   C     C_R   0.998008 0.565513 0.585899 -0.018403
C38   C     C_R   0.950631 0.434658 0.577041 -0.017010
C39   C     C_R   0.929136 0.500038 0.566354 0.018719
C40   C     C_R   0.023760 0.500032 0.584378 0.016917
C41   C     C_R   0.476287 0.999883 0.415547 0.018878
C42   C     C_R   0.570947 0.999923 0.433470 0.021113
C43   C     C_R   0.864294 0.434492 0.535522 -0.046252
C44   C     C_R   0.100670 0.565977 0.579517 -0.043769
C45   C     C_R   0.100696 0.434093 0.579441 -0.048136
C46   C     C_R   0.878127 0.628531 0.567470 -0.201386
C47   C     C_R   0.864116 0.565435 0.535899 -0.018862
C48   C     C_R   0.399327 0.934068 0.420510 -0.016938
C49   C     C_R   0.635874 0.065422 0.464107 -0.023020
C50   C     C_R   0.635871 0.934537 0.464165 -0.017303
C51   C     C_R   0.399331 0.065909 0.420562 -0.048162
C52   C     C_R   0.828221 0.435813 0.497663 -0.237325
C53   C     C_R   0.155641 0.565143 0.563232 -0.246684
C54   C     C_R   0.155656 0.434901 0.563186 -0.245389
C55   C     C_R   0.828115 0.564152 0.497898 -0.241740
C56   C     C_R   0.344352 0.934893 0.436809 -0.249973
C57   C     C_R   0.878625 0.371321 0.566518 -0.171829
C58   C     C_R   0.671871 0.064156 0.502124 -0.241029
C59   C     C_R   0.671869 0.935837 0.502160 -0.242216
C60   C     C_R   0.344354 0.065115 0.436845 -0.246098
C61   C     C_R   0.814876 0.499997 0.472866 0.529061
C62   C     C_R   0.180245 0.500017 0.562506 0.549256
C63   C     C_R   0.319749 0.000008 0.437558 0.545850
C64   C     C_R   0.685131 0.000002 0.527117 0.526151
C65   C     C_R   0.069678 0.629927 0.596739 -0.161121
C66   C     C_R   0.621824 0.871434 0.432715 -0.200619
C67   C     C_R   0.430324 0.129834 0.403317 -0.160064
C68   C     C_R   0.430285 0.870121 0.403148 -0.193175
C69   C     C_R   0.298711 0.732296 0.323785 0.944471
C70   C     C_R   0.621842 0.128498 0.432565 -0.200458
C71   C     C_R   0.720354 0.263281 0.953786 0.146339
C72   C     C_R   0.279846 0.738418 0.046412 0.136179
C73   C     C_R   0.279373 0.263602 0.046571 0.143570
C74   C     C_R   0.720180 0.738380 0.953575 0.140240
C75   C     C_R   0.220631 0.763601 0.953426 0.143590
C76   C     C_R   0.779782 0.238309 0.046450 0.141952
C77   C     C_R   0.779590 0.763379 0.046261 0.145985
C78   C     C_R   0.220158 0.238404 0.953588 0.136299
C79   C     C_R   0.773718 0.289543 0.919544 -0.219983
C80   C     C_R   0.298443 0.268338 0.323895 0.947085
C81   C     C_R   0.227149 0.710233 0.078821 -0.256368
C82   C     C_R   0.226823 0.292198 0.078732 -0.206398
C83   C     C_R   0.773693 0.712575 0.919076 -0.270276
C84   C     C_R   0.273177 0.792204 0.921267 -0.206071
C85   C     C_R   0.726257 0.212545 0.080998 -0.270527
C86   C     C_R   0.726238 0.789678 0.080459 -0.218571
C87   C     C_R   0.272859 0.210225 0.921177 -0.256290
C88   C     C_R   0.803348 0.278099 0.965168 0.154583
C89   C     C_R   0.197483 0.722546 0.033153 0.160697
C90   C     C_R   0.197296 0.280543 0.032933 0.153141
C91   C     C_R   0.701297 0.732303 0.676205 0.954321
C92   C     C_R   0.803469 0.724798 0.964541 0.167734
C93   C     C_R   0.302704 0.780557 0.967068 0.153365
C94   C     C_R   0.696472 0.224751 0.035542 0.167637
C95   C     C_R   0.696620 0.778230 0.034812 0.160239
C96   C     C_R   0.302525 0.222546 0.966843 0.160694
C97   C     C_R   0.642419 0.323823 0.947951 0.579918
C98   C     C_R   0.356285 0.674644 0.053460 0.537951
C99   C     C_R   0.357511 0.323833 0.052089 0.581318
C100  C     C_R   0.644072 0.674057 0.946158 0.534661
C101  C     C_R   0.142488 0.823826 0.947913 0.581020
C102  C     C_R   0.201557 0.768337 0.676106 0.948758
C103  C     C_R   0.855899 0.174007 0.053866 0.533216
C104  C     C_R   0.857539 0.823888 0.052081 0.578926
C105  C     C_R   0.143724 0.174627 0.946535 0.537965
C106  C     C_R   0.614616 0.344042 0.900689 -0.341911
C107  C     C_R   0.384698 0.655178 0.100010 -0.325696
C108  C     C_R   0.385394 0.343984 0.099274 -0.339029
C109  C     C_R   0.615529 0.654838 0.899764 -0.331181
C110  C     C_R   0.114603 0.843977 0.900730 -0.338878
C111  C     C_R   0.884459 0.154822 0.100242 -0.329580
C112  C     C_R   0.885359 0.844075 0.099327 -0.341470
C113  C     C_R   0.798702 0.232301 0.323795 0.952572
C114  C     C_R   0.115312 0.155161 0.899983 -0.327319
C115  C     C_R   0.630053 0.316661 0.816449 0.510080
C116  C     C_R   0.370060 0.683689 0.183472 0.500078
C117  C     C_R   0.369994 0.316542 0.183485 0.507626
C118  C     C_R   0.630058 0.683514 0.816438 0.505265
C119  C     C_R   0.130002 0.816534 0.816519 0.507420
C120  C     C_R   0.869940 0.183518 0.183555 0.504782
C121  C     C_R   0.869924 0.816687 0.183561 0.509696
C122  C     C_R   0.129954 0.183664 0.816518 0.502819
C123  C     C_R   0.678564 0.279840 0.771860 -0.175414
C124  C     C_R   0.798419 0.768377 0.323903 0.956852
C125  C     C_R   0.321985 0.721469 0.227833 -0.175463
C126  C     C_R   0.321438 0.279821 0.228145 -0.178399
C127  C     C_R   0.678068 0.721412 0.772122 -0.171840
C128  C     C_R   0.178561 0.779817 0.771856 -0.178625
C129  C     C_R   0.821924 0.221404 0.227879 -0.171680
C130  C     C_R   0.821402 0.779896 0.228162 -0.174131
C131  C     C_R   0.178023 0.221452 0.772163 -0.176344
C132  C     C_R   0.707888 0.260321 0.816913 -0.390029
C133  C     C_R   0.293045 0.742070 0.182501 -0.374606
C134  C     C_R   0.292005 0.260483 0.183215 -0.383305
C135  C     C_R   0.201293 0.232288 0.676213 0.943772
C136  C     C_R   0.706969 0.742103 0.817478 -0.382867
C137  C     C_R   0.207998 0.760480 0.816782 -0.382870
C138  C     C_R   0.793009 0.242073 0.182534 -0.382179
C139  C     C_R   0.792051 0.760429 0.183137 -0.392734
C140  C     C_R   0.206961 0.242053 0.817497 -0.374256
C141  C     C_R   0.696398 0.128268 0.516475 0.959058
C142  C     C_R   0.309155 0.870445 0.463364 0.920837
C143  C     C_R   0.309159 0.129559 0.463367 0.920832
C144  C     C_R   0.696384 0.871730 0.516529 0.958699
C145  C     C_R   0.190838 0.629571 0.536667 0.921643
C146  C     C_R   0.886418 0.499992 0.544609 0.068455
C147  C     C_R   0.803659 0.371728 0.483366 0.954507
C148  C     C_R   0.803590 0.628269 0.483552 0.960373
C149  C     C_R   0.190848 0.370449 0.536625 0.917299
C150  C     C_R   0.688936 0.280550 0.906447 -0.015056
C151  C     C_R   0.311167 0.720430 0.093709 -0.051288
C152  C     C_R   0.310864 0.280818 0.093782 -0.017732
C153  C     C_R   0.688918 0.720302 0.906213 -0.046197
C154  C     C_R   0.189138 0.780814 0.906217 -0.017700
C155  C     C_R   0.811051 0.220251 0.093808 -0.044950
C156  C     C_R   0.811005 0.780651 0.093603 -0.013245
F1    F     F_    0.787624 0.500018 0.424937 -0.628989
F2    F     F_    0.869424 0.144846 0.972405 -0.650350
F3    F     F_    0.873575 0.849194 0.967932 -0.638468
F4    F     F_    0.129658 0.146402 0.028659 -0.641842
F5    F     F_    0.599805 0.330299 0.775331 -0.618744
F6    F     F_    0.400444 0.670050 0.224354 -0.635135
F7    F     F_    0.400330 0.330000 0.224496 -0.625015
F8    F     F_    0.599655 0.669884 0.775594 -0.621348
F9    F     F_    0.099664 0.829990 0.775511 -0.625514
F10   F     F_    0.900357 0.169915 0.224382 -0.621624
F11   F     F_    0.900189 0.830285 0.224658 -0.619235
F12   F     F_    0.230173 0.500008 0.557331 -0.624132
F13   F     F_    0.099577 0.170013 0.775628 -0.628681
F14   F     F_    0.269812 0.000010 0.442762 -0.624479
F15   F     F_    0.712338 0.000010 0.575117 -0.629528
F16   F     F_    0.626388 0.349137 0.032096 -0.636983
F17   F     F_    0.370350 0.646418 0.971337 -0.641166
F18   F     F_    0.373667 0.348801 0.967764 -0.632243
F19   F     F_    0.630528 0.644935 0.027644 -0.643700
F20   F     F_    0.126331 0.848794 0.032239 -0.632720
H1    H     H_    0.083574 0.320722 0.611915 0.210020
H2    H     H_    0.209239 0.677602 0.139214 0.155038
H3    H     H_    0.209100 0.325165 0.138841 0.165050
H4    H     H_    0.792205 0.681838 0.857134 0.148495
H5    H     H_    0.290897 0.825171 0.861159 0.165014
H6    H     H_    0.707741 0.181849 0.142972 0.148218
H7    H     H_    0.707923 0.820837 0.142073 0.158106
H8    H     H_    0.290773 0.177594 0.860782 0.155004
H9    H     H_    0.745901 0.230810 0.782266 0.215759
H10   H     H_    0.255693 0.773007 0.216628 0.217275
H11   H     H_    0.253971 0.231032 0.217878 0.217696
H12   H     H_    0.854110 0.676586 0.582663 0.179443
H13   H     H_    0.744250 0.773196 0.783391 0.211547
H14   H     H_    0.246034 0.731032 0.782116 0.218005
H15   H     H_    0.755726 0.273163 0.216625 0.211939
H16   H     H_    0.754023 0.730953 0.217800 0.211534
H17   H     H_    0.244309 0.272994 0.783375 0.217598
H18   H     H_    0.018847 0.202400 0.571481 0.194222
H19   H     H_    0.981320 0.216512 0.684158 0.213162
H20   H     H_    0.874389 0.757346 0.665748 0.182577
H21   H     H_    0.912755 0.773319 0.553239 0.200617
H22   H     H_    0.938929 0.202650 0.560888 0.198301
H23   H     H_    0.855175 0.322692 0.581147 0.206413
H24   H     H_    0.900892 0.217631 0.673332 0.198288
H25   H     H_    0.017088 0.797733 0.573260 0.212268
H26   H     H_    0.980210 0.782978 0.685493 0.228559
H27   H     H_    0.625275 0.742128 0.335477 0.179787
H28   H     H_    0.586868 0.726775 0.448105 0.192949
H29   H     H_    0.482876 0.297613 0.426768 0.214047
H30   H     H_    0.519756 0.282880 0.314528 0.229482
H31   H     H_    0.488720 0.740674 0.317178 0.212264
H32   H     H_    0.452243 0.725937 0.430156 0.192571
H33   H     H_    0.625578 0.257290 0.334286 0.182839
H34   H     H_    0.083505 0.679382 0.612027 0.209223
H35   H     H_    0.587183 0.273254 0.446798 0.201343
H36   H     H_    0.618794 0.218202 0.136403 0.215562
H37   H     H_    0.643928 0.141117 0.078058 0.182202
H38   H     H_    0.354616 0.845261 0.984955 0.187165
H39   H     H_    0.384746 0.774618 0.915130 0.242848
H40   H     H_    0.380261 0.211581 0.867534 0.222682
H41   H     H_    0.352743 0.136507 0.929214 0.184046
H42   H     H_    0.642807 0.841719 0.020299 0.188266
H43   H     H_    0.614507 0.769645 0.088510 0.241144
H44   H     H_    0.119748 0.711575 0.132460 0.222416
H45   H     H_    0.645851 0.823388 0.417468 0.176398
H46   H     H_    0.147275 0.636502 0.070779 0.184263
H47   H     H_    0.857235 0.341522 0.979568 0.190865
H48   H     H_    0.885467 0.269428 0.911348 0.237640
H49   H     H_    0.881152 0.718173 0.863709 0.215092
H50   H     H_    0.855984 0.641125 0.922122 0.182902
H51   H     H_    0.145376 0.345239 0.015049 0.187627
H52   H     H_    0.115255 0.274597 0.084875 0.242649
H53   H     H_    0.416491 0.179294 0.388053 0.209211
H54   H     H_    0.416308 0.821139 0.387344 0.178999
H55   H     H_    0.645819 0.176580 0.417442 0.179332
H56   H     H_    0.792035 0.320670 0.857907 0.161797
N1    N     N_3   0.011059 0.238476 0.623449 -0.448455
N2    N     N_3   0.354915 0.814367 0.933399 -0.448125
N3    N     N_3   0.355908 0.192352 0.932893 -0.421951
N4    N     N_3   0.643659 0.810267 0.070512 -0.455243
N5    N     N_3   0.144103 0.692346 0.067101 -0.421832
N6    N     N_3   0.856331 0.310080 0.929391 -0.457117
N7    N     N_3   0.857707 0.696942 0.928292 -0.420925
N8    N     N_3   0.145081 0.314348 0.066604 -0.448201
N9    N     N_3   0.914140 0.762221 0.612274 -0.463093
N10   N     N_3   0.913064 0.239222 0.609682 -0.473453
N11   N     N_3   0.010338 0.761551 0.624689 -0.438988
N12   N     N_3   0.585507 0.737570 0.388982 -0.410798
N13   N     N_3   0.489637 0.261437 0.375328 -0.438356
N14   N     N_3   0.491042 0.736728 0.376459 -0.404121
N15   N     N_3   0.585821 0.262143 0.387747 -0.461062
N16   N     N_3   0.642223 0.196931 0.071838 -0.421249
O1    O     O_R   0.746490 0.236330 0.638080 -0.660335
O2    O     O_R   0.325830 0.813840 0.483730 -0.663505
O3    O     O_R   0.325830 0.186160 0.483730 -0.658582
O4    O     O_R   0.674170 0.813840 0.516270 -0.665987
O5    O     O_R   0.174170 0.686160 0.516270 -0.658240
O6    O     O_R   0.825830 0.313840 0.483730 -0.661178
O7    O     O_R   0.825830 0.686160 0.483730 -0.665387
O8    O     O_R   0.174170 0.313840 0.516270 -0.658564
O9    O     O_R   0.739960 0.127620 0.525000 -0.552020
O10   O     O_R   0.260040 0.872380 0.475000 -0.539184
O11   O     O_R   0.260040 0.127620 0.475000 -0.538907
O12   O     O_R   0.253510 0.763670 0.361920 -0.650471
O13   O     O_R   0.739960 0.872380 0.525000 -0.552569
O14   O     O_R   0.239960 0.627620 0.525000 -0.537912
O15   O     O_R   0.760040 0.372380 0.475000 -0.552536
O16   O     O_R   0.760040 0.627620 0.475000 -0.550817
O17   O     O_R   0.239960 0.372380 0.525000 -0.539337
O18   O     O_R   0.680700 0.294870 0.629350 -0.555666
O19   O     O_R   0.319300 0.705130 0.370650 -0.561229
O20   O     O_R   0.319300 0.294870 0.370650 -0.556823
O21   O     O_R   0.680700 0.705130 0.629350 -0.554473
O22   O     O_R   0.180700 0.794870 0.629350 -0.556788
O23   O     O_R   0.253510 0.236330 0.361920 -0.650500
O24   O     O_R   0.819300 0.205130 0.370650 -0.554326
O25   O     O_R   0.819300 0.794870 0.370650 -0.555024
O26   O     O_R   0.180700 0.205130 0.629350 -0.556505
O27   O     O_R   0.062020 0.072840 0.007170 -0.564601
O28   O     O_R   0.937980 0.927160 0.992830 -0.567148
O29   O     O_R   0.937980 0.072840 0.992830 -0.567313
O30   O     O_R   0.062020 0.927160 0.007170 -0.565468
O31   O     O_R   0.562020 0.572840 0.007170 -0.565735
O32   O     O_R   0.437980 0.427160 0.992830 -0.565477
O33   O     O_R   0.437980 0.572840 0.992830 -0.564671
O34   O     O_R   0.746490 0.763670 0.638080 -0.668530
O35   O     O_R   0.562020 0.427160 0.007170 -0.566488
O36   O     O_R   0.947860 0.073950 0.109290 -0.568872
O37   O     O_R   0.052140 0.926050 0.890710 -0.567532
O38   O     O_R   0.052140 0.073950 0.890710 -0.569346
O39   O     O_R   0.947860 0.926050 0.109290 -0.567675
O40   O     O_R   0.447860 0.573950 0.109290 -0.568816
O41   O     O_R   0.552140 0.426050 0.890710 -0.567635
O42   O     O_R   0.552140 0.573950 0.890710 -0.568764
O43   O     O_R   0.447860 0.426050 0.109290 -0.567232
O44   O     O_R   0.246490 0.736330 0.638080 -0.650409
O45   O     O_R   0.753510 0.263670 0.361920 -0.668596
O46   O     O_R   0.753510 0.736330 0.361920 -0.666924
O47   O     O_R   0.246490 0.263670 0.638080 -0.651091
O48   O     O_R   0.674170 0.186160 0.516270 -0.665790
Zn1   Zn    Zn3+2 0.792340 0.208750 0.507670 1.045431
Zn2   Zn    Zn3+2 0.494040 0.500000 0.919480 1.155753
Zn3   Zn    Zn3+2 0.005960 0.000000 0.080520 1.153539
Zn4   Zn    Zn3+2 0.994040 0.000000 0.919480 1.141861
Zn5   Zn    Zn3+2 0.207660 0.791250 0.492330 1.053797
Zn6   Zn    Zn3+2 0.207660 0.208750 0.492330 1.055368
Zn7   Zn    Zn3+2 0.792340 0.791250 0.507670 1.025030
Zn8   Zn    Zn3+2 0.292340 0.708750 0.507670 1.042329
Zn9   Zn    Zn3+2 0.707660 0.291250 0.492330 1.027336
Zn10  Zn    Zn3+2 0.707660 0.708750 0.492330 1.029138
Zn11  Zn    Zn3+2 0.292340 0.291250 0.507670 1.055781
Zn12  Zn    Zn3+2 0.505960 0.500000 0.080520 1.149614

loop_
_geom_bond_atom_site_label_1
_geom_bond_atom_site_label_2
_ccdc_geom_bond_type
C100  C153  A    
C92   N7    S    
C85   H6    S    
C31   C42   A    
O32   Zn2   S    
C133  C151  A    
C113  O24   A    
C149  O17   A    
C74   C83   A    
O5    Zn5   S    
C14   C33   A    
C19   C46   A    
C120  F10   S    
C21   N15   S    
C117  F7    S    
C16   C31   A    
O13   Zn7   S    
C118  F8    S    
C143  O3    A    
C83   H4    S    
C50   C59   A    
C81   H2    S    
H29   N13   S    
C52   C61   A    
C77   C156  S    
C132  C150  A    
C91   O34   A    
C142  O10   A    
C131  C140  A    
C13   C51   A    
C44   C53   A    
O17   Zn11  S    
C97   C150  A    
C117  C126  A    
O8    Zn6   S    
C119  C128  A    
C47   C146  A    
C100  C109  A    
C58   C64   A    
C144  O13   A    
O26   Zn6   S    
O27   Zn3   S    
C109  C118  A    
C115  C123  A    
H30   N13   S    
C127  C136  A    
O15   Zn9   S    
C139  H16   S    
C9    O43   A    
C101  C110  A    
H22   N10   S    
C34   C39   A    
C9    C108  S    
H37   N16   S    
C72   C151  S    
C100  F19   S    
C124  C130  S    
C29   N1    S    
O14   Zn8   S    
C69   O12   A    
C103  C155  A    
C86   H7    S    
H49   N7    S    
C104  F3    S    
C147  O15   A    
C35   C45   A    
C27   N10   S    
H24   N10   S    
C15   C30   A    
C22   N14   S    
C25   N12   S    
C16   C25   A    
H50   N7    S    
C76   C155  S    
C63   F14   S    
O33   Zn2   S    
C69   O19   A    
O46   Zn10  S    
C93   N2    S    
C106  C115  A    
O36   Zn3   S    
H20   N9    S    
C64   F15   S    
C18   C38   A    
O6    Zn1   S    
C136  C153  A    
C58   C141  S    
C99   F18   S    
C80   C126  S    
O2    Zn8   S    
H51   N8    S    
C84   C93   A    
O7    Zn7   S    
H32   N14   S    
C86   C95   A    
C2    C40   A    
C126  C134  A    
O3    Zn11  S    
O43   Zn12  S    
H40   N3    S    
H48   N6    S    
C76   C85   A    
C78   C87   A    
C62   F12   S    
C123  C132  A    
C27   C29   A    
C6    C111  S    
C138  H15   S    
C121  C130  A    
H36   N16   S    
H41   N3    S    
C71   C79   A    
C99   C108  A    
C149  O8    A    
C77   C86   A    
H52   N8    S    
C37   C40   A    
C102  C128  S    
C60   C143  S    
C38   C39   A    
C1    O1    A    
C75   C84   A    
C105  F4    S    
O18   Zn9   S    
C53   C62   A    
H35   N15   S    
C135  O47   A    
C70   H55   S    
O40   Zn12  S    
C20   C35   A    
C2    C44   A    
C22   C25   A    
C9    O32   A    
C140  H17   S    
C119  F9    S    
C15   C67   A    
C57   H23   S    
C44   C65   A    
C124  O46   A    
C68   H54   S    
O22   Zn5   S    
C2    C45   A    
C113  O45   A    
C120  C129  A    
C10   O40   A    
C143  O11   A    
C104  C112  A    
C98   F17   S    
C26   N11   S    
C141  O48   A    
H27   N12   S    
C115  F5    S    
C124  O25   A    
C3    C105  A    
C88   N6    S    
C51   C67   A    
C148  O16   A    
C19   C28   A    
C24   C50   A    
C67   H53   S    
C65   H34   S    
C116  C125  A    
C73   C152  S    
C95   N4    S    
C122  C131  A    
O20   Zn11  S    
O35   Zn12  S    
C12   C70   A    
C14   C68   A    
C80   O20   A    
C4    O27   A    
C108  C117  A    
C110  C119  A    
C59   C144  S    
C5    C112  S    
C99   C152  A    
H46   N5    S    
C73   C96   A    
C7    C110  S    
C136  H13   S    
C14   C22   A    
C81   C89   A    
C112  C121  A    
O37   Zn4   S    
C3    C78   S    
C55   C148  S    
C101  C154  A    
C55   C61   A    
C96   N3    S    
C107  C116  A    
C75   C89   A    
C137  H14   S    
C118  C127  A    
C132  H9    S    
C141  O9    A    
C51   C60   A    
C94   N16   S    
C138  C155  A    
C35   H1    S    
O47   Zn11  S    
C34   C37   A    
C24   C42   A    
O42   Zn2   S    
C11   O35   A    
C8    O31   A    
C13   C41   A    
C78   C90   A    
H21   N9    S    
C97   F16   S    
O39   Zn3   S    
C4    C114  S    
O48   Zn9   S    
C103  C111  A    
H28   N12   S    
C1    O18   A    
C82   H3    S    
C72   C81   A    
O12   Zn5   S    
C56   C142  S    
C69   C125  S    
C145  O5    A    
O19   Zn8   S    
H38   N2    S    
H39   N2    S    
C66   H45   S    
C130  C139  A    
C74   C95   A    
C79   C88   A    
O28   Zn4   S    
C98   C151  A    
C121  F11   S    
C89   N5    S    
C54   C62   A    
H47   N6    S    
C4    O38   A    
C98   C107  A    
C5    O39   A    
C23   N13   S    
C1    C123  S    
C7    O37   A    
C61   F1    S    
O29   Zn4   S    
C18   C57   A    
O30   Zn3   S    
C122  F13   S    
C134  C152  A    
C11   C106  S    
C53   C145  S    
C48   C68   A    
O34   Zn7   S    
C72   C93   A    
O9    Zn1   S    
C49   C70   A    
C21   C23   A    
H44   N5    S    
C16   C66   A    
C28   N9    S    
C17   C26   A    
H18   N1    S    
O16   Zn10  S    
C73   C82   A    
C102  O44   A    
C46   C47   A    
C102  O22   A    
C26   C28   A    
C134  H11   S    
C103  F2    S    
O11   Zn6   S    
O4    Zn10  S    
C82   C90   A    
C80   O23   A    
C33   C41   A    
C36   C38   A    
H42   N4    S    
C43   C146  A    
O31   Zn12  S    
H26   N11   S    
C39   C146  A    
C71   C150  S    
C137  C154  A    
C43   C52   A    
C79   H56   S    
O21   Zn10  S    
C20   C36   A    
C11   O41   A    
C32   C42   A    
H19   N1    S    
O23   Zn6   S    
C6    O29   A    
O1    Zn1   S    
C77   C92   A    
C142  O2    A    
C71   C94   A    
C8    O42   A    
C83   C92   A    
C59   C64   A    
C113  C129  S    
C60   C63   A    
O41   Zn2   S    
C10   O33   A    
C116  F6    S    
C84   H5    S    
C131  C135  S    
C129  C138  A    
C91   C127  S    
C31   C33   A    
C7    O30   A    
H33   N15   S    
C15   C23   A    
C144  O4    A    
C12   C32   A    
O38   Zn4   S    
C10   C107  S    
C54   C149  S    
C20   C29   A    
O10   Zn5   S    
C105  C114  A    
C36   C40   A    
C87   H8    S    
C43   C57   A    
C12   C21   A    
C49   C58   A    
C74   C153  S    
C111  C120  A    
C128  C137  A    
O45   Zn9   S    
C85   C94   A    
C87   C96   A    
C56   C63   A    
C30   C41   A    
C5    O28   A    
C17   C37   A    
C104  C156  A    
C50   C66   A    
C133  H10   S    
C45   C54   A    
C52   C147  S    
C97   C106  A    
H31   N14   S    
C47   C55   A    
C125  C133  A    
C24   C49   A    
C48   C56   A    
C76   C88   A    
H43   N4    S    
C6    O36   A    
C18   C27   A    
O25   Zn7   S    
C91   O21   A    
C19   C34   A    
C13   C48   A    
C147  O6    A    
C17   C65   A    
H25   N11   S    
C90   N8    S    
C135  O26   A    
C8    C109  S    
C30   C32   A    
C75   C154  S    
C139  C156  A    
O44   Zn8   S    
C114  C122  A    
C148  O7    A    
C145  O14   A    
C101  F20   S    
C3    C140  A    
C46   H12   S    
O24   Zn1   S    
