data_mof_unit_17307.cif
_audit_creation_date              2013-03-05T16:11:05-0500
_audit_creation_method            fapswitch 2.2
_symmetry_space_group_name_H-M    P1
_symmetry_Int_Tables_number       1
_space_group_crystal_system       triclinic
_cell_length_a                    10.73562
_cell_length_b                    9.658023
_cell_length_c                    10.658342
_cell_angle_alpha                 89.192114
_cell_angle_beta                  89.109402
_cell_angle_gamma                 88.294973
_cell_volume                      1104.38320011

loop_
_atom_site_label
_atom_site_type_symbol
_atom_site_description
_atom_site_fract_x
_atom_site_fract_y
_atom_site_fract_z
_atom_type_partial_charge
O1    O     O_R   0.317570 0.620260 0.500070 -0.585236
O2    O     O_R   0.317570 0.379740 0.500070 -0.587133
C1    C     C_R   0.260372 0.501306 0.503976 0.739639
O3    O     O_R   0.499850 0.620240 0.316900 -0.602012
O4    O     O_R   0.499850 0.379760 0.316900 -0.601391
C2    C     C_R   0.500921 0.501181 0.260424 0.795490
Cu1   Cu    Cu3+1 0.499860 0.642410 0.500060 0.890183
Cu2   Cu    Cu3+1 0.499860 0.357590 0.500060 0.894538
O5    O     O_R   0.682190 0.620260 0.500030 -0.599718
O6    O     O_R   0.682190 0.379740 0.500030 -0.584036
O7    O     O_R   0.499910 0.620280 0.683200 -0.582622
O8    O     O_R   0.499910 0.379720 0.683200 -0.581749
C3    C     C_R   0.739192 0.498784 0.505591 0.748758
C4    C     C_R   0.499257 0.499026 0.740037 0.800459
C5    C     C_3   0.493290 0.634318 0.038432 -0.178922
C6    C     C_3   0.402353 0.432903 0.047788 -0.211222
C7    C     C_3   0.394270 0.562093 0.959558 -0.250104
H1    H     H_    0.306855 0.611371 0.923704 0.137353
H2    H     H_    0.488039 0.743180 0.070760 0.138673
H3    H     H_    0.321817 0.376813 0.087861 0.130667
C8    C     C_3   0.499539 0.497325 0.877386 -0.042428
C9    C     C_3   0.597481 0.569190 0.954812 0.192660
C10   C     C_3   0.507825 0.369618 0.964914 0.219096
C11   C     C_3   0.606280 0.441105 0.041774 0.207225
C12   C     C_3   0.501808 0.504184 0.123865 -0.058400
C13   C     C_3   0.065852 0.646455 0.541517 -0.395884
C14   C     C_3   0.074151 0.395442 0.606875 -0.369288
H4    H     H_    0.089432 0.721735 0.466347 0.174620
H5    H     H_    0.113821 0.290011 0.587702 0.162368
H6    H     H_    0.103681 0.682586 0.631624 0.154766
H7    H     H_    0.104910 0.424466 0.701980 0.146700
C15   C     C_3   0.923459 0.642526 0.550206 -0.376395
C16   C     C_3   0.930412 0.390568 0.605168 -0.383021
H8    H     H_    0.891544 0.664741 0.647920 0.159431
H9    H     H_    0.891825 0.412324 0.700597 0.143520
H10   H     H_    0.884865 0.726553 0.489174 0.173910
H11   H     H_    0.903135 0.284511 0.581747 0.160622
H12   H     H_    0.110685 0.534318 0.303547 0.143917
H13   H     H_    0.107709 0.356232 0.352571 0.164947
H14   H     H_    0.898265 0.550676 0.309837 0.151158
H15   H     H_    0.896800 0.368185 0.341824 0.162468
C17   C     C_3   0.074122 0.462437 0.376973 -0.390521
C18   C     C_3   0.121856 0.501965 0.507646 0.178696
C19   C     C_3   0.877647 0.498704 0.509351 0.178626
C20   C     C_3   0.930765 0.467909 0.376406 -0.390004
C21   C     C_3   0.630744 0.076704 0.492071 0.116375
C22   C     C_3   0.628357 0.910554 0.477281 0.122317
H16   H     H_    0.677792 0.095144 0.582715 0.110702
H17   H     H_    0.691679 0.866275 0.550172 0.133726
H18   H     H_    0.484481 0.124430 0.700139 0.166895
H19   H     H_    0.527860 0.890957 0.698252 0.138222
C23   C     C_3   0.441465 0.081574 0.616951 -0.281139
C24   C     C_3   0.458419 0.917953 0.624665 -0.271525
C25   C     C_3   0.433776 0.085532 0.390579 0.185665
C26   C     C_3   0.418501 0.921335 0.401468 0.182837
N1    N     N_3   0.500250 0.143650 0.502780 -0.139147
N2    N     N_3   0.500250 0.856350 0.502780 -0.143655
H20   H     H_    0.493628 0.102045 0.305739 0.117266
H21   H     H_    0.449736 0.880060 0.309220 0.125600
H22   H     H_    0.340772 0.111584 0.621872 0.165178
H23   H     H_    0.371455 0.870853 0.659692 0.164999
C27   C     C_3   0.717056 0.145907 0.390368 -0.814458
H24   H     H_    0.756174 0.086467 0.311689 0.192788
H25   H     H_    0.668806 0.230128 0.339828 0.280159
H26   H     H_    0.802290 0.181044 0.435034 0.209836
C28   C     C_3   0.684997 0.858828 0.348845 -0.834956
H27   H     H_    0.645276 0.916134 0.267192 0.187768
H28   H     H_    0.787659 0.869245 0.347668 0.194868
H29   H     H_    0.671736 0.750812 0.326444 0.281399
C29   C     C_3   0.311871 0.161311 0.349588 -0.800537
H30   H     H_    0.239358 0.158666 0.424822 0.230044
H31   H     H_    0.322172 0.266786 0.313457 0.260717
H32   H     H_    0.277279 0.112785 0.263487 0.168205
C30   C     C_3   0.281266 0.874561 0.407924 -0.809222
H33   H     H_    0.245952 0.864766 0.505272 0.230542
H34   H     H_    0.210732 0.939402 0.359607 0.183764
H35   H     H_    0.273352 0.779145 0.352555 0.238261
C31   C     C_3   0.708099 0.647165 0.901821 -0.912642
H36   H     H_    0.764201 0.685527 0.979978 0.234878
H37   H     H_    0.767076 0.576825 0.842938 0.218642
H38   H     H_    0.674558 0.736524 0.843731 0.234616
C32   C     C_3   0.514355 0.216532 0.934928 -0.904240
H39   H     H_    0.527219 0.155199 0.022931 0.227758
H40   H     H_    0.425279 0.187290 0.892780 0.224494
H41   H     H_    0.594654 0.194490 0.870759 0.232461
C33   C     C_3   0.728510 0.374100 0.084918 -0.922995
H42   H     H_    0.710487 0.274408 0.133241 0.232278
H43   H     H_    0.790208 0.353692 0.002320 0.238732
H44   H     H_    0.775006 0.444637 0.149194 0.222119

loop_
_geom_bond_atom_site_label_1
_geom_bond_atom_site_label_2
_geom_bond_distance
_ccdc_geom_bond_type
C28   H28   1.109558 S    
C13   C15   1.531601 S    
C10   C32   1.516412 S    
C26   H21   1.109465 S    
C14   H5    1.112353 S    
Cu2   N1    2.065913 S    
Cu1   Cu2   2.750797 S    
C22   H17   1.112802 S    
C14   C16   1.545646 S    
Cu1   O7    1.960645 S    
C1    C18   1.486795 S    
C30   H34   1.097983 S    
C21   C27   1.570213 S    
C15   H10   1.107654 S    
C4    C8    1.463825 S    
H12   C17   1.113489 S    
O4    C2    1.310851 A    
O7    C4    1.311025 A    
C33   H43   1.109772 S    
C5    C12   1.542918 S    
C28   H29   1.087428 S    
C5    C7    1.552992 S    
O5    C3    1.308005 A    
C27   H25   1.091495 S    
C23   H22   1.111452 S    
C25   C26   1.601521 S    
C26   C30   1.554027 S    
C24   H23   1.107964 S    
C5    C9    1.544048 S    
C6    C7    1.552955 S    
C30   H35   1.107372 S    
H18   C23   1.097808 S    
C10   C11   1.533388 S    
C29   H30   1.109450 S    
C22   C28   1.571166 S    
Cu2   O8    1.966640 S    
C28   H27   1.108818 S    
O1    Cu1   1.974968 S    
C8    C9    1.534561 S    
O3    Cu1   1.966890 S    
C13   C18   1.548140 S    
H13   C17   1.110122 S    
C21   H16   1.116057 S    
H14   C20   1.113210 S    
C25   N1    1.524389 S    
C30   H33   1.102888 S    
C14   H7    1.113127 S    
C11   C12   1.529213 S    
C9    C31   1.522102 S    
O3    C2    1.305063 A    
C24   N2    1.493674 S    
C31   H36   1.109745 S    
C33   H44   1.107529 S    
C16   H11   1.106612 S    
O1    C1    1.318524 A    
C17   C20   1.538462 S    
C15   H8    1.113075 S    
C5    H2    1.110586 S    
C27   H24   1.094273 S    
C22   N2    1.505529 S    
C25   C29   1.546296 S    
C6    H3    1.110535 S    
C29   H32   1.110319 S    
C7    H1    1.110266 S    
C15   C19   1.557329 S    
O8    C4    1.309128 A    
C13   H6    1.113139 S    
C6    C10   1.542360 S    
C32   H40   1.108627 S    
C8    C10   1.537227 S    
C9    C11   1.536795 S    
C17   C18   1.548205 S    
C23   C24   1.586442 S    
C25   H20   1.113526 S    
C6    C12   1.535512 S    
Cu1   O5    1.962739 S    
C21   C22   1.615609 S    
C27   H26   1.102569 S    
C33   H42   1.106237 S    
C16   C19   1.551534 S    
O2    Cu2   1.962314 S    
C19   C20   1.548585 S    
O6    C3    1.320913 A    
O4    Cu2   1.960887 S    
C32   H41   1.109541 S    
C13   H4    1.105806 S    
C26   N2    1.519115 S    
O2    C1    1.309565 A    
C31   H38   1.109589 S    
C16   H9    1.112670 S    
C31   H37   1.109214 S    
C7    C8    1.542125 S    
C2    C12   1.455270 S    
C14   C18   1.556634 S    
Cu2   O6    1.975393 S    
C32   H39   1.110511 S    
C21   N1    1.528692 S    
H15   C20   1.109744 S    
C29   H31   1.092044 S    
H19   C24   1.113428 S    
C11   C33   1.520516 S    
Cu1   N2    2.066979 S    
C3    C19   1.487541 S    
C23   N1    1.488815 S    
