data_mof_unit_47191.cif
_audit_creation_date              2012-12-11T15:39:32-0500
_audit_creation_method            fapswitch 2.2
_symmetry_space_group_name_H-M    P1
_symmetry_Int_Tables_number       1
_space_group_crystal_system       triclinic
_cell_length_a                    14.303584
_cell_length_b                    14.816326
_cell_length_c                    33.215058
_cell_angle_alpha                 97.990391
_cell_angle_beta                  90.415755
_cell_angle_gamma                 118.704926
_cell_volume                      6091.89160431

loop_
_atom_site_label
_atom_site_type_symbol
_atom_type_description
_atom_site_fract_x
_atom_site_fract_y
_atom_site_fract_z
_atom_type_partial_charge
C1    C     C_R   0.617181 0.909689 0.437006 0.535405
C2    C     C_R   0.711953 0.436829 0.949387 0.538161
C3    C     C_R   0.556737 0.805035 0.773431 -0.034903
C4    C     C_R   0.563017 0.822857 0.733358 -0.072131
C5    C     C_R   0.597336 0.769356 0.704480 -0.021349
C6    C     C_R   0.619264 0.693142 0.715406 -0.048692
C7    C     C_R   0.615998 0.675994 0.755858 0.284273
C8    C     C_R   0.586714 0.734983 0.785503 0.113866
C9    C     C_R   0.565623 0.726554 0.628760 -0.116250
C10   C     C_R   0.572210 0.759242 0.590617 0.198308
C11   C     C_R   0.693972 0.938608 0.623009 0.199071
C12   C     C_R   0.710414 0.738922 0.949878 0.561259
C13   C     C_R   0.834292 0.435113 0.163486 -0.125502
C14   C     C_R   0.828278 0.448846 0.123028 -0.166227
C15   C     C_R   0.774685 0.341265 0.244512 -0.115784
C16   C     C_R   0.765838 0.327730 0.285256 -0.138150
C17   C     C_R   0.744097 0.393597 0.313616 0.047662
C18   C     C_R   0.740010 0.479618 0.301277 0.313415
C19   C     C_R   0.746196 0.490454 0.260157 -0.035179
C20   C     C_R   0.760405 0.419961 0.231539 -0.023381
C21   C     C_R   0.751409 0.424192 0.187854 -0.008207
C22   C     C_R   0.606728 0.336868 0.364274 0.251945
C23   C     C_R   0.593555 0.204799 0.456213 0.568480
C24   C     C_R   0.571145 0.295383 0.400726 0.234588
C25   C     C_R   0.739454 0.295478 0.412302 -0.186149
C26   C     C_R   0.776794 0.342562 0.378142 -0.189787
C27   C     C_R   0.710507 0.361449 0.353541 0.015263
C28   C     C_R   0.635728 0.268544 0.423348 0.030772
C29   C     C_R   0.245072 0.877754 0.392857 0.026036
C30   C     C_R   0.212125 0.948065 0.381906 0.238746
C31   C     C_R   0.186394 0.944980 0.339996 0.253283
C32   C     C_R   0.685058 0.904105 0.660712 -0.127743
C33   C     C_R   0.201094 0.877225 0.310055 0.042882
C34   C     C_R   0.228460 0.805040 0.321272 -0.172444
C35   C     C_R   0.295309 0.892639 0.434310 0.572043
C36   C     C_R   0.248444 0.804026 0.362200 -0.183065
C37   C     C_R   0.201218 0.806521 0.162998 0.231627
C38   C     C_R   0.172061 0.783024 0.120355 0.208672
C39   C     C_R   0.120504 0.919132 0.127239 0.179449
C40   C     C_R   0.140082 0.934227 0.169607 -0.106783
C41   C     C_R   0.175301 0.874841 0.187495 -0.008713
C42   C     C_1   0.183907 0.882092 0.231184 0.071867
C43   C     C_R   0.617476 0.799609 0.663883 -0.038096
C44   C     C_1   0.190546 0.881760 0.267335 0.084442
C45   C     C_R   0.123506 0.834157 0.102750 0.010654
C46   C     C_R   0.637774 0.878221 0.395036 -0.073174
C47   C     C_R   0.614232 0.905453 0.551655 0.605609
C48   C     C_R   0.569626 0.778927 0.371519 0.285931
C49   C     C_R   0.572029 0.763973 0.328889 0.271350
C50   C     C_R   0.646167 0.847103 0.309884 0.015001
C51   C     C_R   0.721095 0.941497 0.333516 0.223516
C52   C     C_R   0.716511 0.956186 0.375838 -0.171282
C53   C     C_R   0.760091 0.915252 0.175483 0.204034
C54   C     C_R   0.632075 0.866736 0.588095 0.101386
C55   C     C_R   0.785177 0.904718 0.134449 0.182284
C56   C     C_R   0.602736 0.761387 0.116203 0.249697
C57   C     C_R   0.581456 0.766152 0.157274 0.251797
C58   C     C_R   0.662734 0.840129 0.187116 -0.019820
C59   C     C_R   0.589702 0.199627 0.571067 0.564013
C60   C     C_1   0.650517 0.838447 0.230031 0.063758
C61   C     C_1   0.645956 0.839643 0.266209 0.059395
C62   C     C_R   0.707937 0.823655 0.105058 -0.039258
C63   C     C_R   0.622037 0.248835 0.614505 0.055486
C64   C     C_R   0.557768 0.281373 0.637801 0.236799
C65   C     C_R   0.055138 0.782681 0.063305 0.574525
C66   C     C_R   0.574264 0.300582 0.680667 -0.091562
C67   C     C_R   0.653660 0.288649 0.700062 0.011628
C68   C     C_R   0.722826 0.265431 0.677068 -0.130913
C69   C     C_R   0.707796 0.246632 0.634588 -0.163181
C70   C     C_R   0.759141 0.333219 0.846321 -0.111486
C71   C     C_R   0.289887 0.887574 0.548795 0.540684
C72   C     C_R   0.769976 0.363713 0.888533 -0.125413
C73   C     C_R   0.590765 0.342168 0.885675 -0.117959
C74   C     C_R   0.580179 0.311698 0.843456 -0.107082
C75   C     C_R   0.665926 0.311276 0.823627 0.039828
C76   C     C_R   0.744160 0.487135 0.066424 0.563072
C77   C     C_1   0.662827 0.300506 0.780017 -0.006112
C78   C     C_1   0.660015 0.295130 0.743545 0.000704
C79   C     C_R   0.687882 0.373608 0.908355 0.021487
C80   C     C_R   0.078184 0.759210 0.910769 0.067955
C81   C     C_R   0.122764 0.861366 0.901641 0.242363
C82   C     C_R   0.156302 0.879096 0.862582 -0.110245
C83   C     C_R   0.738680 0.450740 0.106150 0.053825
C84   C     C_R   0.146453 0.796742 0.833350 -0.021302
C85   C     C_R   0.109347 0.697432 0.843518 -0.132090
C86   C     C_R   0.075900 0.678833 0.882099 -0.167353
C87   C     C_R   0.741701 0.789954 0.066076 0.556838
C88   C     C_R   0.238616 0.794349 0.769133 0.311524
C89   C     C_R   0.245033 0.803889 0.727781 0.307073
C90   C     C_R   0.173735 0.828774 0.708137 0.010437
C91   C     C_R   0.099558 0.846170 0.730134 -0.108776
C92   C     C_R   0.094148 0.837986 0.771153 -0.157822
C93   C     C_R   0.162307 0.811565 0.790855 -0.031594
C94   C     C_R   0.214313 0.938482 0.653774 0.248505
C95   C     C_R   0.651163 0.431595 0.129930 0.247442
C96   C     C_R   0.240096 0.951315 0.613588 -0.117140
C97   C     C_R   0.184287 0.767004 0.596035 -0.135591
C98   C     C_R   0.023025 0.732766 0.947888 0.574669
C99   C     C_R   0.156925 0.753312 0.635625 -0.165953
C100  C     C_R   0.177607 0.839644 0.664979 0.046513
C101  C     C_R   0.231552 0.867102 0.585451 -0.010823
C102  C     C_R   0.660648 0.741782 0.911124 -0.001387
C103  C     C_R   0.570578 0.652749 0.889497 0.215579
C104  C     C_R   0.539711 0.653863 0.848837 0.184319
C105  C     C_R   0.604730 0.739154 0.829597 0.054466
C106  C     C_R   0.690129 0.829381 0.851835 0.184756
C107  C     C_R   0.659196 0.419499 0.170775 -0.105396
C108  C     C_R   0.715352 0.830853 0.892680 -0.173743
Cr1   Cr    Cr6+3 0.424820 0.846020 0.489780 1.080898
Cr2   Cr    Cr6+3 0.657880 0.078580 0.505700 1.041958
Cr3   Cr    Cr6+3 0.417280 0.075360 0.504550 1.117517
Cr4   Cr    Cr6+3 0.903360 0.812540 0.006510 1.101384
Cr5   Cr    Cr6+3 0.914630 0.587050 0.006280 1.047918
Cr6   Cr    Cr6+3 0.673560 0.582680 0.008540 1.120631
H1    H     H_    0.508037 0.415162 0.134248 0.337810
H2    H     H_    0.127732 0.992647 0.188599 0.171636
H3    H     H_    0.121323 0.992977 0.083731 0.350272
H4    H     H_    0.896160 0.462695 0.105521 0.151221
H5    H     H_    0.109522 0.022969 0.349398 0.340730
H6    H     H_    0.938492 0.995117 0.147152 0.365576
H7    H     H_    0.871344 0.058352 0.192337 0.335036
H8    H     H_    0.841472 0.081427 0.335190 0.324035
H9    H     H_    0.770693 0.031811 0.393382 0.143630
H10   H     H_    0.527446 0.703264 0.417094 0.332654
H11   H     H_    0.471899 0.713080 0.195829 0.318385
H12   H     H_    0.456042 0.329536 0.404859 0.341210
H13   H     H_    0.533555 0.717209 0.061293 0.321861
H14   H     H_    0.512827 0.664227 0.278013 0.317501
H15   H     H_    0.845729 0.387198 0.905072 0.132119
H16   H     H_    0.856080 0.359973 0.369747 0.137369
H17   H     H_    0.825835 0.332864 0.831174 0.116486
H18   H     H_    0.785642 0.257635 0.691953 0.124158
H19   H     H_    0.759567 0.224097 0.617557 0.179177
H20   H     H_    0.440181 0.312853 0.639218 0.319008
H21   H     H_    0.507575 0.294570 0.826053 0.128134
H22   H     H_    0.526016 0.348697 0.899983 0.145779
H23   H     H_    0.905583 0.437717 0.176289 0.141182
H24   H     H_    0.522619 0.321012 0.698931 0.124039
H25   H     H_    0.163042 0.007278 0.919208 0.320510
H26   H     H_    0.041912 0.599959 0.888571 0.137547
H27   H     H_    0.127328 0.676896 0.644229 0.141828
H28   H     H_    0.769269 0.261655 0.294144 0.144024
H29   H     H_    0.336252 0.820572 0.682711 0.318971
H30   H     H_    0.309642 0.782663 0.817132 0.322084
H31   H     H_    0.186276 0.955984 0.854368 0.108678
H32   H     H_    0.045242 0.865530 0.715351 0.160213
H33   H     H_    0.034791 0.850167 0.787506 0.147087
H34   H     H_    0.791271 0.277446 0.429489 0.147725
H35   H     H_    0.259591 0.085832 0.670301 0.326508
H36   H     H_    0.275547 0.028730 0.605494 0.142866
H37   H     H_    0.100958 0.633250 0.820887 0.148205
H38   H     H_    0.175665 0.700746 0.574618 0.152275
H39   H     H_    0.487496 0.502283 0.886198 0.323795
H40   H     H_    0.785935 0.286468 0.222700 0.141839
H41   H     H_    0.783214 0.899980 0.909208 0.147085
H42   H     H_    0.727778 0.959594 0.688042 0.116381
H43   H     H_    0.544966 0.881424 0.725153 0.156945
H44   H     H_    0.535113 0.850994 0.795753 0.163148
H45   H     H_    0.179311 0.654051 0.111920 0.345191
H46   H     H_    0.395822 0.537368 0.846056 0.339663
H47   H     H_    0.645571 0.651523 0.693009 0.142004
H48   H     H_    0.647084 0.603635 0.794534 0.339559
H49   H     H_    0.515577 0.645197 0.631391 0.122837
H50   H     H_    0.480151 0.617125 0.562900 0.331141
H51   H     H_    0.807514 0.970347 0.852234 0.330075
H52   H     H_    0.594066 0.408138 0.189621 0.121342
H53   H     H_    0.794251 0.081900 0.647455 0.314960
H54   H     H_    0.739222 0.544947 0.356242 0.337774
H55   H     H_    0.737750 0.553110 0.250303 0.144461
H56   H     H_    0.296412 0.747271 0.162031 0.361195
H57   H     H_    0.464897 0.296757 0.340365 0.345279
H58   H     H_    0.237591 0.751158 0.298157 0.163266
H59   H     H_    0.274240 0.750014 0.369574 0.181781
H60   H     H_    0.225764 0.084324 0.400731 0.347888
O1    O     O_R   0.318160 0.824460 0.443680 -0.518452
O2    O     O_R   0.668160 0.499860 0.053480 -0.422729
O3    O     O_R   0.689170 0.693840 0.050110 -0.492411
O4    O     O_R   0.525040 0.857250 0.449830 -0.482575
O5    O     O_R   0.803860 0.812940 0.962540 -0.528414
O6    O     O_R   0.982950 0.787950 0.964120 -0.443778
O7    O     O_R   0.007050 0.649970 0.960540 -0.529176
O8    O     O_R   0.807910 0.482370 0.965590 -0.509957
O9    O     O_R   0.643310 0.460980 0.963840 -0.490478
O10   O     O_R   0.666140 0.657800 0.967020 -0.436670
O11   O     O_3   0.830520 0.660760 0.007110 -0.284984
O12   O     O_R   0.645130 0.163230 0.552140 -0.513057
O13   O     O_R   0.684760 0.998800 0.456360 -0.514942
O14   O     O_R   0.647540 0.166310 0.470260 -0.526089
O15   O     O_R   0.500960 0.181750 0.467450 -0.426366
O16   O     O_R   0.331100 0.981120 0.457080 -0.433812
O17   O     O_R   0.315560 0.821140 0.532010 -0.504987
O18   O     O_R   0.522630 0.854180 0.531710 -0.458029
O19   O     O_R   0.682160 0.995480 0.544690 -0.458151
O20   O     O_3   0.560444 0.428400 0.113406 -0.640536
O21   O     O_3   0.473554 0.278181 0.414043 -0.672122
O22   O     O_3   0.185581 0.707663 0.095695 -0.659523
O23   O     O_R   0.498360 0.178430 0.555780 -0.445777
O24   O     O_3   0.251696 0.761866 0.181662 -0.697471
O25   O     O_3   0.209872 0.020755 0.412236 -0.671929
O26   O     O_3   0.094991 0.986185 0.111244 -0.649792
O27   O     O_3   0.148457 0.007321 0.327410 -0.686096
O28   O     O_3   0.886009 0.967470 0.123009 -0.627400
O29   O     O_3   0.830605 0.995472 0.205160 -0.652498
O30   O     O_3   0.795172 0.020088 0.314362 -0.643628
O31   O     O_3   0.498417 0.695087 0.388859 -0.610818
O32   O     O_3   0.480353 0.696512 0.166648 -0.626528
O33   O     O_3   0.519292 0.691785 0.087841 -0.593009
O34   O     O_R   0.328690 0.978040 0.538950 -0.502761
O35   O     O_3   0.500074 0.667255 0.307271 -0.613766
O36   O     O_3   0.477342 0.290157 0.618458 -0.678142
O37   O     O_3   0.130328 0.941477 0.930720 -0.681029
O38   O     O_3   0.323457 0.790389 0.708167 -0.667436
O39   O     O_3   0.310000 0.770774 0.787107 -0.661556
O40   O     O_3   0.232242 0.022193 0.683136 -0.698692
O41   O     O_3   0.518501 0.564834 0.907653 -0.676871
O42   O     O_3   0.449147 0.572537 0.826798 -0.692061
O43   O     O_3   0.648226 0.606381 0.765004 -0.694458
O44   O     O_3   0.517965 0.688304 0.555792 -0.679730
O45   O     O_3   0.499990 0.999990 0.500010 -0.282163
O46   O     O_3   0.750458 0.913623 0.832468 -0.706843
O47   O     O_3   0.757100 0.042831 0.620293 -0.690699
O48   O     O_3   0.726514 0.552138 0.327816 -0.647431
O49   O     O_3   0.540104 0.347772 0.337326 -0.658707
O50   O     O_R   0.828710 0.851830 0.052170 -0.427576
O51   O     O_R   0.005980 0.823990 0.047210 -0.486167
O52   O     O_R   0.031900 0.688850 0.050170 -0.450275
O53   O     O_R   0.830940 0.518420 0.048680 -0.522326

loop_
_geom_bond_atom_site_label_1
_geom_bond_atom_site_label_2
_ccdc_geom_bond_type
C106  O46   S    
C39   O26   S    
C41   C42   S    
H20   O36   S    
H10   O31   S    
H6    O28   S    
C73   C74   A    
C6    C7    A    
C19   C20   A    
H5    O27   S    
C23   O15   A    
C8    C105  S    
C11   O47   S    
C81   C82   A    
C90   C91   A    
C72   H15   S    
C40   H2    S    
C77   C78   T    
C25   C28   A    
C56   O33   S    
C29   C36   A    
Cr2   O14   S    
C26   C27   A    
C53   O29   S    
Cr6   O11   S    
C42   C44   T    
C5    C6    A    
C22   C24   A    
C37   C38   A    
C59   O23   A    
C72   C79   A    
C39   C40   A    
C30   C31   A    
C52   H9    S    
Cr6   O10   S    
C1    C46   S    
Cr5   O53   S    
Cr1   O18   S    
C58   C60   S    
C15   C16   A    
H46   O42   S    
C55   C62   A    
C46   C52   A    
H11   O32   S    
C56   C57   A    
C59   O12   A    
C68   H18   S    
C18   C19   A    
C2    O8    A    
H8    O30   S    
C47   O18   A    
C9    H49   S    
H13   O33   S    
H35   O40   S    
H53   O47   S    
C38   C45   A    
C80   C86   A    
C2    C79   S    
C103  C104  A    
H51   O46   S    
C32   H42   S    
Cr1   O4    S    
C97   H38   S    
Cr5   O7    S    
C63   C69   A    
C16   C17   A    
C15   H40   S    
C48   O31   S    
C3    H44   S    
C73   H22   S    
C102  C108  A    
C94   C100  A    
C9    C10   A    
C26   H16   S    
C86   H26   S    
Cr4   O6    S    
C1    O13   A    
C30   O25   S    
C71   C101  S    
H48   O43   S    
C96   H36   S    
C36   H59   S    
C96   C101  A    
C92   H33   S    
Cr4   O50   S    
C64   O36   S    
C15   C20   A    
C67   C78   S    
Cr3   O45   S    
C14   C83   A    
C10   C54   A    
H12   O21   S    
C76   C83   S    
C90   C100  S    
C104  C105  A    
C97   C99   A    
C47   O19   A    
C17   C18   A    
C89   O38   S    
C57   C58   A    
C53   C55   A    
H45   O22   S    
C46   C48   A    
Cr2   O13   S    
C94   O40   S    
C9    C43   A    
C88   O39   S    
C62   C87   S    
C65   O51   A    
C67   C68   A    
C17   C27   S    
C19   H55   S    
C7    C8    A    
C84   C85   A    
H7    O29   S    
C3    C8    A    
C74   C75   A    
Cr4   O11   S    
C68   C69   A    
C24   O21   S    
H25   O37   S    
C25   C26   A    
C85   C86   A    
C55   O28   S    
C57   O32   S    
C51   C52   A    
C60   C61   T    
C64   C66   A    
C16   H28   S    
C85   H37   S    
C12   C102  S    
C29   C30   A    
Cr1   O45   S    
H14   O35   S    
C87   O3    A    
C37   O24   S    
C1    O4    A    
C4    H43   S    
C66   H24   S    
C6    H47   S    
C76   O2    A    
Cr6   O3    S    
C83   C95   A    
C74   H21   S    
Cr2   O19   S    
C31   C33   A    
C33   C34   A    
C73   C79   A    
C13   C21   A    
C50   C51   A    
C21   C107  A    
C23   C28   S    
C20   C21   S    
C94   C96   A    
Cr2   O45   S    
C75   C77   S    
C104  O42   S    
Cr5   O11   S    
H3    O26   S    
C95   C107  A    
C47   C54   S    
C23   O14   A    
C11   C54   A    
C40   C41   A    
C81   O37   S    
H1    O20   S    
C11   C32   A    
Cr3   O15   S    
C95   O20   S    
C82   C84   A    
C22   C27   A    
Cr4   O5    S    
C45   C65   S    
C56   C62   A    
C98   O6    A    
C3    C4    A    
Cr5   O8    S    
C103  O41   S    
H39   O41   S    
C82   H31   S    
C34   H58   S    
C51   O30   S    
C10   O44   S    
C14   H4    S    
C70   H17   S    
C22   O49   S    
Cr2   O12   S    
H50   O44   S    
C88   C93   A    
C71   O34   A    
C69   H19   S    
Cr4   O51   S    
C80   C98   S    
C33   C44   S    
C99   H27   S    
C24   C28   A    
H54   O48   S    
C80   C81   A    
H57   O49   S    
C53   C58   A    
Cr1   O1    S    
H29   O38   S    
C35   O16   A    
C105  C106  A    
C29   C35   S    
C59   C63   S    
C84   C93   S    
C99   C100  A    
C39   C45   A    
C35   O1    A    
C87   O50   A    
C98   O7    A    
Cr3   O23   S    
H56   O24   S    
Cr5   O52   S    
C12   O10   A    
C108  H41   S    
C106  C108  A    
Cr1   O17   S    
H30   O39   S    
C48   C49   A    
Cr6   O2    S    
C92   C93   A    
C32   C43   A    
C38   O22   S    
C65   O52   A    
C66   C67   A    
C25   H34   S    
C34   C36   A    
C2    O9    A    
C37   C41   A    
C102  C103  A    
C18   O48   S    
C31   O27   S    
H60   O25   S    
C107  H52   S    
C63   C64   A    
C7    O43   S    
C4    C5    A    
C12   O5    A    
C88   C89   A    
Cr3   O16   S    
C49   C50   A    
C49   O35   S    
C70   C75   A    
C50   C61   S    
C5    C43   S    
C70   C72   A    
C71   O17   A    
C89   C90   A    
C13   C14   A    
Cr3   O34   S    
C91   H32   S    
C97   C101  A    
C91   C92   A    
Cr6   O9    S    
C13   H23   S    
C76   O53   A    
