data_mof_unit_19197.cif
_audit_creation_date              2012-12-11T15:30:42-0500
_audit_creation_method            fapswitch 2.2
_symmetry_space_group_name_H-M    P1
_symmetry_Int_Tables_number       1
_space_group_crystal_system       triclinic
_cell_length_a                    6.957132
_cell_length_b                    20.471561
_cell_length_c                    24.428588
_cell_angle_alpha                 89.689722
_cell_angle_beta                  90.155113
_cell_angle_gamma                 89.780006
_cell_volume                      3479.11178217

loop_
_atom_site_label
_atom_site_type_symbol
_atom_type_description
_atom_site_fract_x
_atom_site_fract_y
_atom_site_fract_z
_atom_type_partial_charge
O1    O     O_R   0.507310 0.423620 0.460450 -0.538187
O2    O     O_R   0.170760 0.556060 0.437190 -0.536880
O3    O     O_R   0.004040 0.576380 0.539550 -0.523603
C1    C     C_R   0.339450 0.576144 0.421311 0.715527
O4    O     O_R   0.177350 0.422870 0.454070 -0.540690
O5    O     O_R   0.010680 0.442240 0.556560 -0.531349
C2    C     C_R   0.346165 0.399006 0.443380 0.686728
O6    O     O_R   0.500670 0.557760 0.443440 -0.538906
O7    O     O_3   0.340380 0.506510 0.533610 -0.359631
V1    V     V_3+5 0.064130 0.498790 0.493770 1.450351
O8    O     O_R   0.681170 0.443940 0.562810 -0.539310
C3    C     C_R   0.849964 0.423861 0.578715 0.739936
O9    O     O_R   0.674570 0.577130 0.545930 -0.545444
C4    C     C_R   0.842702 0.601063 0.556614 0.759832
V2    V     V_3+5 0.564560 0.501210 0.506230 1.436904
O10   O     O_3   0.838170 0.493490 0.466390 -0.373887
C5    C     C_R   0.973892 0.838441 0.911091 -0.038633
C6    C     C_R   0.845991 0.661554 0.589307 -0.061134
C7    C     C_R   0.997712 0.720726 0.907796 -0.164571
C8    C     C_R   0.001043 0.778524 0.937525 -0.170792
C9    C     C_R   0.944984 0.840358 0.854097 -0.218514
C10   C     C_R   0.940619 0.781920 0.822664 0.085400
C11   C     C_R   0.967796 0.721819 0.850939 0.146413
C12   C     C_R   0.908431 0.780784 0.764543 0.067626
C13   C     C_R   0.916102 0.719995 0.735488 0.054882
C14   C     C_R   0.931736 0.661862 0.766415 -0.205217
C15   C     C_R   0.960104 0.662892 0.822675 -0.210179
C16   C     C_R   0.859356 0.837820 0.734954 -0.187412
C17   C     C_R   0.810717 0.835253 0.679877 -0.180496
C18   C     C_R   0.820889 0.776728 0.651057 0.111004
C19   C     C_R   0.889389 0.718939 0.677033 -0.010938
C20   C     C_R   0.759444 0.775656 0.596402 -0.166953
C21   C     C_R   0.763568 0.717921 0.566804 -0.249071
C22   C     C_R   0.921342 0.662695 0.643037 0.262788
H1    H     H_    0.973146 0.616801 0.844471 0.121432
H2    H     H_    0.706941 0.717625 0.525432 0.124441
H3    H     H_    0.763416 0.879769 0.659609 0.120770
H4    H     H_    0.018090 0.674836 0.929421 0.109283
H5    H     H_    0.024669 0.776529 0.981366 0.104291
H6    H     H_    0.929711 0.888052 0.835687 0.091445
H7    H     H_    0.912733 0.614397 0.748303 0.171875
H8    H     H_    0.846553 0.885015 0.753858 0.121729
H9    H     H_    0.702058 0.819309 0.576966 0.121178
C23   C     C_3   0.708871 0.216920 0.776155 0.319295
C24   C     C_3   0.012279 0.276107 0.808169 0.703379
C25   C     C_3   0.989157 0.325065 0.758375 -0.438088
H10   H     H_    0.600760 0.310515 0.743231 0.115597
H11   H     H_    0.631272 0.237161 0.812295 0.106596
H12   H     H_    0.904065 0.368589 0.770904 0.154918
H13   H     H_    0.131551 0.343538 0.744752 0.134365
C26   C     C_1   0.859343 0.378420 0.624566 -0.189293
C27   C     C_3   0.926621 0.208018 0.791608 0.146593
C28   C     C_3   0.688011 0.268310 0.728809 -0.356185
C29   C     C_3   0.887355 0.292667 0.709112 0.155768
C30   C     C_3   0.007854 0.232620 0.691455 -0.343330
C31   C     C_3   0.033183 0.183593 0.739629 -0.385573
C32   C     C_1   0.869210 0.340005 0.662663 -0.038193
C33   C     C_1   0.949909 0.160110 0.837615 0.019716
C34   C     C_1   0.963885 0.121648 0.875572 -0.205527
H14   H     H_    0.978200 0.134850 0.727350 0.188959
H15   H     H_    0.188638 0.177261 0.748108 0.186198
H16   H     H_    0.936033 0.207747 0.656591 0.162772
H17   H     H_    0.608384 0.246869 0.693675 0.178799
H18   H     H_    0.151772 0.248722 0.676962 0.156368
C35   C     C_3   0.607873 0.722570 0.282246 -0.461340
C36   C     C_3   0.304004 0.681065 0.237761 -0.319064
C37   C     C_3   0.322694 0.731459 0.189877 -0.423555
H19   H     H_    0.688466 0.734719 0.198512 0.082775
H20   H     H_    0.686726 0.675854 0.275593 0.145900
H21   H     H_    0.149757 0.668871 0.243813 0.190220
H22   H     H_    0.379234 0.635007 0.226517 0.128167
H23   H     H_    0.397693 0.708170 0.154801 0.136869
H24   H     H_    0.176817 0.745441 0.174935 0.188823
C38   C     C_1   0.473261 0.878532 0.124609 -0.189392
C39   C     C_3   0.391009 0.708234 0.291864 0.189993
C40   C     C_3   0.633443 0.767742 0.231060 0.400289
C41   C     C_3   0.433921 0.793137 0.209042 0.131889
C42   C     C_3   0.308963 0.822778 0.255733 -0.372485
C43   C     C_3   0.290768 0.774344 0.305102 0.260308
C44   C     C_1   0.457175 0.840246 0.162619 -0.025262
C45   C     C_1   0.367213 0.660409 0.337822 -0.016729
C46   C     C_1   0.350982 0.621781 0.375595 -0.192167
H25   H     H_    0.363529 0.795996 0.341503 0.041684
H26   H     H_    0.363100 0.870456 0.270043 0.091230
H27   H     H_    0.672151 0.744566 0.319457 0.175348
H28   H     H_    0.163798 0.834098 0.238986 0.214863
C47   C     C_R   0.472173 0.161728 0.088795 -0.042843
C48   C     C_R   0.352334 0.338340 0.411158 -0.039935
C49   C     C_R   0.528226 0.277972 0.093703 -0.163897
C50   C     C_R   0.521074 0.220601 0.063506 -0.164353
C51   C     C_R   0.430948 0.160480 0.145145 -0.215887
C52   C     C_R   0.440347 0.218363 0.177294 0.086762
C53   C     C_R   0.489668 0.277382 0.150081 0.140707
C54   C     C_R   0.405052 0.219808 0.235265 0.059532
C55   C     C_R   0.419735 0.280251 0.264686 0.058612
C56   C     C_R   0.468673 0.337188 0.235127 -0.189138
C57   C     C_R   0.502414 0.335591 0.179179 -0.204432
C58   C     C_R   0.356130 0.162868 0.264823 -0.190339
C59   C     C_R   0.322291 0.164470 0.320762 -0.206282
C60   C     C_R   0.334952 0.222685 0.349856 0.142302
C61   C     C_R   0.384371 0.281701 0.322655 0.086283
C62   C     C_R   0.296194 0.222100 0.406219 -0.164373
C63   C     C_R   0.303264 0.279469 0.436419 -0.169908
C64   C     C_R   0.393747 0.339586 0.354813 -0.216100
H29   H     H_    0.540112 0.380689 0.158417 0.119002
H30   H     H_    0.428332 0.386543 0.337444 0.092212
H31   H     H_    0.269186 0.278035 0.479665 0.104041
H32   H     H_    0.284560 0.119372 0.341521 0.117388
H33   H     H_    0.566568 0.322997 0.072963 0.111420
H34   H     H_    0.554968 0.222035 0.020245 0.114922
H35   H     H_    0.396475 0.113517 0.162523 0.091939
H36   H     H_    0.482768 0.384281 0.254050 0.120830
H37   H     H_    0.342078 0.115769 0.245907 0.119640
H38   H     H_    0.257743 0.177077 0.426945 0.110524
O11   O     O_R   0.323590 0.942280 0.056590 -0.535212
O12   O     O_R   0.647030 0.077140 0.045940 -0.537594
O13   O     O_R   0.813570 0.057750 0.943430 -0.537375
C65   C     C_R   0.478258 0.101055 0.056599 0.696143
O14   O     O_R   0.653510 0.943950 0.062820 -0.534316
O15   O     O_R   0.820100 0.923600 0.960440 -0.536490
C66   C     C_R   0.484809 0.923921 0.078732 0.720983
O16   O     O_R   0.317060 0.076430 0.039590 -0.534844
O17   O     O_3   0.483830 0.993520 0.966410 -0.369588
V3    V     V_3+5 0.760140 0.001200 0.006230 1.426293
O18   O     O_R   0.149560 0.922820 0.954030 -0.538542
C67   C     C_R   0.981156 0.899004 0.943332 0.693230
O19   O     O_R   0.143080 0.056020 0.937150 -0.537952
C68   C     C_R   0.974231 0.076148 0.921309 0.722813
V4    V     V_3+5 0.259690 0.998730 0.993720 1.422527
O20   O     O_3   0.986120 0.006480 0.033580 -0.365066
O21   O     O_3   0.208566 0.266173 0.821696 -0.670741
H39   H     H_    0.277149 0.308533 0.820258 0.264320
O22   O     O_3   0.906420 0.298956 0.854327 -0.569664
C69   C     C_3   0.000479 0.349571 0.882842 -0.260979
H40   H     H_    0.895916 0.372500 0.911115 0.155366
H41   H     H_    0.054276 0.388608 0.855113 0.115270
H42   H     H_    0.119756 0.329375 0.908184 0.172132
O23   O     O_3   0.034386 0.610544 0.659064 -0.660897
H43   H     H_    0.139356 0.627929 0.682264 0.289628
O24   O     O_3   0.629404 0.156778 0.757936 -0.549510
C70   C     C_3   0.517173 0.126137 0.798775 -0.267805
H44   H     H_    0.412606 0.159934 0.818065 0.171805
H45   H     H_    0.608882 0.103211 0.830628 0.149668
H46   H     H_    0.433260 0.086472 0.779412 0.157299
O25   O     O_3   0.096116 0.763744 0.317507 -0.629164
H47   H     H_    0.051289 0.802526 0.338148 0.281524
O26   O     O_3   0.783472 0.814450 0.236436 -0.543077
C71   C     C_3   0.739092 0.867427 0.270846 -0.223928
H48   H     H_    0.663215 0.852811 0.308806 0.112202
H49   H     H_    0.658159 0.905369 0.247703 0.140041
H50   H     H_    0.875726 0.890433 0.283817 0.139334

loop_
_geom_bond_atom_site_label_1
_geom_bond_atom_site_label_2
_ccdc_geom_bond_type
C13   C19   A    
C18   C20   A    
C30   C31   S    
O11   C66   A    
C47   C51   A    
C4    C6    S    
O2    C1    A    
C55   C56   A    
C37   C41   S    
C71   H50   S    
C1    O6    A    
C5    C8    A    
C69   H42   S    
C64   H30   S    
C45   C46   T    
O17   V3    S    
C43   O25   S    
C36   H21   S    
C41   C42   S    
C59   H32   S    
C56   H36   S    
C25   H12   S    
C14   C15   A    
C35   C40   S    
C16   C17   A    
O13   V3    S    
C71   H49   S    
C70   H45   S    
O5    C3    A    
C18   C19   A    
O15   C67   A    
C5    C67   S    
C54   C58   A    
V2    O10   S    
C30   H16   S    
C49   H33   S    
C21   H2    S    
C37   H23   S    
C65   O16   A    
C51   H35   S    
C52   C53   A    
O26   C71   S    
O8    V2    S    
C23   C28   S    
C7    C8    A    
C40   O26   S    
C12   C13   A    
O1    V2    S    
C11   C15   A    
C48   C63   A    
O7    V1    S    
O16   V4    S    
H10   C28   S    
C57   H29   S    
C42   H28   S    
C36   C37   S    
C23   O24   S    
C38   C44   T    
O9    C4    A    
O17   V4    S    
C49   C53   A    
C62   C63   A    
C60   C62   A    
C48   C64   A    
O25   H47   S    
O14   C66   A    
C40   C41   S    
C47   C65   S    
C70   H46   S    
C51   C52   A    
O4    C2    A    
C8    H5    S    
C42   C43   S    
C39   C45   S    
C58   H37   S    
C69   H41   S    
C24   C27   S    
C15   H1    S    
C34   C68   S    
C24   C25   S    
C22   O23   S    
C5    C9    A    
C31   H14   S    
O15   V3    S    
O13   C68   A    
C7    C11   A    
O19   V4    S    
C36   H22   S    
C17   C18   A    
C62   H38   S    
C7    H4    S    
C42   H26   S    
C2    C48   S    
C30   H18   S    
C25   C29   S    
C52   C54   A    
C19   C22   A    
V3    O20   S    
C31   H15   S    
O24   C70   S    
C35   H27   S    
C6    C22   A    
O3    C4    A    
C27   C33   S    
C37   H24   S    
C24   O21   S    
O6    V2    S    
O9    V2    S    
O18   V4    S    
O22   C69   S    
C10   C12   A    
C33   C34   T    
C50   H34   S    
O19   C68   A    
O2    V1    S    
C53   C57   A    
C3    C26   S    
C56   C57   A    
V4    O20   S    
O11   V4    S    
C41   C44   S    
C29   C30   S    
O12   V3    S    
O1    C2    A    
C12   C16   A    
O21   H39   S    
O5    V1    S    
O8    C3    A    
C28   C29   S    
C69   H40   S    
H19   C40   S    
C25   H13   S    
C24   O22   S    
C35   C39   S    
C59   C60   A    
C20   C21   A    
C13   C14   A    
O4    V1    S    
O3    V1    S    
V1    O10   S    
C70   H44   S    
C43   H25   S    
C28   H17   S    
C23   C27   S    
O18   C67   A    
C9    H6    S    
C27   C31   S    
C35   H20   S    
C36   C39   S    
C16   H8    S    
C60   C61   A    
C20   H9    S    
O12   C65   A    
O14   V3    S    
C71   H48   S    
O7    V2    S    
C54   C55   A    
C6    C21   A    
O23   H43   S    
C23   H11   S    
C26   C32   T    
C38   C66   S    
C1    C46   S    
C58   C59   A    
C47   C50   A    
C17   H3    S    
C10   C11   A    
C63   H31   S    
C61   C64   A    
C49   C50   A    
C9    C10   A    
C39   C43   S    
C55   C61   A    
C14   H7    S    
C29   C32   S    
