data_mof_unit_21137.cif
_audit_creation_date              2013-03-05T16:01:11-0500
_audit_creation_method            fapswitch 2.2
_symmetry_space_group_name_H-M    P1
_symmetry_Int_Tables_number       1
_space_group_crystal_system       triclinic
_cell_length_a                    7.207099
_cell_length_b                    37.107492
_cell_length_c                    41.169394
_cell_angle_alpha                 89.993967
_cell_angle_beta                  90.06619
_cell_angle_gamma                 90.048497
_cell_volume                      11010.2230425

loop_
_atom_site_label
_atom_site_type_symbol
_atom_site_description
_atom_site_fract_x
_atom_site_fract_y
_atom_site_fract_z
_atom_type_partial_charge
O1    O     O_R   0.564240 0.782760 0.216890 -0.589770
O2    O     O_R   0.435760 0.217240 0.783110 -0.589777
O3    O     O_R   0.435760 0.217240 0.716890 -0.588845
O4    O     O_R   0.564240 0.782760 0.283110 -0.590649
O5    O     O_R   0.064240 0.717240 0.283110 -0.587077
O6    O     O_R   0.935760 0.282760 0.716890 -0.585027
O7    O     O_R   0.935760 0.282760 0.783110 -0.588634
O8    O     O_R   0.064240 0.717240 0.216890 -0.589435
O9    O     O_R   0.234510 0.787070 0.282870 -0.592589
O10   O     O_R   0.765490 0.212930 0.717130 -0.595006
O11   O     O_R   0.765490 0.212930 0.782870 -0.591827
O12   O     O_R   0.234510 0.787070 0.217130 -0.592516
O13   O     O_R   0.734510 0.712930 0.217130 -0.592631
O14   O     O_R   0.265490 0.287070 0.782870 -0.593891
O15   O     O_R   0.265490 0.287070 0.717130 -0.592018
O16   O     O_R   0.734510 0.712930 0.282870 -0.589711
C1    C     C_R   0.403329 0.795863 0.293525 0.929129
C2    C     C_R   0.596817 0.204224 0.706388 0.929768
C3    C     C_R   0.596933 0.204191 0.793565 0.929962
C4    C     C_R   0.402995 0.795819 0.206423 0.931210
C5    C     C_R   0.902985 0.704185 0.206433 0.928709
C6    C     C_R   0.097090 0.295820 0.793582 0.930265
C7    C     C_R   0.096915 0.295671 0.706383 0.926749
C8    C     C_R   0.903088 0.704327 0.293615 0.927711
O17   O     O_3   0.397750 0.727090 0.250000 -0.280915
O18   O     O_3   0.602250 0.272910 0.750000 -0.280008
O19   O     O_3   0.897750 0.772910 0.250000 -0.284174
O20   O     O_3   0.102250 0.227090 0.750000 -0.284106
V1    V     V_3+5 0.122890 0.754250 0.250000 1.161922
V2    V     V_3+5 0.877110 0.245750 0.750000 1.162167
V3    V     V_3+5 0.622890 0.745750 0.250000 1.162917
V4    V     V_3+5 0.377110 0.254250 0.750000 1.162700
C9    C     C_R   0.817041 0.600366 0.421293 0.499887
C10   C     C_R   0.182790 0.399581 0.578665 0.499699
C11   C     C_R   0.088118 0.388173 0.928776 0.489078
C12   C     C_R   0.956463 0.611907 0.071513 0.490100
C13   C     C_R   0.412158 0.888161 0.071247 0.488942
C14   C     C_R   0.543045 0.111924 0.928476 0.489921
C15   C     C_R   0.555374 0.112538 0.570631 0.488185
C16   C     C_R   0.446161 0.888466 0.428640 0.488196
O21   O     O_2   0.685896 0.626241 0.421709 -0.554223
O22   O     O_2   0.313738 0.373669 0.578224 -0.554364
O23   O     O_2   0.104374 0.352577 0.934862 -0.536391
O24   O     O_2   0.952407 0.647613 0.065299 -0.537141
O25   O     O_2   0.395897 0.852558 0.065172 -0.536447
O26   O     O_2   0.547054 0.147632 0.934679 -0.537216
O27   O     O_2   0.554329 0.148254 0.564439 -0.542035
O28   O     O_2   0.418743 0.853181 0.434992 -0.543283
N1    N     N_R   0.943673 0.599557 0.396632 -0.187118
N2    N     N_R   0.056299 0.400421 0.603347 -0.187097
N3    N     N_R   0.076819 0.400035 0.897382 -0.190129
N4    N     N_R   0.949038 0.600015 0.102903 -0.188967
N5    N     N_R   0.423600 0.900031 0.102635 -0.190227
N6    N     N_R   0.550459 0.100031 0.897091 -0.189067
N7    N     N_R   0.569557 0.100596 0.601998 -0.189252
N8    N     N_R   0.462703 0.899900 0.397153 -0.189101
C17   C     C_R   0.077042 0.573312 0.395434 0.544477
C18   C     C_R   0.923067 0.426691 0.604560 0.544402
C19   C     C_R   0.070258 0.436105 0.890471 0.528386
C20   C     C_R   0.951631 0.563959 0.109921 0.517350
C21   C     C_R   0.430139 0.936102 0.109541 0.528738
C22   C     C_R   0.547912 0.063976 0.890076 0.517672
C23   C     C_R   0.579809 0.064489 0.608773 0.527908
C24   C     C_R   0.499902 0.935303 0.390203 0.532533
C25   C     C_R   0.786939 0.625305 0.348650 -0.033193
C26   C     C_R   0.213193 0.374653 0.651306 -0.033215
C27   C     C_R   0.237116 0.370557 0.851820 -0.056587
C28   C     C_R   0.087660 0.632462 0.149117 -0.063857
C29   C     C_R   0.263310 0.870540 0.148207 -0.056180
C30   C     C_R   0.411903 0.132454 0.850887 -0.062890
C31   C     C_R   0.733662 0.130073 0.647381 -0.054805
C32   C     C_R   0.595736 0.866768 0.350872 -0.061837
C33   C     C_R   0.775559 0.650806 0.323660 -0.166775
C34   C     C_R   0.224579 0.349158 0.676301 -0.167544
C35   C     C_R   0.243388 0.345168 0.826759 -0.158815
C36   C     C_R   0.077726 0.657879 0.174118 -0.157569
C37   C     C_R   0.256964 0.845153 0.173267 -0.155548
C38   C     C_R   0.421932 0.157872 0.825884 -0.156521
C39   C     C_R   0.741731 0.155295 0.672579 -0.161233
C40   C     C_R   0.582444 0.841460 0.325883 -0.159837
C41   C     C_R   0.059210 0.678631 0.342861 -0.198124
C42   C     C_R   0.940657 0.321387 0.657158 -0.197711
C43   C     C_R   0.927993 0.327211 0.839034 -0.203657
C44   C     C_R   0.756794 0.669762 0.160289 -0.206113
C45   C     C_R   0.572256 0.827237 0.160976 -0.204011
C46   C     C_R   0.742942 0.169804 0.839708 -0.205274
C47   C     C_R   0.424877 0.172920 0.661193 -0.208743
C48   C     C_R   0.259391 0.831422 0.339231 -0.213447
C49   C     C_R   0.068570 0.653680 0.368409 0.068558
C50   C     C_R   0.931285 0.346332 0.631606 0.068306
C51   C     C_R   0.922231 0.352345 0.864523 0.094738
C52   C     C_R   0.767278 0.644662 0.134820 0.098852
C53   C     C_R   0.578093 0.852375 0.135487 0.095351
C54   C     C_R   0.732369 0.144702 0.865175 0.099015
C55   C     C_R   0.417120 0.147969 0.635598 0.098522
C56   C     C_R   0.273007 0.856532 0.364694 0.103527
C57   C     C_R   0.933664 0.626313 0.371109 0.148960
C58   C     C_R   0.066320 0.373671 0.628875 0.149146
C59   C     C_R   0.078004 0.374186 0.871099 0.157848
C60   C     C_R   0.934070 0.625881 0.129046 0.163024
C61   C     C_R   0.422398 0.874189 0.128920 0.157317
C62   C     C_R   0.565495 0.125897 0.870949 0.162654
C63   C     C_R   0.572995 0.126402 0.628387 0.152036
C64   C     C_R   0.443040 0.874243 0.370839 0.153570
C65   C     C_R   0.963905 0.548353 0.446576 -0.072803
C66   C     C_R   0.036098 0.451621 0.553399 -0.072837
C67   C     C_R   0.068420 0.449969 0.948337 -0.082162
C68   C     C_R   0.980803 0.550062 0.052152 -0.078633
C69   C     C_R   0.431660 0.949960 0.051677 -0.082008
C70   C     C_R   0.518845 0.050074 0.947845 -0.078477
C71   C     C_R   0.551773 0.050663 0.551117 -0.083389
C72   C     C_R   0.496994 0.949646 0.447948 -0.082910
C73   C     C_R   0.824157 0.574775 0.446482 -0.027055
C74   C     C_R   0.175730 0.425177 0.553480 -0.027060
C75   C     C_R   0.082616 0.412838 0.954739 -0.043869
C76   C     C_R   0.967527 0.587213 0.045668 -0.042668
C77   C     C_R   0.417503 0.912824 0.045281 -0.043811
C78   C     C_R   0.532071 0.087229 0.954324 -0.042613
C79   C     C_R   0.540698 0.087870 0.544805 -0.040003
C80   C     C_R   0.456990 0.913233 0.454450 -0.038113
C81   C     C_R   0.688166 0.574103 0.470532 -0.128305
C82   C     C_R   0.311689 0.425835 0.529425 -0.128434
C83   C     C_R   0.103095 0.401197 0.986772 -0.127237
C84   C     C_R   0.953113 0.598963 0.013573 -0.128991
C85   C     C_R   0.396890 0.901174 0.013255 -0.127105
C86   C     C_R   0.546552 0.098988 0.986413 -0.128928
C87   C     C_R   0.508103 0.099785 0.513074 -0.130383
C88   C     C_R   0.422093 0.902388 0.486408 -0.130399
C89   C     C_R   0.085680 0.546182 0.419713 -0.217077
C90   C     C_R   0.914426 0.453815 0.580274 -0.217088
C91   C     C_R   0.076189 0.462004 0.915786 -0.219947
C92   C     C_R   0.969125 0.537992 0.084735 -0.224111
C93   C     C_R   0.424014 0.961995 0.084225 -0.220207
C94   C     C_R   0.530474 0.038004 0.915265 -0.224250
C95   C     C_R   0.580365 0.038669 0.583355 -0.218725
C96   C     C_R   0.527517 0.960703 0.415508 -0.219285
C97   C     C_R   0.912843 0.677467 0.320263 -0.135966
C98   C     C_R   0.087163 0.322527 0.679730 -0.135938
C99   C     C_R   0.089038 0.323138 0.820020 -0.136802
C100  C     C_R   0.912280 0.676866 0.180043 -0.134806
C101  C     C_R   0.411214 0.823143 0.179994 -0.137440
C102  C     C_R   0.587470 0.176881 0.819958 -0.134719
C103  C     C_R   0.587559 0.177080 0.679816 -0.137175
C104  C     C_R   0.414503 0.823335 0.319778 -0.132541
H1    H     H_    0.163975 0.699530 0.341066 0.136150
H2    H     H_    0.835778 0.300513 0.658977 0.136672
H3    H     H_    0.807439 0.310485 0.834391 0.140965
H4    H     H_    0.627970 0.684140 0.164324 0.139191
H5    H     H_    0.692727 0.810526 0.165614 0.141072
H6    H     H_    0.871830 0.184202 0.835670 0.139078
H7    H     H_    0.304255 0.189425 0.666247 0.140723
H8    H     H_    0.128435 0.817812 0.334971 0.137107
H9    H     H_    0.570750 0.592329 0.468978 0.174031
H10   H     H_    0.429041 0.407592 0.530972 0.174040
H11   H     H_    0.132282 0.373047 0.991750 0.183508
H12   H     H_    0.925817 0.627172 0.008521 0.183319
H13   H     H_    0.367714 0.873012 0.008285 0.183540
H14   H     H_    0.573822 0.127208 0.991457 0.183331
H15   H     H_    0.488132 0.128284 0.508338 0.182417
H16   H     H_    0.379885 0.874859 0.491363 0.182108
C105  C     C_R   0.879102 0.502789 0.527080 0.002050
C106  C     C_R   0.120956 0.497191 0.472898 0.002069
C107  C     C_R   0.015004 0.487648 0.032767 0.006234
C108  C     C_R   0.037517 0.512398 0.967651 0.005357
C109  C     C_R   0.484762 0.987651 0.967241 0.006273
C110  C     C_R   0.462381 0.012398 0.032352 0.005439
C111  C     C_R   0.532705 0.011978 0.467011 0.003938
C112  C     C_R   0.530403 0.988115 0.531992 0.003807
C113  C     C_R   0.149245 0.474375 0.500541 0.027784
C114  C     C_R   0.850764 0.525593 0.499431 0.027781
C115  C     C_R   0.002323 0.537588 0.993255 0.024705
C116  C     C_R   0.051693 0.462518 0.007176 0.024571
C117  C     C_R   0.497483 0.037597 0.006743 0.024669
C118  C     C_R   0.448151 0.962512 0.992837 0.024530
C119  C     C_R   0.490072 0.963073 0.506597 0.023736
C120  C     C_R   0.520012 0.037859 0.492591 0.023495
C121  C     C_R   0.020247 0.476097 0.526713 0.089485
C122  C     C_R   0.979775 0.523877 0.473262 0.089500
C123  C     C_R   0.001898 0.525064 0.025974 0.082559
C124  C     C_R   0.050231 0.475005 0.974491 0.082924
C125  C     C_R   0.497844 0.025071 0.974027 0.082623
C126  C     C_R   0.449704 0.975000 0.025519 0.082997
C127  C     C_R   0.506580 0.974935 0.473919 0.084758
C128  C     C_R   0.534078 0.025512 0.525165 0.084790
C129  C     C_R   0.781287 0.507762 0.556399 -0.288505
C130  C     C_R   0.218864 0.492237 0.443585 -0.288533
C131  C     C_R   0.976391 0.476350 0.064760 -0.296218
C132  C     C_R   0.078369 0.523594 0.935684 -0.297193
C133  C     C_R   0.523324 0.976364 0.935250 -0.295882
C134  C     C_R   0.421592 0.023580 0.064318 -0.296950
C135  C     C_R   0.583379 0.021625 0.435142 -0.298182
C136  C     C_R   0.579845 0.976882 0.563512 -0.297415
C137  C     C_R   0.792484 0.483490 0.582216 0.410664
C138  C     C_R   0.207722 0.516523 0.417777 0.410636
C139  C     C_R   0.963437 0.500491 0.090623 0.416329
C140  C     C_R   0.093535 0.499338 0.909876 0.415735
C141  C     C_R   0.536191 0.000507 0.909382 0.415375
C142  C     C_R   0.406584 0.999320 0.090132 0.414981
C143  C     C_R   0.582540 0.996749 0.409620 0.417016
C144  C     C_R   0.605935 0.001355 0.588951 0.417202
O29   O     O_2   0.798162 0.426080 0.628906 -0.493479
O30   O     O_2   0.202076 0.573954 0.371109 -0.493423
O31   O     O_2   0.934468 0.553518 0.141128 -0.467718
O32   O     O_2   0.052471 0.446678 0.859290 -0.467383
O33   O     O_2   0.565081 0.053544 0.858869 -0.465790
O34   O     O_2   0.448077 0.946681 0.140717 -0.465043
O35   O     O_2   0.503754 0.945976 0.358907 -0.463656
O36   O     O_2   0.582689 0.053717 0.640045 -0.465619
C145  C     C_R   0.693596 0.548867 0.495610 -0.002057
C146  C     C_R   0.306354 0.451085 0.504357 -0.002027
C147  C     C_R   0.099968 0.425594 0.012566 -0.024042
C148  C     C_R   0.957275 0.574630 0.987776 -0.027362
C149  C     C_R   0.399883 0.925571 0.987457 -0.024346
C150  C     C_R   0.542503 0.074655 0.012213 -0.027585
C151  C     C_R   0.492609 0.075469 0.487309 -0.027806
C152  C     C_R   0.432779 0.926801 0.512173 -0.028567
H17   H     H_    0.339300 0.350633 0.693266 0.150586
H18   H     H_    0.660951 0.649311 0.306673 0.150935
H19   H     H_    0.199552 0.662427 0.188993 0.145174
H20   H     H_    0.369177 0.342979 0.812536 0.145859
H21   H     H_    0.300123 0.162404 0.811010 0.145275
H22   H     H_    0.131184 0.842946 0.187496 0.146559
H23   H     H_    0.704099 0.836273 0.311195 0.146155
H24   H     H_    0.868698 0.157522 0.686531 0.146633
H25   H     H_    0.318890 0.395300 0.649358 0.161354
H26   H     H_    0.681351 0.604634 0.350573 0.161491
H27   H     H_    0.215703 0.617891 0.145232 0.130488
H28   H     H_    0.357092 0.387371 0.856441 0.134370
H29   H     H_    0.283802 0.117861 0.854778 0.130716
H30   H     H_    0.143408 0.887338 0.143590 0.134711
H31   H     H_    0.725950 0.880600 0.354790 0.137466
H32   H     H_    0.853367 0.113354 0.642484 0.138461
H33   H     H_    0.704365 0.532070 0.561007 0.181233
H34   H     H_    0.295834 0.467937 0.438972 0.181203
H35   H     H_    0.949303 0.448501 0.070378 0.175655
H36   H     H_    0.113226 0.551223 0.930442 0.176051
H37   H     H_    0.550421 0.948523 0.929638 0.175692
H38   H     H_    0.386682 0.051195 0.069556 0.176027
H39   H     H_    0.637956 0.048119 0.430009 0.177042
H40   H     H_    0.612529 0.949003 0.568340 0.176893
C153  C     C_1   0.212901 0.657399 0.392426 0.110381
N9    N     N_1   0.327988 0.660541 0.411823 -0.006282
C154  C     C_1   0.786806 0.342632 0.607614 0.110271
N10   N     N_1   0.671599 0.339504 0.588237 -0.006283
C155  C     C_1   0.755908 0.355425 0.883781 0.083780
N11   N     N_1   0.622943 0.357875 0.899354 -0.057024
C156  C     C_1   0.606300 0.638463 0.114713 0.084321
N12   N     N_1   0.477819 0.633493 0.098427 -0.063260
C157  C     C_1   0.744391 0.855484 0.116217 0.084205
N13   N     N_1   0.877336 0.857957 0.100636 -0.057176
C158  C     C_1   0.893333 0.138526 0.885279 0.084544
N14   N     N_1   0.021805 0.133574 0.901563 -0.063208
C159  C     C_1   0.248386 0.144838 0.616915 0.088031
N15   N     N_1   0.113768 0.142395 0.601727 -0.064644
C160  C     C_1   0.111839 0.863853 0.384369 0.097948
N16   N     N_1   0.983605 0.869721 0.400406 -0.069528
N17   N     N_R   0.688777 0.491376 0.611068 0.267256
O37   O     O_R   0.776128 0.497735 0.638152 -0.283195
O38   O     O_R   0.513800 0.499643 0.608822 -0.361861
N18   N     N_R   0.311592 0.508664 0.388937 0.267253
O39   O     O_R   0.224393 0.502303 0.361838 -0.283024
O40   O     O_R   0.486595 0.500424 0.391205 -0.361927
N19   N     N_R   0.942548 0.485910 0.122624 0.271344
O41   O     O_R   0.083523 0.486146 0.142393 -0.282309
O42   O     O_R   0.800840 0.465427 0.129155 -0.326464
N20   N     N_R   0.143046 0.513249 0.878519 0.271659
O43   O     O_R   0.293006 0.501825 0.864276 -0.307337
O44   O     O_R   0.061814 0.542069 0.867481 -0.319917
N21   N     N_R   0.556995 0.985933 0.877382 0.271715
O45   O     O_R   0.415988 0.986136 0.857620 -0.279423
O46   O     O_R   0.698633 0.965481 0.870847 -0.324196
N22   N     N_R   0.357142 0.013209 0.121492 0.272101
O47   O     O_R   0.207293 0.001712 0.135757 -0.304974
O48   O     O_R   0.438305 0.042068 0.132513 -0.317331
N23   N     N_R   0.650287 0.008300 0.378542 0.272573
O49   O     O_R   0.790325 0.991702 0.365381 -0.312369
O50   O     O_R   0.599044 0.039306 0.366820 -0.317406
N24   N     N_R   0.670126 0.987705 0.619586 0.272332
O51   O     O_R   0.825196 0.999623 0.631763 -0.308930
O52   O     O_R   0.596161 0.958680 0.631720 -0.316489
C161  C     C_1   0.522608 0.545204 0.513683 0.075513
N25   N     N_1   0.385213 0.542517 0.528021 -0.046093
C162  C     C_1   0.477390 0.454744 0.486297 0.075419
N26   N     N_1   0.614826 0.457428 0.471971 -0.046132
C163  C     C_1   0.176963 0.412339 0.042743 0.105438
N27   N     N_1   0.239527 0.401595 0.066774 -0.016355
C164  C     C_1   0.885038 0.588213 0.957351 0.109860
N28   N     N_1   0.826307 0.599225 0.933124 -0.012573
C165  C     C_1   0.322771 0.912293 0.957291 0.105879
N29   N     N_1   0.260117 0.901529 0.933269 -0.015682
C166  C     C_1   0.614824 0.088263 0.042629 0.110188
N30   N     N_1   0.673619 0.099296 0.066849 -0.012027
C167  C     C_1   0.422587 0.090008 0.457098 0.112177
N31   N     N_1   0.365945 0.101757 0.433004 -0.014985
C168  C     C_1   0.358264 0.914569 0.542861 0.112424
N32   N     N_1   0.297902 0.904692 0.567341 -0.012405

loop_
_geom_bond_atom_site_label_1
_geom_bond_atom_site_label_2
_geom_bond_distance
_ccdc_geom_bond_type
C69   C126  1.428273 A    
O17   V3    1.763633 S    
C94   C141  1.413042 A    
C129  H33   1.076122 S    
C51   C155  1.442577 S    
O18   V4    1.763633 S    
C93   C142  1.411999 A    
C115  C148  1.430444 A    
C32   H31   1.081220 S    
C67   C124  1.428437 A    
O19   V1    1.764711 S    
C48   H8    1.084174 S    
C7    C98   1.483838 S    
C140  N20   1.435602 S    
N23   O49   1.301499 A    
C147  C163  1.446414 S    
C130  C138  1.395408 A    
C65   C122  1.429922 A    
C108  C115  1.431916 A    
C90   C137  1.411778 A    
C71   C95   1.414730 A    
C54   C158  1.442778 S    
C20   C92   1.421366 A    
C43   C99   1.408943 A    
C89   C138  1.411766 A    
C32   C64   1.402293 A    
C28   H27   1.081991 S    
C145  C161  1.446570 S    
C158  N14   1.157285 T    
C83   H11   1.085192 S    
O16   V3    1.990073 S    
C41   C97   1.406368 A    
C106  C113  1.432857 A    
C19   C91   1.418333 A    
C157  N13   1.157232 T    
C167  N31   1.157574 T    
C81   H9    1.085564 S    
N4    C20   1.368911 A    
C66   C74   1.406181 A    
C1    C104  1.487874 S    
C146  C162  1.446575 S    
C35   H20   1.082926 S    
O2    V4    1.980426 S    
C2    C103  1.488523 S    
N23   O50   1.301252 A    
C135  C143  1.398677 A    
C153  N9    1.156558 T    
C131  C139  1.394792 A    
C22   C94   1.421221 A    
C46   H6    1.084196 S    
C159  N15   1.157141 T    
O12   V1    1.990506 S    
C85   H13   1.085196 S    
C136  H40   1.079583 S    
C30   C38   1.397964 A    
C113  C146  1.433503 A    
C36   H19   1.083022 S    
C133  C141  1.394726 A    
C154  N10   1.156561 T    
C26   C34   1.400132 A    
C132  C140  1.397003 A    
N7    C63   1.448459 S    
O1    V3    1.980429 S    
N1    C17   1.369849 A    
C18   C90   1.419985 A    
O3    C2    1.330309 A    
C107  C131  1.410171 A    
N17   O37   1.301356 A    
O1    C4    1.330703 A    
C16   O28   1.349602 S    
C96   C143  1.415740 A    
C105  C129  1.410772 A    
C42   C98   1.406375 A    
C46   C54   1.404467 A    
N19   O42   1.300901 A    
C29   C37   1.397803 A    
C19   O32   1.348270 S    
C148  C164  1.446655 S    
C111  C127  1.416125 A    
C91   C140  1.412033 A    
C70   C125  1.430204 A    
N5    C61   1.445816 S    
C10   O22   1.348002 S    
C16   N8    1.369245 A    
C83   C147  1.395730 A    
C17   O30   1.348151 S    
C65   C73   1.406203 A    
C92   C139  1.413064 A    
C137  N17   1.434449 S    
C31   H32   1.082205 S    
C82   C146  1.394358 A    
C26   H25   1.082998 S    
C11   C75   1.407864 A    
C112  C136  1.408422 A    
C49   C153  1.440888 S    
C81   C145  1.394363 A    
C110  C126  1.418824 A    
C11   O23   1.349567 S    
C55   C159  1.442760 S    
C66   C121  1.429910 A    
C142  N22   1.435604 S    
C108  C124  1.418860 A    
C134  H38   1.077274 S    
C27   C59   1.401974 A    
C21   O34   1.348280 S    
C13   N5    1.367646 A    
C116  C124  1.423162 A    
C166  N30   1.157689 T    
O15   C7    1.331576 A    
C117  C125  1.424891 A    
C41   C49   1.402767 A    
O16   C8    1.331583 A    
O7    V2    1.980129 S    
N6    C62   1.446090 S    
N21   O45   1.301092 A    
C86   C150  1.394359 A    
C82   H10   1.085564 S    
C118  C126  1.423123 A    
N5    C21   1.369151 A    
C72   C96   1.414508 A    
C105  C121  1.420488 A    
C144  N24   1.435307 S    
C113  C121  1.425419 A    
C42   H2    1.084479 S    
C52   C156  1.442764 S    
C53   C157  1.442582 S    
C165  N29   1.157683 T    
C72   C127  1.424254 A    
O5    V1    1.980602 S    
C86   H14   1.085307 S    
N3    C19   1.369211 A    
N3    C59   1.446068 S    
C31   C39   1.398387 A    
C24   O35   1.348202 S    
C39   C103  1.406847 A    
N2    C58   1.447340 S    
C135  H39   1.079546 S    
C106  C122  1.420522 A    
C55   C63   1.411729 A    
C69   C93   1.413640 A    
N2    C18   1.369849 A    
C46   C102  1.408530 A    
C25   H26   1.082992 S    
C39   H24   1.082926 S    
C75   C83   1.395368 A    
C18   O29   1.348143 S    
N18   O40   1.301293 A    
C21   C93   1.418162 A    
C25   C33   1.400111 A    
C53   C61   1.410060 A    
C95   C144  1.415800 A    
C72   C80   1.407120 A    
C52   C60   1.410437 A    
C120  C128  1.420667 A    
N22   O47   1.301501 A    
C15   N7    1.368977 A    
C65   C89   1.414979 A    
C150  C166  1.446661 S    
C84   C148  1.394439 A    
C40   C104  1.406561 A    
C161  N25   1.157613 T    
C105  C114  1.432821 A    
C116  C147  1.431162 A    
C6    C99   1.488681 S    
N4    C60   1.446360 S    
C85   C149  1.395664 A    
C68   C123  1.430359 A    
N7    C23   1.370584 A    
C48   C56   1.405914 A    
C110  C134  1.411305 A    
C23   C95   1.418913 A    
C69   C77   1.406585 A    
C44   H4    1.084195 S    
C139  N19   1.432217 S    
C114  C145  1.433488 A    
C28   C60   1.401848 A    
C163  N27   1.157685 T    
C107  C116  1.432034 A    
C143  N23   1.435337 S    
C149  C165  1.446419 S    
O10   V2    1.989417 S    
C20   O31   1.347684 S    
C109  C133  1.410141 A    
C164  N28   1.157687 T    
C14   N6    1.366555 A    
C152  C168  1.446257 S    
O11   C3    1.332418 A    
O12   C4    1.332191 A    
C88   H16   1.085008 S    
C30   C62   1.401802 A    
O8    C5    1.329893 A    
C27   C35   1.398027 A    
C120  C151  1.426302 A    
O13   C5    1.332475 A    
C47   H7    1.084179 S    
C133  H37   1.076699 S    
N17   O38   1.301290 A    
C70   C78   1.407455 A    
C112  C128  1.416085 A    
N8    C64   1.449020 S    
N20   O44   1.301255 A    
C26   C58   1.404388 A    
C88   C152  1.397000 A    
O15   V4    1.990076 S    
C43   H3    1.084143 S    
O4    C1    1.329408 A    
C15   O27   1.349635 S    
C71   C79   1.407175 A    
O9    C1    1.333180 A    
O6    V2    1.980605 S    
C114  C122  1.425397 A    
C3    C102  1.487319 S    
C41   H1    1.084487 S    
C23   O36   1.348176 S    
C84   H12   1.085304 S    
C68   C76   1.407455 A    
C11   N3    1.367696 A    
O14   C6    1.332237 A    
N24   O52   1.301257 A    
C12   O24   1.349727 S    
C10   C74   1.406933 A    
O8    V1    1.980131 S    
C36   C100  1.407058 A    
C13   O25   1.349576 S    
C160  N16   1.157253 T    
C12   C76   1.406668 A    
C87   H15   1.085015 S    
C168  N32   1.157568 T    
C111  C135  1.408435 A    
C134  C142  1.396926 A    
C106  C130  1.410779 A    
C17   C89   1.419966 A    
C66   C90   1.414986 A    
C56   C64   1.412665 A    
C31   C63   1.403032 A    
C47   C55   1.403853 A    
C110  C117  1.431767 A    
C76   C84   1.395138 A    
C16   C80   1.406966 A    
O2    C3    1.329955 A    
C119  C127  1.420567 A    
C4    C101  1.488368 S    
O13   V3    1.991514 S    
C22   O33   1.347690 S    
C56   C160  1.442870 S    
O14   V4    1.991511 S    
N18   O39   1.301358 A    
C108  C132  1.411330 A    
C38   C102  1.406995 A    
C132  H36   1.077262 S    
C155  N11   1.157226 T    
C10   N2    1.366307 A    
C68   C92   1.416760 A    
C156  N12   1.157283 T    
C80   C88   1.398832 A    
C29   C61   1.401870 A    
C8    C97   1.483808 S    
C28   C36   1.398069 A    
O7    C6    1.330636 A    
N6    C22   1.368850 A    
C12   N4    1.366628 A    
C9    C73   1.406947 A    
C37   H22   1.082924 S    
C42   C50   1.402746 A    
C118  C149  1.431134 A    
C109  C125  1.419448 A    
C119  C152  1.426216 A    
C115  C123  1.424912 A    
C67   C91   1.413651 A    
N19   O41   1.301093 A    
C117  C150  1.430409 A    
C109  C118  1.431886 A    
C30   H29   1.081996 S    
C9    O21   1.348028 S    
C32   C40   1.396207 A    
C35   C99   1.407306 A    
C29   H30   1.082542 S    
O11   V2    1.990504 S    
C40   H23   1.083034 S    
C107  C123  1.419478 A    
O9    V1    1.989414 S    
C34   C98   1.405694 A    
C87   C151  1.396953 A    
N8    C24   1.370805 A    
C151  C167  1.446230 S    
O5    C8    1.328818 A    
C33   C97   1.405678 A    
C27   H28   1.082540 S    
O10   C2    1.332609 A    
C15   C79   1.406884 A    
O6    C7    1.328841 A    
C43   C51   1.404704 A    
C34   H17   1.083069 S    
O20   V2    1.764711 S    
C71   C128  1.424276 A    
C13   C77   1.407716 A    
C48   C104  1.408488 A    
C33   H18   1.083060 S    
C67   C75   1.406590 A    
C112  C119  1.428308 A    
C138  N18   1.434443 S    
C136  C144  1.398713 A    
O3    V4    1.981300 S    
C78   C86   1.395104 A    
C141  N21   1.432228 S    
C45   H5    1.084141 S    
C14   O26   1.349738 S    
O4    V3    1.981297 S    
C70   C94   1.416768 A    
N20   O43   1.301499 A    
C38   H21   1.083024 S    
N1    C57   1.447327 S    
C74   C82   1.394175 A    
C25   C57   1.404368 A    
C45   C101  1.408890 A    
C45   C53   1.404614 A    
C73   C81   1.394180 A    
C44   C100  1.408579 A    
C37   C101  1.407267 A    
N22   O48   1.301255 A    
C49   C57   1.409796 A    
C162  N26   1.157620 T    
N24   O51   1.301479 A    
C14   C78   1.406505 A    
C129  C137  1.395416 A    
C24   C96   1.418720 A    
C44   C52   1.404672 A    
C5    C100  1.487656 S    
C47   C103  1.408521 A    
C51   C59   1.410092 A    
C50   C154  1.440875 S    
C77   C85   1.395345 A    
C9    N1    1.366323 A    
C50   C58   1.409786 A    
N21   O46   1.300898 A    
C131  H35   1.076692 S    
C54   C62   1.410347 A    
C111  C120  1.428394 A    
C130  H34   1.076097 S    
C79   C87   1.398779 A    
