data_mof_unit_14314.cif
_audit_creation_date              2012-12-10T18:51:36-0500
_audit_creation_method            fapswitch 2.2
_symmetry_space_group_name_H-M    P1
_symmetry_Int_Tables_number       1
_space_group_crystal_system       triclinic
_cell_length_a                    10.721706
_cell_length_b                    9.911331
_cell_length_c                    10.492857
_cell_angle_alpha                 90.370019
_cell_angle_beta                  91.079124
_cell_angle_gamma                 89.998336
_cell_volume                      1114.81688298

loop_
_atom_site_label
_atom_site_type_symbol
_atom_type_description
_atom_site_fract_x
_atom_site_fract_y
_atom_site_fract_z
_atom_type_partial_charge
C1    C     C_R   0.872502 0.499999 0.500084 -0.042921
C2    C     C_3   0.500776 0.371085 0.039259 -0.084411
C3    C     C_3   0.397753 0.435664 0.955057 -0.179645
C4    C     C_3   0.602247 0.564336 0.044943 -0.179645
C5    C     C_3   0.500096 0.501592 0.877671 -0.014475
C6    C     C_3   0.499904 0.498408 0.122329 -0.014475
C7    C     C_R   0.577752 0.072282 0.580610 0.316572
C8    C     C_R   0.422248 0.927718 0.419390 0.316572
C9    C     C_R   0.422313 0.071277 0.419345 0.307598
C10   C     C_R   0.577687 0.928723 0.580655 0.307599
C11   C     C_R   0.063877 0.376960 0.500664 -0.150468
C12   C     C_R   0.127498 0.500001 0.499916 -0.042921
C13   C     C_R   0.936123 0.623040 0.499336 -0.150468
C14   C     C_R   0.936160 0.376959 0.500701 -0.151128
C15   C     C_R   0.063840 0.623041 0.499299 -0.151129
C16   C     C_R   0.260073 0.500001 0.499872 0.880552
C17   C     C_R   0.739927 0.499999 0.500128 0.880552
C18   C     C_R   0.499826 0.499484 0.257428 0.891410
C19   C     C_R   0.500174 0.500516 0.742572 0.891410
C20   C     C_3   0.396885 0.562813 0.040827 -0.150486
C21   C     C_3   0.603115 0.437186 0.959173 -0.150486
C22   C     C_3   0.499224 0.628915 0.960741 -0.084411
Cl1   Cl    Cl    0.679286 0.159934 0.685566 -0.542527
Cl2   Cl    Cl    0.320714 0.840066 0.314434 -0.542527
Cl3   Cl    Cl    0.321290 0.157767 0.314070 -0.537815
Cl4   Cl    Cl    0.678710 0.842233 0.685930 -0.537815
H1    H     H_    0.314638 0.383549 0.913584 0.163734
H2    H     H_    0.112162 0.719028 0.498827 0.201146
H3    H     H_    0.685362 0.616451 0.086416 0.163734
H4    H     H_    0.313031 0.613622 0.078942 0.189961
H5    H     H_    0.686969 0.386378 0.921058 0.189961
H6    H     H_    0.498594 0.734034 0.924783 0.195507
H7    H     H_    0.501406 0.265966 0.075217 0.195507
H8    H     H_    0.112232 0.280976 0.501291 0.200457
H9    H     H_    0.887768 0.719024 0.498709 0.200457
H10   H     H_    0.887838 0.280972 0.501173 0.201146
N1    N     N_R   0.500000 0.857200 0.500000 -0.190343
N2    N     N_R   0.500000 0.142800 0.500000 -0.190343
O1    O     O_R   0.316770 0.614620 0.499990 -0.592090
O2    O     O_R   0.683230 0.385380 0.500010 -0.592091
O3    O     O_R   0.683230 0.614620 0.500010 -0.591254
O4    O     O_R   0.316770 0.385380 0.499990 -0.591255
O5    O     O_R   0.499970 0.614650 0.313950 -0.578030
O6    O     O_R   0.500030 0.385350 0.686050 -0.578030
O7    O     O_R   0.500030 0.614650 0.686050 -0.587927
O8    O     O_R   0.499970 0.385350 0.313950 -0.587927
Zn1   Zn    Zn3+2 0.500000 0.653120 0.500000 1.046584
Zn2   Zn    Zn3+2 0.500000 0.346880 0.500000 1.046584

loop_
_geom_bond_atom_site_label_1
_geom_bond_atom_site_label_2
_ccdc_geom_bond_type
C7    C10   A    
C11   C12   A    
C19   O7    A    
C5    C19   S    
N1    Zn1   S    
C4    C22   S    
C1    C17   S    
C4    H3    S    
C12   C15   A    
C10   Cl4   S    
C2    C21   S    
C3    H1    S    
C2    C3    S    
O3    Zn1   S    
C9    Cl3   S    
C3    C20   S    
O4    Zn2   S    
C18   O5    A    
C4    C21   S    
C21   H5    S    
C15   H2    S    
C2    C6    S    
C22   H6    S    
C10   N1    A    
C7    Cl1   S    
C18   O8    A    
C2    H7    S    
O1    Zn1   S    
C9    N2    A    
C8    Cl2   S    
C7    N2    A    
C20   C22   S    
C13   H9    S    
C17   O3    A    
O7    Zn1   S    
C13   C15   A    
C14   H10   S    
C12   C16   S    
C6    C18   S    
C11   C14   A    
O8    Zn2   S    
C1    C13   A    
C8    N1    A    
C16   O1    A    
C16   O4    A    
C6    C20   S    
C19   O6    A    
C4    C6    S    
O2    Zn2   S    
C8    C9    A    
C20   H4    S    
C1    C14   A    
N2    Zn2   S    
C17   O2    A    
C11   H8    S    
C5    C22   S    
O6    Zn2   S    
O5    Zn1   S    
C3    C5    S    
C5    C21   S    
