data_mof_unit_43283.cif
_audit_creation_date              2012-12-11T14:21:04-0500
_audit_creation_method            fapswitch 2.2
_symmetry_space_group_name_H-M    P1
_symmetry_Int_Tables_number       1
_space_group_crystal_system       triclinic
_cell_length_a                    22.009558
_cell_length_b                    7.205547
_cell_length_c                    14.980568
_cell_angle_alpha                 89.999887
_cell_angle_beta                  107.464669
_cell_angle_gamma                 89.999634
_cell_volume                      2266.26350871

loop_
_atom_site_label
_atom_site_type_symbol
_atom_type_description
_atom_site_fract_x
_atom_site_fract_y
_atom_site_fract_z
_atom_type_partial_charge
O1    O     O_R   0.584770 0.505770 0.002090 -0.540749
O2    O     O_R   0.415230 0.005770 0.997910 -0.540750
O3    O     O_R   0.467060 0.173340 0.861950 -0.537516
O4    O     O_R   0.532940 0.673340 0.138050 -0.537517
C1    C     C_R   0.456073 0.343962 0.825799 0.677391
C2    C     C_R   0.543926 0.843961 0.174201 0.677390
O5    O     O_R   0.587510 0.175890 0.993210 -0.541650
O6    O     O_R   0.412490 0.675890 0.006790 -0.541651
O7    O     O_R   0.536540 0.008150 0.130100 -0.537857
O8    O     O_R   0.463460 0.508150 0.869900 -0.537858
C3    C     C_R   0.613007 0.344957 0.997604 0.727977
C4    C     C_R   0.386993 0.844958 0.002396 0.727978
O9    O     O_3   0.483140 0.340040 0.044760 -0.378059
O10   O     O_3   0.516860 0.840040 0.955240 -0.378058
V1    V     V_3+5 0.503130 0.064190 0.991700 1.417707
V2    V     V_3+5 0.496870 0.564190 0.008300 1.417706
C5    C     C_2   0.213746 0.727726 0.001890 -0.132019
C6    C     C_2   0.786255 0.227727 0.998109 -0.132014
C7    C     C_2   0.180178 0.886844 0.995895 -0.298926
C8    C     C_2   0.819822 0.386845 0.004105 -0.298944
H1    H     H_    0.190568 0.596645 0.006652 0.137866
H2    H     H_    0.809434 0.096646 0.993347 0.137861
H3    H     H_    0.201831 0.019337 0.989908 0.127149
H4    H     H_    0.798168 0.519338 0.010092 0.127155
C9    C     C_2   0.281607 0.714890 0.001854 -0.139183
C10   C     C_2   0.718393 0.214890 0.998145 -0.139165
C11   C     C_2   0.319887 0.861583 0.003081 -0.301704
C12   C     C_2   0.680113 0.361582 0.996919 -0.301709
H5    H     H_    0.300586 0.575865 0.001505 0.136509
H6    H     H_    0.699416 0.075864 0.998494 0.136507
H7    H     H_    0.302103 0.001428 0.004136 0.131528
H8    H     H_    0.697896 0.501426 0.995864 0.131529
C13   C     C_R   0.927649 0.896942 0.722997 -0.146489
C14   C     C_R   0.072353 0.396935 0.277000 -0.146577
C15   C     C_R   0.571132 0.846761 0.276072 -0.030425
C16   C     C_R   0.428867 0.346766 0.723929 -0.030421
C17   C     C_R   0.929327 0.011098 0.571831 -0.239448
C18   C     C_R   0.070666 0.511043 0.428170 -0.239372
C19   C     C_R   0.960102 0.985063 0.666729 0.396238
C20   C     C_R   0.039892 0.485003 0.333271 0.396210
C21   C     C_R   0.863878 0.843662 0.683983 -0.289555
C22   C     C_R   0.136126 0.343677 0.316012 -0.289661
C23   C     C_R   0.830172 0.885195 0.589485 0.092416
C24   C     C_R   0.169828 0.385190 0.410514 0.092443
C25   C     C_R   0.864617 0.969514 0.534013 0.081258
C26   C     C_R   0.135379 0.469481 0.465987 0.081211
C27   C     C_R   0.763273 0.852457 0.548983 0.074399
C28   C     C_R   0.236727 0.352462 0.451016 0.074410
C29   C     C_R   0.732949 0.901165 0.453204 0.056495
C30   C     C_R   0.267049 0.401162 0.546796 0.056487
C31   C     C_R   0.769584 0.987597 0.402301 -0.183612
C32   C     C_R   0.230411 0.487574 0.597701 -0.183576
C33   C     C_R   0.833844 0.020304 0.442037 -0.192303
C34   C     C_R   0.166150 0.520266 0.557965 -0.192308
C35   C     C_R   0.725364 0.776869 0.601235 -0.190221
C36   C     C_R   0.274639 0.276888 0.398764 -0.190220
C37   C     C_R   0.660430 0.748315 0.561343 -0.203722
C38   C     C_R   0.339573 0.248343 0.438656 -0.203727
C39   C     C_R   0.630862 0.788849 0.467351 0.138679
C40   C     C_R   0.369139 0.288871 0.532649 0.138682
C41   C     C_R   0.666703 0.864326 0.411567 0.079955
C42   C     C_R   0.333296 0.364332 0.588434 0.079954
C43   C     C_R   0.565837 0.749317 0.427916 -0.166531
C44   C     C_R   0.434165 0.249346 0.572083 -0.166531
C45   C     C_R   0.536402 0.775942 0.332627 -0.170037
C46   C     C_R   0.463599 0.275963 0.667373 -0.170040
C47   C     C_R   0.635213 0.893037 0.315180 -0.209880
C48   C     C_R   0.364785 0.393036 0.684821 -0.209878
H9    H     H_    0.859220 0.091352 0.400637 0.140562
H10   H     H_    0.140768 0.591296 0.599366 0.140624
H11   H     H_    0.659827 0.938849 0.266934 0.099569
H12   H     H_    0.340170 0.438838 0.733067 0.099567
H13   H     H_    0.486959 0.736558 0.302414 0.110057
H14   H     H_    0.513043 0.236585 0.697585 0.110056
H15   H     H_    0.633271 0.690241 0.604236 0.124424
H16   H     H_    0.366733 0.190278 0.395763 0.124425
H17   H     H_    0.955439 0.072668 0.528511 0.129328
H18   H     H_    0.044553 0.572602 0.471490 0.129311
H19   H     H_    0.841161 0.780810 0.730898 0.123057
H20   H     H_    0.158847 0.280859 0.269094 0.123071
H21   H     H_    0.749835 0.037364 0.331790 0.125340
H22   H     H_    0.250157 0.537334 0.668214 0.125326
H23   H     H_    0.744215 0.739090 0.673825 0.122567
H24   H     H_    0.255789 0.239107 0.326175 0.122568
H25   H     H_    0.538243 0.691694 0.470268 0.118247
H26   H     H_    0.461761 0.191734 0.529731 0.118247
O11   O     O_R   0.036450 0.233070 0.130130 -0.542788
O12   O     O_R   0.963550 0.733070 0.869870 -0.542826
O13   O     O_R   0.912470 0.560570 0.006790 -0.547650
O14   O     O_R   0.087530 0.060570 0.993210 -0.547642
C49   C     C_R   0.887033 0.391874 0.002774 0.744240
C50   C     C_R   0.112967 0.891873 0.997226 0.744278
O15   O     O_R   0.032920 0.562940 0.138050 -0.549256
O16   O     O_R   0.967080 0.062940 0.861950 -0.549231
O17   O     O_R   0.084790 0.730500 0.002090 -0.536489
O18   O     O_R   0.915210 0.230500 0.997910 -0.536495
C51   C     C_R   0.044495 0.395345 0.174775 0.735952
C52   C     C_R   0.955507 0.895346 0.825224 0.735818
O19   O     O_3   0.016820 0.396170 0.955260 -0.388911
O20   O     O_3   0.983180 0.896170 0.044740 -0.388906
V3    V     V_3+5 0.996880 0.672090 0.008300 1.378561
V4    V     V_3+5 0.003120 0.172090 0.991700 1.378596
O21   O     O_3   0.022551 0.043739 0.703843 -0.583566
C53   C     C_3   0.023757 0.232962 0.730589 0.126849
H27   H     H_    0.061302 0.248295 0.798923 0.152184
H28   H     H_    0.978338 0.282849 0.741214 0.122626
C54   C     C_3   0.040296 0.359328 0.659249 -0.383585
H29   H     H_    0.085860 0.313766 0.648692 0.215821
H30   H     H_    0.002208 0.351612 0.591255 0.196235
C55   C     C_3   0.046083 0.560416 0.692972 -0.779366
H31   H     H_    0.003765 0.599521 0.714290 0.238351
H32   H     H_    0.048506 0.655138 0.635810 0.232001
H33   H     H_    0.089526 0.578551 0.753554 0.230015
O22   O     O_3   0.977444 0.543690 0.296154 -0.583552
C56   C     C_3   0.976248 0.732904 0.269396 0.126859
H34   H     H_    0.938775 0.748196 0.200989 0.152163
H35   H     H_    0.021704 0.782838 0.258909 0.122608
C57   C     C_3   0.959569 0.859246 0.340624 -0.383552
H36   H     H_    0.913874 0.813948 0.350817 0.215705
H37   H     H_    0.997484 0.851179 0.408774 0.196360
C58   C     C_3   0.954045 0.060416 0.307062 -0.779377
H38   H     H_    0.996576 0.099347 0.286257 0.238289
H39   H     H_    0.951411 0.155055 0.364139 0.231965
H40   H     H_    0.910815 0.078864 0.246182 0.230139

loop_
_geom_bond_atom_site_label_1
_geom_bond_atom_site_label_2
_ccdc_geom_bond_type
C43   C45   A    
C22   H20   S    
C17   C25   A    
O18   V4    S    
C21   C23   A    
C14   C22   A    
C33   H9    S    
C2    O7    A    
C53   H28   S    
O12   V3    S    
C38   H16   S    
C27   C29   A    
O5    C3    A    
C13   C19   A    
C14   C20   A    
C16   C46   A    
C37   C39   A    
C15   C45   A    
C38   C40   A    
C56   H34   S    
C46   H14   S    
C1    C16   S    
C14   C51   S    
C45   H13   S    
C2    C15   S    
C40   C42   A    
C13   C52   S    
C57   H36   S    
O14   V4    S    
C58   H40   S    
C7    C50   S    
C49   O18   A    
C55   H31   S    
C20   O22   S    
C8    H4    S    
C24   C26   A    
C29   C31   A    
C6    C10   S    
C30   C32   A    
C54   H29   S    
O13   C49   A    
C31   H21   S    
C47   H11   S    
C48   H12   S    
C28   C30   A    
C25   C33   A    
O6    V2    S    
C43   H25   S    
C54   H30   S    
C22   C24   A    
C44   H26   S    
C53   H27   S    
C32   C34   A    
C36   H24   S    
C57   H37   S    
C9    H5    S    
C8    C49   S    
C39   C41   A    
C29   C41   A    
C4    C11   S    
C11   H7    S    
C12   H8    S    
O4    C2    A    
O22   C56   S    
O15   V3    S    
C18   H18   S    
C56   H35   S    
C17   H17   S    
C50   O17   A    
C5    H1    S    
C31   C33   A    
C57   C58   S    
C44   C46   A    
O4    V2    S    
C7    H3    S    
O11   V4    S    
C41   C47   A    
O14   C50   A    
C34   H10   S    
C15   C47   A    
O6    C4    A    
C56   C57   S    
C26   C34   A    
O1    V2    S    
C32   H22   S    
O2    V1    S    
C23   C25   A    
C55   H33   S    
C58   H38   S    
C10   H6    S    
C35   C37   A    
C30   C42   A    
C54   C55   S    
C35   H23   S    
O15   C51   A    
C58   H39   S    
O3    V1    S    
C27   C35   A    
O2    C4    A    
C28   C36   A    
O13   V3    S    
C6    H2    S    
C10   C12   D    
O3    C1    A    
C21   H19   S    
C16   C48   A    
C19   O21   S    
C9    C11   D    
C39   C43   A    
C42   C48   A    
C40   C44   A    
C13   C21   A    
C37   H15   S    
O7    V1    S    
C5    C9    S    
C1    O8    A    
C17   C19   A    
O8    V2    S    
C18   C20   A    
C3    C12   S    
O5    V1    S    
O20   V3    S    
C5    C7    D    
C36   C38   A    
C6    C8    D    
C55   H32   S    
C18   C26   A    
O17   V3    S    
O19   V4    S    
O16   V4    S    
O9    V2    S    
O21   C53   S    
O16   C52   A    
O10   V1    S    
O1    C3    A    
C23   C27   A    
C53   C54   S    
O12   C52   A    
C24   C28   A    
O11   C51   A    
