data_mof_unit_51748.cif
_audit_creation_date              2012-12-11T15:23:49-0500
_audit_creation_method            fapswitch 2.2
_symmetry_space_group_name_H-M    P1
_symmetry_Int_Tables_number       1
_space_group_crystal_system       triclinic
_cell_length_a                    17.294998
_cell_length_b                    24.332874
_cell_length_c                    15.076506
_cell_angle_alpha                 89.964036
_cell_angle_beta                  125.81289
_cell_angle_gamma                 90.003584
_cell_volume                      5145.16204059

loop_
_atom_site_label
_atom_site_type_symbol
_atom_type_description
_atom_site_fract_x
_atom_site_fract_y
_atom_site_fract_z
_atom_type_partial_charge
C1    C     C_R   0.348013 0.349343 0.908825 -0.125486
C2    C     C_R   0.520307 0.498365 0.693671 -0.073997
C3    C     C_3   0.581667 0.069682 0.400122 -0.212853
C4    C     C_3   0.570633 0.116481 0.326117 -1.067497
C5    C     C_3   0.538024 0.076514 0.732842 0.131963
C6    C     C_3   0.461647 0.055180 0.745590 -0.292920
C7    C     C_3   0.457278 0.089904 0.826812 -1.019108
C8    C     C_3   0.811357 0.246104 0.269767 0.255227
C9    C     C_3   0.840717 0.214255 0.372638 -0.227550
C10   C     C_3   0.948781 0.207792 0.450663 -1.063272
C11   C     C_3   0.136345 0.295356 0.796496 0.210317
C12   C     C_3   0.067953 0.321585 0.683889 -0.282204
C13   C     C_R   0.975301 0.998108 0.302327 -0.076067
C14   C     C_3   0.003447 0.364281 0.684202 -1.000578
C15   C     C_3   0.345266 0.789377 0.233487 0.194142
C16   C     C_3   0.439154 0.757694 0.305680 -0.237496
C17   C     C_3   0.524135 0.796792 0.368248 -1.056537
C18   C     C_3   0.665093 0.770209 0.755251 0.211273
C19   C     C_3   0.588768 0.740092 0.650267 -0.233407
C20   C     C_3   0.493011 0.769712 0.592856 -1.069059
C21   C     C_3   0.273091 0.615467 0.220884 0.174813
C22   C     C_3   0.348296 0.581792 0.320798 -0.261203
C23   C     C_3   0.303125 0.541284 0.355207 -0.996956
C24   C     C_R   0.928619 0.997287 0.632890 -0.021876
C25   C     C_3   0.756614 0.590507 0.857198 0.172935
C26   C     C_3   0.818026 0.586108 0.814882 -0.266084
C27   C     C_3   0.858991 0.528400 0.831663 -1.005630
C28   C     C_3   0.736246 0.088137 0.129672 0.184220
C29   C     C_3   0.672082 0.081725 0.168029 -0.281771
C30   C     C_3   0.629084 0.024243 0.144164 -1.003101
C31   C     C_3   0.217086 0.120804 0.773763 0.169372
C32   C     C_3   0.141657 0.089069 0.670913 -0.262872
C33   C     C_3   0.186800 0.047624 0.638016 -0.992537
C34   C     C_3   0.613537 0.633708 0.315769 0.130246
C35   C     C_R   0.176305 0.496171 0.668294 -0.097343
C36   C     C_3   0.699319 0.671976 0.383560 -0.250534
C37   C     C_3   0.686311 0.724965 0.321824 -1.042056
C38   C     C_3   0.368512 0.606342 0.637268 0.178701
C39   C     C_3   0.328649 0.655894 0.560627 -0.270707
C40   C     C_3   0.224711 0.666610 0.515444 -1.037179
C41   C     C_3   0.122867 0.110120 0.355776 0.167787
C42   C     C_3   0.157852 0.161110 0.428504 -0.267232
C43   C     C_3   0.257500 0.177700 0.464744 -1.039322
C44   C     C_3   0.892916 0.134887 0.675704 0.122974
C45   C     C_3   0.809916 0.174189 0.603478 -0.243178
C46   C     C_R   0.826041 0.498510 0.281816 -0.041865
C47   C     C_3   0.839556 0.233782 0.638271 -1.051656
C48   C     C_R   0.674133 0.998822 0.720112 -0.048113
C49   C     C_R   0.323763 0.996555 0.332490 -0.102057
C50   C     C_2   0.980596 0.455373 0.382048 -0.249710
C51   C     C_2   0.073697 0.462088 0.485783 -0.213565
C52   C     C_2   0.426376 0.962714 0.515575 -0.216522
C53   C     C_R   0.644764 0.346727 0.089338 -0.150088
C54   C     C_2   0.519231 0.956157 0.620035 -0.245931
C55   C     C_2   0.928280 0.500490 0.332413 0.587371
C56   C     C_2   0.081465 0.491549 0.566339 0.612668
C57   C     C_2   0.418604 0.992431 0.435136 0.606604
C58   C     C_2   0.571854 0.001156 0.669700 0.588475
C59   C     C_R   0.155433 0.683107 0.904024 -0.251684
C60   C     C_R   0.838355 0.693911 0.108534 -0.245290
C61   C     C_R   0.665029 0.197554 0.888850 -0.245765
C62   C     C_R   0.344543 0.182101 0.093336 -0.246724
C63   C     C_R   0.612413 0.238528 0.892004 -0.233803
C64   C     C_R   0.855262 0.847030 0.909966 -0.164559
C65   C     C_R   0.384362 0.231462 0.092431 -0.193764
C66   C     C_R   0.113783 0.731264 0.906209 -0.205884
C67   C     C_R   0.888930 0.736045 0.104222 -0.222114
C68   C     C_R   0.636814 0.257518 0.993437 -0.054961
C69   C     C_R   0.339763 0.262247 0.995310 -0.107611
C70   C     C_R   0.153224 0.759397 0.005374 -0.097514
C71   C     C_R   0.858154 0.758115 0.002181 -0.088202
C72   C     C_R   0.696029 0.224722 0.088014 0.412729
C73   C     C_R   0.263877 0.238327 0.896149 0.420003
C74   C     C_R   0.224234 0.732760 0.104716 0.437920
C75   C     C_R   0.148353 0.848278 0.091384 -0.148866
C76   C     C_R   0.793443 0.727344 0.905891 0.438076
C77   C     C_R   0.254708 0.680416 0.101517 0.398054
C78   C     C_R   0.759517 0.677671 0.916230 0.417202
C79   C     C_R   0.735713 0.176908 0.078150 0.392130
C80   C     C_R   0.237976 0.184436 0.895807 0.408305
C81   C     C_R   0.397615 0.618252 0.089508 -0.185262
C82   C     C_R   0.597956 0.628672 0.912432 -0.162058
C83   C     C_R   0.902150 0.129694 0.086807 -0.166693
C84   C     C_R   0.102715 0.117140 0.910418 -0.173950
C85   C     C_R   0.234194 0.661229 0.001528 -0.089230
C86   C     C_R   0.307508 0.631983 0.999051 0.146124
C87   C     C_R   0.764461 0.669540 0.011441 -0.111307
C88   C     C_R   0.736282 0.171894 0.985802 -0.095977
C89   C     C_R   0.263970 0.161435 0.995877 -0.103222
C90   C     C_R   0.578388 0.547318 0.599900 -0.184524
C91   C     C_R   0.597196 0.547101 0.523262 -0.204042
C92   C     C_R   0.896384 0.046066 0.471509 -0.210784
C93   C     C_R   0.913115 0.046256 0.392842 -0.177268
C94   C     C_R   0.597553 0.497203 0.477382 0.199015
C95   C     C_R   0.559827 0.497788 0.631260 0.155837
C96   C     C_R   0.935012 0.997055 0.364162 0.153154
C97   C     C_R   0.686089 0.643454 0.005903 0.119198
C98   C     C_R   0.900641 0.996422 0.521254 0.193910
C99   C     C_R   0.598264 0.447524 0.524625 -0.182741
C100  C     C_R   0.578260 0.447774 0.600811 -0.181140
C101  C     C_R   0.920882 0.946900 0.398484 -0.176215
C102  C     C_R   0.902463 0.946601 0.476060 -0.176981
C103  C     C_R   0.546543 0.452582 0.300238 -0.216122
C104  C     C_R   0.504942 0.452655 0.736420 -0.229458
C105  C     C_R   0.992440 0.952576 0.260962 -0.228317
C106  C     C_R   0.953071 0.952512 0.699699 -0.212919
C107  C     C_R   0.231858 0.543402 0.711782 -0.195776
C108  C     C_R   0.815012 0.145430 0.992826 0.118272
C109  C     C_R   0.770714 0.544088 0.261978 -0.048742
C110  C     C_R   0.729502 0.044296 0.739689 -0.036631
C111  C     C_R   0.267776 0.043604 0.288515 -0.188449
C112  C     C_R   0.563573 0.543713 0.309030 0.437570
C113  C     C_R   0.491633 0.544232 0.722638 0.488370
C114  C     C_R   0.005546 0.044063 0.275262 0.496148
C115  C     C_R   0.936345 0.043594 0.690833 0.434544
C116  C     C_R   0.234516 0.451584 0.720582 -0.123951
C117  C     C_R   0.767743 0.452773 0.249420 -0.160314
C118  C     C_R   0.732256 0.952968 0.751546 -0.155478
C119  C     C_R   0.192591 0.131106 0.000236 0.135826
C120  C     C_R   0.265811 0.951761 0.279972 -0.128765
C121  C     C_R   0.307976 0.622909 0.907886 -0.130024
C122  C     C_R   0.684626 0.631609 0.094027 -0.164399
C123  C     C_R   0.816949 0.133088 0.905297 -0.161926
C124  C     C_R   0.192258 0.122560 0.091730 -0.131311
C125  C     C_R   0.435587 0.349637 0.090995 -0.123407
C126  C     C_R   0.553812 0.347507 0.907872 -0.147055
C127  C     C_R   0.943449 0.847749 0.091338 -0.137280
C128  C     C_R   0.061723 0.848431 0.909751 -0.124387
C129  C     C_R   0.369730 0.319058 0.998490 0.104171
C130  C     C_R   0.570610 0.497487 0.366522 -0.022163
C131  C     C_R   0.613632 0.314780 0.998174 0.132205
C132  C     C_R   0.882778 0.815439 0.000130 0.131246
C133  C     C_R   0.125071 0.816931 0.002446 0.113029
C134  C     C_3   0.961929 0.575078 0.267413 0.128038
C135  C     C_3   0.032163 0.550051 0.247934 -0.299124
C136  C     C_3   0.036274 0.583786 0.165438 -1.015524
C137  C     C_3   0.013870 0.551176 0.625737 0.183448
C138  C     C_3   0.917574 0.568299 0.599619 -0.212706
C139  C     C_3   0.926702 0.618620 0.665462 -1.068479
C140  C     C_3   0.485393 0.051763 0.373458 0.186686
H1    H     H_    0.563020 0.259654 0.815921 0.142892
H2    H     H_    0.571255 0.637871 0.829615 0.193690
H3    H     H_    0.903422 0.517434 0.919872 0.266365
H4    H     H_    0.904295 0.526754 0.801777 0.275420
H5    H     H_    0.800475 0.497954 0.785221 0.277848
H6    H     H_    0.791534 0.055653 0.167740 0.128539
H7    H     H_    0.694347 0.080510 0.039898 0.078883
H8    H     H_    0.714457 0.089176 0.257477 0.213486
H9    H     H_    0.613735 0.112600 0.125996 0.206154
H10   H     H_    0.585510 0.015753 0.054958 0.267237
H11   H     H_    0.582600 0.021131 0.172370 0.274883
H12   H     H_    0.686485 0.992938 0.188179 0.275423
H13   H     H_    0.927866 0.139131 0.169178 0.193115
H14   H     H_    0.257650 0.090900 0.842595 0.093466
H15   H     H_    0.266444 0.141323 0.759401 0.128731
H16   H     H_    0.094658 0.066825 0.686419 0.180025
H17   H     H_    0.097121 0.118216 0.602314 0.215715
H18   H     H_    0.231932 0.069094 0.618796 0.265960
H19   H     H_    0.130004 0.024896 0.564129 0.285430
H20   H     H_    0.231050 0.017668 0.705116 0.263163
H21   H     H_    0.603932 0.408295 0.495251 0.113223
H22   H     H_    0.571007 0.408635 0.629047 0.116474
H23   H     H_    0.930879 0.907802 0.372652 0.115507
H24   H     H_    0.078107 0.114211 0.827274 0.145423
H25   H     H_    0.900235 0.907350 0.508051 0.112492
H26   H     H_    0.554259 0.651036 0.316011 0.095186
H27   H     H_    0.595667 0.632272 0.232610 0.139433
H28   H     H_    0.709313 0.682016 0.461600 0.195111
H29   H     H_    0.764741 0.651145 0.403233 0.208970
H30   H     H_    0.690783 0.716339 0.252692 0.267280
H31   H     H_    0.743320 0.754640 0.377816 0.274748
H32   H     H_    0.615950 0.743762 0.288510 0.283132
H33   H     H_    0.373528 0.617331 0.712121 0.103102
H34   H     H_    0.318627 0.571047 0.594867 0.115726
H35   H     H_    0.557672 0.409736 0.323341 0.117086
H36   H     H_    0.371676 0.692668 0.606387 0.206269
H37   H     H_    0.333662 0.648854 0.491375 0.218238
H38   H     H_    0.179820 0.630624 0.467704 0.275478
H39   H     H_    0.198142 0.702988 0.460597 0.277037
H40   H     H_    0.218218 0.674828 0.583305 0.263409
H41   H     H_    0.114732 0.120952 0.279001 0.105291
H42   H     H_    0.177132 0.076913 0.399786 0.116486
H43   H     H_    0.107631 0.195675 0.382747 0.196774
H44   H     H_    0.159749 0.152794 0.502150 0.219655
H45   H     H_    0.309299 0.144205 0.513404 0.273320
H46   H     H_    0.514209 0.409821 0.726454 0.127301
H47   H     H_    0.280540 0.215118 0.516452 0.275104
H48   H     H_    0.257380 0.186711 0.392412 0.264169
H49   H     H_    0.952083 0.146374 0.669790 0.113412
H50   H     H_    0.913963 0.139253 0.760255 0.129526
H51   H     H_    0.784443 0.169312 0.517090 0.199030
H52   H     H_    0.750161 0.163927 0.608925 0.196515
H53   H     H_    0.863586 0.239820 0.723926 0.270761
H54   H     H_    0.777964 0.261316 0.583966 0.272622
H55   H     H_    0.898289 0.245018 0.631838 0.279751
H56   H     H_    0.218043 0.408901 0.697854 0.089864
H57   H     H_    0.982341 0.909763 0.269977 0.127691
H58   H     H_    0.787477 0.410213 0.254566 0.092548
H59   H     H_    0.712420 0.910471 0.746430 0.092157
H60   H     H_    0.283030 0.909020 0.302683 0.084917
H61   H     H_    0.477586 0.336248 0.175220 0.092202
H62   H     H_    0.504859 0.334706 0.823841 0.088140
H63   H     H_    0.990443 0.834721 0.175468 0.087865
H64   H     H_    0.018746 0.835056 0.825573 0.090293
H65   H     H_    0.949506 0.414589 0.362734 0.094382
H66   H     H_    0.135219 0.443026 0.495833 0.093974
H67   H     H_    0.365088 0.942665 0.504437 0.098947
H68   H     H_    0.941593 0.909641 0.676926 0.117309
H69   H     H_    0.550030 0.915273 0.640511 0.092916
H70   H     H_    0.211770 0.584238 0.677242 0.098772
H71   H     H_    0.797414 0.584766 0.291727 0.104198
H72   H     H_    0.702939 0.085135 0.711128 0.102238
H73   H     H_    0.444577 0.247264 0.169530 0.149007
H74   H     H_    0.287155 0.084499 0.322838 0.098831
H75   H     H_    0.250867 0.631321 0.823927 0.088289
H76   H     H_    0.733927 0.645572 0.176386 0.092509
H77   H     H_    0.769536 0.147615 0.822831 0.090659
H78   H     H_    0.249496 0.131359 0.175495 0.090169
H79   H     H_    0.314528 0.335276 0.826180 0.154195
H80   H     H_    0.680833 0.333376 0.172615 0.144583
H81   H     H_    0.824674 0.833201 0.828005 0.153322
H82   H     H_    0.178365 0.834668 0.173371 0.151685
H83   H     H_    0.978387 0.619484 0.285263 0.151672
H84   H     H_    0.056549 0.748471 0.828720 0.148727
H85   H     H_    0.887393 0.572043 0.192086 0.088052
H86   H     H_    0.104335 0.548460 0.326528 0.211399
H87   H     H_    0.009912 0.507418 0.216669 0.183327
H88   H     H_    0.964402 0.587204 0.087142 0.269235
H89   H     H_    0.084298 0.563353 0.149396 0.264288
H90   H     H_    0.063847 0.625681 0.197929 0.270601
H91   H     H_    0.045544 0.587143 0.612089 0.107718
H92   H     H_    0.060818 0.537721 0.712736 0.101859
H93   H     H_    0.867748 0.577813 0.511032 0.218708
H94   H     H_    0.887062 0.533665 0.617974 0.207563
H95   H     H_    0.942152 0.755424 0.180935 0.144052
H96   H     H_    0.974301 0.609507 0.754436 0.278933
H97   H     H_    0.855319 0.630150 0.643302 0.282069
H98   H     H_    0.955775 0.653969 0.646988 0.266675
H99   H     H_    0.450853 0.088064 0.381641 0.104316
H100  H     H_    0.440602 0.035790 0.288147 0.101748
H101  H     H_    0.628833 0.083470 0.486705 0.218180
H102  H     H_    0.616274 0.034148 0.389996 0.210686
H103  H     H_    0.523875 0.103709 0.238975 0.279143
H104  H     H_    0.641567 0.127663 0.346593 0.274799
H105  H     H_    0.539833 0.153237 0.338371 0.266616
H106  H     H_    0.573712 0.586734 0.629049 0.196571
H107  H     H_    0.527646 0.121419 0.717193 0.150328
H108  H     H_    0.610704 0.070764 0.810297 0.081106
H109  H     H_    0.390976 0.056274 0.664908 0.211262
H110  H     H_    0.477802 0.011909 0.774642 0.184042
H111  H     H_    0.528167 0.091634 0.906742 0.270337
H112  H     H_    0.405774 0.071384 0.839438 0.265495
H113  H     H_    0.433766 0.132367 0.795012 0.270986
H114  H     H_    0.131671 0.666473 0.825383 0.149480
H115  H     H_    0.852034 0.684609 0.186559 0.139951
H116  H     H_    0.654939 0.190291 0.812088 0.139616
H117  H     H_    0.599763 0.586487 0.492061 0.156795
H118  H     H_    0.371318 0.163149 0.171217 0.149626
H119  H     H_    0.824734 0.290444 0.290873 0.055319
H120  H     H_    0.859013 0.234673 0.245337 0.099588
H121  H     H_    0.814617 0.236570 0.414637 0.185246
H122  H     H_    0.807805 0.172769 0.350266 0.217941
H123  H     H_    0.974049 0.179337 0.415159 0.294924
H124  H     H_    0.968764 0.190673 0.529738 0.274715
H125  H     H_    0.984438 0.248081 0.465288 0.264793
H126  H     H_    0.167554 0.328099 0.860040 0.101281
H127  H     H_    0.094463 0.266683 0.811092 0.099581
H128  H     H_    0.891099 0.085419 0.500486 0.159240
H129  H     H_    0.108703 0.341519 0.657047 0.201980
H130  H     H_    0.023091 0.288982 0.624144 0.205342
H131  H     H_    0.962077 0.345353 0.711328 0.269790
H132  H     H_    0.952843 0.380892 0.600278 0.284224
H133  H     H_    0.046686 0.398853 0.739624 0.272193
H134  H     H_    0.347594 0.825141 0.280660 0.122611
H135  H     H_    0.338915 0.806718 0.160862 0.068436
H136  H     H_    0.437470 0.731757 0.365107 0.231664
H137  H     H_    0.448453 0.730466 0.253506 0.193570
H138  H     H_    0.530185 0.821124 0.310208 0.275005
H139  H     H_    0.914260 0.085405 0.360218 0.203931
H140  H     H_    0.590670 0.772847 0.422679 0.280253
H141  H     H_    0.516104 0.825377 0.419716 0.279373
H142  H     H_    0.666778 0.813479 0.733278 0.097043
H143  H     H_    0.642595 0.771606 0.811334 0.062977
H144  H     H_    0.610702 0.737927 0.594274 0.205245
H145  H     H_    0.579964 0.697590 0.669665 0.237586
H146  H     H_    0.471267 0.773679 0.648798 0.266770
H147  H     H_    0.437466 0.746031 0.519845 0.279992
H148  H     H_    0.497861 0.811395 0.566486 0.273844
H149  H     H_    0.229494 0.586931 0.150289 0.093680
H150  H     H_    0.422836 0.616555 0.173055 0.148871
H151  H     H_    0.226631 0.636674 0.238835 0.136402
H152  H     H_    0.391826 0.558621 0.301174 0.185098
H153  H     H_    0.396410 0.609844 0.390256 0.206695
H154  H     H_    0.262478 0.563744 0.379549 0.267329
H155  H     H_    0.359816 0.516865 0.426281 0.282404
H156  H     H_    0.254630 0.512762 0.287035 0.263832
H157  H     H_    0.701224 0.558190 0.818928 0.130763
H158  H     H_    0.800572 0.581082 0.946426 0.078866
H159  H     H_    0.774093 0.596172 0.726266 0.222441
H160  H     H_    0.877494 0.616191 0.858794 0.197895
N1    N     N_R   0.395440 0.396300 0.944370 -0.048552
N2    N     N_R   0.474910 0.470990 0.794360 -0.060222
N3    N     N_R   0.025090 0.970990 0.205640 -0.060217
N4    N     N_R   0.974910 0.970990 0.794360 -0.054929
N5    N     N_R   0.320240 0.527820 0.794510 -0.035780
N6    N     N_R   0.679760 0.527820 0.205490 -0.034389
N7    N     N_R   0.820240 0.027820 0.794510 -0.032036
N8    N     N_R   0.179760 0.027820 0.205490 -0.035403
N9    N     N_R   0.524580 0.527810 0.205160 -0.095552
N10   N     N_R   0.475420 0.527810 0.794840 -0.105244
N11   N     N_R   0.024580 0.027810 0.205160 -0.106892
N12   N     N_R   0.604560 0.396300 0.055630 -0.046966
N13   N     N_R   0.975420 0.027810 0.794840 -0.092025
N14   N     N_R   0.320750 0.470990 0.794990 -0.028487
N15   N     N_R   0.679250 0.470990 0.205010 -0.029343
N16   N     N_R   0.820750 0.970990 0.794990 -0.030016
N17   N     N_R   0.179250 0.970990 0.205010 -0.026858
N18   N     N_R   0.393580 0.602500 0.942610 -0.042757
N19   N     N_R   0.606420 0.602500 0.057390 -0.046374
N20   N     N_R   0.893580 0.102500 0.942610 -0.044822
N21   N     N_R   0.106420 0.102500 0.057390 -0.044213
N22   N     N_R   0.451750 0.396300 0.057540 -0.038858
N23   N     N_R   0.895440 0.896300 0.944370 -0.046900
N24   N     N_R   0.548250 0.396300 0.942460 -0.037127
N25   N     N_R   0.951750 0.896300 0.057540 -0.037355
N26   N     N_R   0.048250 0.896300 0.942460 -0.038340
N27   N     N_R   0.104560 0.896300 0.055630 -0.045879
N28   N     N_R   0.449890 0.602500 0.055780 -0.064211
N29   N     N_R   0.550110 0.602500 0.944220 -0.054956
N30   N     N_R   0.949890 0.102500 0.055780 -0.056810
N31   N     N_R   0.050110 0.102500 0.944220 -0.062355
N32   N     N_R   0.525090 0.470990 0.205640 -0.054327
Ni1   Ni    Ni4+2 0.435420 0.434250 0.870220 0.200509
Ni2   Ni    Ni4+2 0.564580 0.434250 0.129780 0.215653
Ni3   Ni    Ni4+2 0.935420 0.934250 0.870220 0.215583
Ni4   Ni    Ni4+2 0.064580 0.934250 0.129780 0.202298
Ni5   Ni    Ni4+2 0.563400 0.564580 0.128670 0.217212
Ni6   Ni    Ni4+2 0.436600 0.564580 0.871330 0.197079
Ni7   Ni    Ni4+2 0.063400 0.064580 0.128670 0.194252
Ni8   Ni    Ni4+2 0.936600 0.064580 0.871330 0.220052
O1    O     O_3   0.973159 0.551367 0.359850 -0.657022
O2    O     O_3   0.710214 0.642285 0.828050 -0.679903
O3    O     O_3   0.782970 0.139765 0.163775 -0.678145
O4    O     O_3   0.171285 0.160755 0.795689 -0.668822
O5    O     O_3   0.638409 0.581226 0.363799 -0.670586
O6    O     O_3   0.459504 0.593157 0.664349 -0.699973
O7    O     O_3   0.034801 0.093194 0.332921 -0.700835
O8    O     O_3   0.861787 0.081070 0.637905 -0.669704
O9    O     O_3   0.998584 0.507756 0.555226 -0.647335
O10   O     O_3   0.501668 0.010456 0.448304 -0.643628
O11   O     O_3   0.527523 0.052242 0.641271 -0.653566
O12   O     O_3   0.712324 0.238221 0.187062 -0.673999
O13   O     O_3   0.209477 0.267373 0.799129 -0.657545
O14   O     O_3   0.266159 0.756669 0.206407 -0.668038
O15   O     O_3   0.756699 0.746607 0.801872 -0.665096
O16   O     O_3   0.320183 0.654711 0.199678 -0.688408

loop_
_geom_bond_atom_site_label_1
_geom_bond_atom_site_label_2
_ccdc_geom_bond_type
C135  H86   S    
C75   N27   A    
C139  H97   S    
C123  N20   A    
C19   C20   S    
C37   H32   S    
C51   H66   S    
C90   C95   A    
C126  H62   S    
C110  N7    A    
N19   Ni5   S    
C24   C98   S    
C47   H55   S    
C41   O7    S    
C72   C79   A    
C1    C129  A    
C57   O10   S    
C59   C66   A    
C106  H68   S    
C5    C6    S    
C88   C108  S    
N21   Ni7   S    
C49   C120  A    
C19   H145  S    
C126  N24   A    
C140  H100  S    
N9    Ni5   S    
C3    H101  S    
C61   C63   A    
N24   Ni1   S    
C44   H50   S    
C71   C132  S    
C40   H40   S    
C116  N14   A    
C45   H51   S    
C54   H69   S    
C46   C55   S    
C70   C74   A    
C27   H3    S    
N26   N27   A    
C81   H150  S    
C62   H118  S    
C4    H103  S    
C81   C86   A    
C82   H2    S    
C49   C111  A    
C53   H80   S    
C105  H57   S    
C136  H88   S    
C21   C22   S    
C134  O1    S    
N27   Ni4   S    
C45   C47   S    
C6    H110  S    
N4    N13   A    
C12   H129  S    
C14   H131  S    
C98   C102  A    
N5    N14   A    
C46   C117  A    
C68   C131  S    
C65   H73   S    
C8    O12   S    
C43   H47   S    
C27   H5    S    
C86   C121  A    
N18   N28   A    
C76   O15   S    
C15   H135  S    
C41   H42   S    
N9    N32   A    
C23   H156  S    
C33   H18   S    
N3    N11   A    
C28   H7    S    
C47   H53   S    
C6    C7    S    
C104  H46   S    
C136  H89   S    
N21   N31   A    
C78   O2    S    
C91   C94   A    
C66   C70   A    
C84   C119  A    
C84   N31   A    
C26   H159  S    
C25   H158  S    
C4    H105  S    
C93   H139  S    
C17   H140  S    
C35   C107  A    
C29   H9    S    
C92   H128  S    
C125  C129  A    
C113  O6    S    
C69   C129  S    
C22   C23   S    
C138  H93   S    
C109  H71   S    
C22   H153  S    
N7    Ni8   S    
C78   C87   A    
C55   O1    S    
C48   C110  A    
C112  N9    A    
C36   H28   S    
N30   Ni7   S    
C29   H8    S    
C107  H70   S    
C85   C86   S    
C10   H123  S    
C94   C130  S    
C135  H87   S    
C125  N22   A    
C121  H75   S    
C36   C37   S    
C76   C78   A    
C20   H148  S    
C38   C39   S    
C38   H34   S    
C43   H45   S    
C15   O14   S    
C49   C57   S    
C105  N3    A    
C106  N4    A    
N20   Ni8   S    
C31   O4    S    
C120  H60   S    
C32   H16   S    
C18   H143  S    
C60   C67   A    
C74   C77   A    
C23   H154  S    
C9    C10   S    
C33   H20   S    
C77   C85   A    
C137  H92   S    
C25   O2    S    
C103  C130  A    
C13   C96   S    
C134  H85   S    
C64   C132  A    
C74   O14   S    
C52   C57   D    
C39   C40   S    
C42   H44   S    
C25   C26   S    
C7    H111  S    
N23   N25   A    
N5    Ni6   S    
C8    H120  S    
C59   C85   A    
C29   C30   S    
C30   H12   S    
C31   C32   S    
C9    H122  S    
C120  N17   A    
C73   O13   S    
C140  O10   S    
C24   C106  A    
C5    H108  S    
N11   Ni7   S    
C3    C4    S    
C31   H14   S    
C77   O16   S    
C32   H17   S    
C117  N15   A    
C118  N16   A    
C63   C68   A    
C35   C56   S    
C110  H72   S    
C17   H138  S    
C37   H31   S    
N2    Ni1   S    
C134  C135  S    
C83   H13   S    
C102  H25   S    
C28   H6    S    
C44   O8    S    
C81   N28   A    
C11   H126  S    
C122  H76   S    
C34   C36   S    
C116  H56   S    
C64   N23   A    
C25   H157  S    
N1    N22   A    
C21   O16   S    
N25   Ni4   S    
C100  H22   S    
C112  C130  A    
C4    H104  S    
C117  H58   S    
C124  N21   A    
N16   Ni3   S    
C101  C102  A    
C52   H67   S    
C41   C42   S    
C16   H136  S    
C135  C136  S    
C125  H61   S    
C26   C27   S    
N6    N15   A    
C28   C29   S    
C12   H130  S    
N8    N17   A    
C71   C76   A    
C14   H132  S    
C30   H10   S    
N17   Ni4   S    
C62   C89   A    
N12   Ni2   S    
C83   C108  A    
C18   C19   S    
C128  H64   S    
C80   C89   A    
C99   H21   S    
C89   C119  S    
C75   H82   S    
C16   C17   S    
C69   C73   A    
C53   C131  A    
C13   C114  A    
C114  O7    S    
C17   H141  S    
C123  H77   S    
C96   C101  A    
C139  H98   S    
C41   H41   S    
N3    Ni4   S    
C23   H155  S    
C79   C88   A    
C39   H37   S    
N23   Ni3   S    
C13   C105  A    
C95   C100  A    
N12   N24   A    
C136  H90   S    
C140  H99   S    
C20   H147  S    
C112  O5    S    
C16   H137  S    
C91   H117  S    
C44   H49   S    
C40   H39   S    
C45   H52   S    
C101  H23   S    
C103  H35   S    
C50   C51   S    
C63   H1    S    
C26   H160  S    
C35   C116  A    
C82   C97   A    
C128  N26   A    
C138  H94   S    
C21   H149  S    
C42   C43   S    
C108  C123  A    
C44   C45   S    
C121  N18   A    
C6    H109  S    
N26   Ni3   S    
C10   H125  S    
C61   H116  S    
C31   H15   S    
C75   C133  A    
C48   C58   S    
C113  N10   A    
C32   C33   S    
C90   C91   A    
C43   H48   S    
C65   C69   A    
C90   H106  S    
C92   C93   A    
C5    O11   S    
C67   C71   A    
C56   O9    S    
C138  C139  S    
C134  H83   S    
C46   C109  A    
C139  H96   S    
C11   H127  S    
C103  N32   A    
C34   H26   S    
C127  H63   S    
C3    H102  S    
C33   H19   S    
N6    Ni5   S    
C58   O11   S    
C82   N29   A    
C47   H54   S    
C111  H74   S    
C137  H91   S    
C28   O3    S    
C92   C98   A    
C119  C124  A    
C107  N5    A    
C19   H144  S    
C67   H95   S    
C36   H29   S    
C83   N30   A    
C127  N25   A    
N4    Ni3   S    
C2    C95   S    
N32   Ni2   S    
C2    C113  A    
N31   Ni8   S    
C18   O15   S    
C15   C16   S    
C51   C56   D    
C53   N12   A    
C127  C132  A    
N14   Ni1   S    
C8    C9    S    
C9    H121  S    
C70   C133  S    
C21   H151  S    
C2    C104  A    
C22   H152  S    
C38   O6    S    
N28   Ni5   S    
C84   H24   S    
C68   C72   A    
C11   O13   S    
N18   Ni6   S    
C34   O5    S    
C122  N19   A    
C80   O4    S    
C7    H113  S    
C59   H114  S    
C1    N1    A    
C5    H107  S    
C118  H59   S    
N15   Ni2   S    
C79   O3    S    
C60   C87   A    
C52   C54   S    
C27   H4    S    
C111  N8    A    
N22   Ni2   S    
C124  H78   S    
C115  O8    S    
C114  N11   A    
C72   O12   S    
C66   H84   S    
C37   H30   S    
C38   H33   S    
C48   C118  A    
N19   N29   A    
C109  N6    A    
C60   H115  S    
C15   H134  S    
C97   C122  A    
C61   C88   A    
C99   C100  A    
C18   H142  S    
N2    N10   A    
N13   Ni8   S    
C1    H79   S    
C20   H146  S    
C40   H38   S    
C12   C14   S    
C93   C96   A    
N29   Ni6   S    
N10   Ni6   S    
C54   C58   D    
C104  N2    A    
C62   C65   A    
C39   H36   S    
C11   C12   S    
N7    N16   A    
C42   H43   S    
C137  C138  S    
C50   C55   D    
C7    H112  S    
C8    H119  S    
C126  C131  A    
C128  C133  A    
C14   H133  S    
C30   H11   S    
C94   C99   A    
C73   C80   A    
C10   H124  S    
C64   H81   S    
C115  N13   A    
N8    Ni7   S    
C50   H65   S    
C137  O9    S    
C24   C115  A    
N20   N30   A    
N1    Ni1   S    
C3    C140  S    
C34   H27   S    
C87   C97   S    
