data_mof_unit_48587.cif
_audit_creation_date              2012-12-10T17:47:11-0500
_audit_creation_method            fapswitch 2.2
_symmetry_space_group_name_H-M    P1
_symmetry_Int_Tables_number       1
_space_group_crystal_system       triclinic
_cell_length_a                    11.70057
_cell_length_b                    14.739337
_cell_length_c                    14.394583
_cell_angle_alpha                 65.700744
_cell_angle_beta                  103.133863
_cell_angle_gamma                 102.297619
_cell_volume                      2183.30393974

loop_
_atom_site_label
_atom_site_type_symbol
_atom_type_description
_atom_site_fract_x
_atom_site_fract_y
_atom_site_fract_z
_atom_type_partial_charge
C1    C     C_R   0.484161 0.119038 0.310462 0.803794
C2    C     C_R   0.515835 0.880962 0.689537 0.803794
C3    C     C_R   0.478457 0.326038 0.993161 0.075313
C4    C     C_R   0.521533 0.673969 0.006837 0.075308
C5    C     C_R   0.502300 0.465008 0.051981 0.098223
C6    C     C_R   0.497725 0.535000 0.948022 0.098225
C7    C     C_R   0.476743 0.497501 0.869035 -0.257309
C8    C     C_R   0.523277 0.502509 0.130967 -0.257310
C9    C     C_R   0.470975 0.396200 0.891299 -0.163736
C10   C     C_R   0.529026 0.603810 0.108700 -0.163740
C11   C     C_R   0.701096 0.285789 0.667281 -0.307295
C12   C     C_R   0.298903 0.714210 0.332721 -0.307249
C13   C     C_R   0.670527 0.205938 0.634803 0.094815
C14   C     C_R   0.329470 0.794058 0.365202 0.094848
C15   C     C_R   0.513675 0.284178 0.511535 0.034529
C16   C     C_R   0.486330 0.715824 0.488461 0.034526
C17   C     C_R   0.544442 0.371496 0.536661 -0.026766
C18   C     C_R   0.455563 0.628506 0.463335 -0.026772
C19   C     C_R   0.637478 0.369084 0.620395 0.115529
C20   C     C_R   0.362526 0.630918 0.379602 0.115533
C21   C     C_R   0.485282 0.459376 0.482754 0.024590
C22   C     C_R   0.514725 0.540627 0.517240 0.024592
C23   C     C_R   0.284184 0.000507 0.500076 0.822084
C24   C     C_R   0.715816 0.999493 0.499924 0.822096
C25   C     C_R   0.600793 0.531140 0.605822 -0.218870
C26   C     C_R   0.399214 0.468864 0.394173 -0.218873
C27   C     C_R   0.664515 0.448629 0.656444 0.156509
C28   C     C_R   0.335491 0.551374 0.343552 0.156514
C29   C     C_1   0.162761 0.001198 0.500301 -0.179909
C30   C     C_1   0.837239 0.998802 0.499699 -0.179909
C31   C     C_1   0.060088 0.000605 0.500157 0.006162
C32   C     C_1   0.939912 0.999394 0.499843 0.006162
C33   C     C_R   0.480911 0.185401 0.198878 -0.128010
C34   C     C_R   0.519079 0.814602 0.801120 -0.128016
C35   C     C_R   0.474182 0.222759 0.015221 0.224297
C36   C     C_R   0.525766 0.777244 0.984770 0.224316
C37   C     C_R   0.481183 0.152203 0.118676 0.070452
C38   C     C_R   0.518762 0.847797 0.881313 0.070450
C39   C     C_R   0.481117 0.287665 0.173859 -0.284236
C40   C     C_R   0.518908 0.712341 0.826144 -0.284233
C41   C     C_R   0.488301 0.359894 0.073874 0.048576
C42   C     C_R   0.511715 0.640113 0.926128 0.048579
Cu1   Cu    Cu3+1 0.469550 0.918260 0.475690 0.939581
Cu2   Cu    Cu3+1 0.530450 0.081740 0.524310 0.939581
H1    H     H_    0.458816 0.374386 0.826295 0.205168
H2    H     H_    0.541176 0.625625 0.173701 0.205167
H3    H     H_    0.618279 0.587644 0.637633 0.143083
H4    H     H_    0.381729 0.412360 0.362360 0.143084
H5    H     H_    0.527185 0.690632 0.765503 0.160776
H6    H     H_    0.472874 0.309377 0.234508 0.160787
H7    H     H_    0.463401 0.544216 0.788075 0.147553
H8    H     H_    0.536622 0.455797 0.211928 0.147547
H9    H     H_    0.560933 0.723695 0.545322 0.118512
H10   H     H_    0.439073 0.276309 0.454672 0.118511
H11   H     H_    0.278769 0.856434 0.329783 0.125096
H12   H     H_    0.721220 0.143558 0.670228 0.125107
H13   H     H_    0.774656 0.280635 0.729348 0.135592
H14   H     H_    0.225339 0.719361 0.270657 0.135582
N1    N     N_R   0.576230 0.204580 0.560790 -0.174329
N2    N     N_R   0.423770 0.795420 0.439210 -0.174334
O1    O     O_R   0.459870 0.022090 0.338120 -0.582144
O2    O     O_R   0.540130 0.977910 0.661880 -0.582140
O3    O     O_R   0.511290 0.160150 0.379180 -0.583886
O4    O     O_R   0.488710 0.839850 0.620820 -0.583883
O5    O     O_R   0.311490 0.930960 0.479480 -0.576553
O6    O     O_R   0.688510 0.069040 0.520520 -0.576545
O7    O     O_R   0.362910 0.069020 0.520540 -0.575226
O8    O     O_R   0.637090 0.930980 0.479460 -0.575226
C43   C     C_3   0.512574 0.956596 0.860031 -0.304723
C44   C     C_3   0.636891 0.014152 0.869396 -0.732175
H15   H     H_    0.691399 0.003728 0.821659 0.231068
H16   H     H_    0.631521 0.095281 0.843686 0.262168
H17   H     H_    0.681713 0.987063 0.950739 0.272208
H18   H     H_    0.459224 0.994087 0.784399 0.219135
H19   H     H_    0.463043 0.961679 0.914489 0.251589
C45   C     C_3   0.487306 0.043395 0.139944 -0.304707
C46   C     C_3   0.362963 0.985881 0.130596 -0.732245
H20   H     H_    0.368288 0.904752 0.156238 0.262155
H21   H     H_    0.308517 0.996283 0.178393 0.231069
H22   H     H_    0.318099 0.013026 0.049269 0.272215
H23   H     H_    0.536795 0.038295 0.085468 0.251601
H24   H     H_    0.540664 0.005884 0.215563 0.219164
Br1   Br    Br    0.458327 0.177911 0.902950 -0.641971
Br2   Br    Br    0.541543 0.822090 0.097031 -0.641995
C47   C     C_3   0.760202 0.442948 0.750370 -0.394482
C48   C     C_3   0.784025 0.531418 0.785043 -0.841104
H25   H     H_    0.813035 0.602290 0.722297 0.251564
H26   H     H_    0.704065 0.538831 0.809197 0.256948
H27   H     H_    0.856082 0.517962 0.852476 0.250227
H28   H     H_    0.735360 0.374006 0.817043 0.223126
H29   H     H_    0.845330 0.436581 0.733039 0.204407
C49   C     C_3   0.239805 0.557056 0.249625 -0.394479
C50   C     C_3   0.215991 0.468590 0.214944 -0.841099
H30   H     H_    0.295954 0.461183 0.190792 0.256955
H31   H     H_    0.186980 0.397715 0.277686 0.251562
H32   H     H_    0.143936 0.482049 0.147509 0.250227
H33   H     H_    0.154675 0.563416 0.266958 0.204401
H34   H     H_    0.264644 0.626001 0.182954 0.223147

loop_
_geom_bond_atom_site_label_1
_geom_bond_atom_site_label_2
_ccdc_geom_bond_type
C21   C26   A    
C4    C36   A    
C9    H1    S    
C50   H30   S    
Cu2   O6    S    
C47   H29   S    
C1    C33   S    
C39   C41   A    
C46   H20   S    
C11   C19   A    
C33   C39   A    
C34   C40   A    
C23   C29   S    
C35   C37   A    
C5    C6    A    
C48   H26   S    
Cu2   N1    S    
C40   H5    S    
C7    C9    A    
C16   N2    A    
C23   O7    A    
C27   C47   S    
C16   H9    S    
Cu1   O4    S    
Cu1   O8    S    
C22   C25   A    
C10   H2    S    
C44   H15   S    
C19   C27   A    
C8    H8    S    
C26   H4    S    
C13   H12   S    
C12   H14   S    
C2    C34   S    
C40   C42   A    
C14   H11   S    
C38   C43   S    
C50   H31   S    
C34   C38   A    
C21   C22   A    
C1    O3    A    
C2    O4    A    
C49   H33   S    
C24   C30   S    
C46   H21   S    
Cu2   O3    S    
C49   H34   S    
C15   H10   S    
C45   C46   S    
C45   H24   S    
C35   Br1   S    
C48   H25   S    
C20   C28   A    
Cu2   O2    S    
C47   C48   S    
C33   C37   A    
Cu1   Cu2   S    
C3    C9    A    
C31   C32   S    
C3    C35   A    
Cu1   O5    S    
C12   C20   A    
C44   H17   S    
C43   H18   S    
C28   C49   S    
Cu1   N2    S    
C16   C18   A    
C37   C45   S    
C12   C14   A    
C50   H32   S    
C4    C10   A    
Cu1   O1    S    
C46   H22   S    
C15   C17   A    
C5    C41   A    
C25   H3    S    
C3    C41   A    
C18   C22   A    
C15   N1    A    
C48   H27   S    
C1    O1    A    
C45   H23   S    
C5    C8    A    
C47   H28   S    
C6    C7    A    
C13   N1    A    
C24   O6    A    
C25   C27   A    
C14   N2    A    
C26   C28   A    
C23   O5    A    
C36   C38   A    
C7    H7    S    
C29   C31   T    
C30   C32   T    
C11   C13   A    
C4    C42   A    
C36   Br2   S    
C49   C50   S    
C17   C19   A    
C43   H19   S    
C18   C20   A    
C43   C44   S    
C17   C21   A    
C24   O8    A    
C39   H6    S    
C8    C10   A    
C6    C42   A    
Cu2   O7    S    
C44   H16   S    
C11   H13   S    
C2    O2    A    
