data_mof_unit_7126.cif
_audit_creation_date              2012-12-10T17:53:24-0500
_audit_creation_method            fapswitch 2.2
_symmetry_space_group_name_H-M    P1
_symmetry_Int_Tables_number       1
_space_group_crystal_system       triclinic
_cell_length_a                    22.757334
_cell_length_b                    10.639063
_cell_length_c                    9.91103
_cell_angle_alpha                 91.81527
_cell_angle_beta                  90.281005
_cell_angle_gamma                 92.645256
_cell_volume                      2395.81733497

loop_
_atom_site_label
_atom_site_type_symbol
_atom_type_description
_atom_site_fract_x
_atom_site_fract_y
_atom_site_fract_z
_atom_type_partial_charge
C1    C     C_R   0.503908 0.260039 0.498543 0.852892
C2    C     C_R   0.130909 0.722762 0.583107 0.554368
C3    C     C_R   0.263468 0.706978 0.437968 0.215900
C4    C     C_R   0.388766 0.501849 0.499535 0.842467
C5    C     C_R   0.319683 0.660643 0.446854 -0.201866
C6    C     C_R   0.328402 0.541056 0.497330 -0.076294
C7    C     C_R   0.280257 0.465407 0.541515 0.122356
C8    C     C_R   0.223923 0.511659 0.531028 -0.144533
C9    C     C_R   0.215400 0.631123 0.481083 0.233054
C10   C     C_R   0.773442 0.512336 0.573558 0.424924
C11   C     C_R   0.713873 0.474796 0.575491 -0.281859
C12   C     C_R   0.971264 0.608734 0.242417 -0.166764
C13   C     C_R   0.673621 0.539133 0.500054 -0.154037
C14   C     C_R   0.692319 0.644000 0.426997 -0.258556
C15   C     C_R   0.751196 0.684494 0.427860 0.412909
C16   C     C_R   0.493007 0.738741 0.503169 0.894006
C17   C     C_R   0.792307 0.617524 0.499260 0.126126
C18   C     C_R   0.551100 0.123700 0.725811 -0.200420
C19   C     C_R   0.548880 0.074704 0.853805 -0.190476
C20   C     C_R   0.514226 0.965492 0.878109 0.131497
C21   C     C_R   0.485549 0.900488 0.767247 0.323581
C22   C     C_R   0.495139 0.942675 0.633580 0.001292
C23   C     C_R   0.032116 0.614629 0.238025 -0.134911
C24   C     C_R   0.518648 0.064499 0.618219 0.046877
C25   C     C_R   0.505744 0.125496 0.497674 -0.069797
C26   C     C_R   0.481467 0.058362 0.386079 -0.221262
C27   C     C_R   0.471385 0.930593 0.392349 -0.235259
C28   C     C_R   0.611251 0.503862 0.500217 0.909746
C29   C     C_R   0.481954 0.871113 0.512887 -0.068893
C30   C     C_R   0.423833 0.331609 0.134460 -0.173934
C31   C     C_R   0.386876 0.244973 0.062120 0.182701
C32   C     C_R   0.388146 0.243226 0.921796 -0.237591
C33   C     C_R   0.423570 0.330560 0.854415 -0.157634
C34   C     C_R   0.064925 0.653992 0.352867 0.018016
C35   C     C_R   0.461826 0.417723 0.924770 0.151210
C36   C     C_R   0.462075 0.417560 0.069212 0.114545
C37   C     C_R   0.537745 0.575513 0.076130 -0.124908
C38   C     C_R   0.538971 0.574623 0.933129 0.214575
C39   C     C_R   0.882971 0.707725 0.597215 0.627333
C40   C     C_R   0.881558 0.622540 0.371271 0.603572
C41   C     C_R   0.942160 0.643309 0.361262 -0.001394
C42   C     C_R   0.974340 0.694345 0.474187 -0.038932
C43   C     C_R   0.944659 0.735114 0.591851 -0.118681
C44   C     C_3   0.505178 0.924138 0.022163 -0.396887
C45   C     C_R   0.036331 0.698835 0.470171 -0.068904
C46   C     C_3   0.560320 0.944039 0.111672 -0.882669
C47   C     C_3   0.345950 0.154980 0.135271 -0.442566
C48   C     C_3   0.298032 0.225031 0.209551 -0.812928
C49   C     C_3   0.586838 0.655198 0.869782 -0.406417
C50   C     C_3   0.646645 0.597171 0.883780 -0.774911
C51   C     C_3   0.948887 0.870297 0.813671 -0.295764
C52   C     C_3   0.940719 0.791076 0.939021 -0.675290
C53   C     C_3   0.256109 0.836200 0.382526 -0.421631
C54   C     C_3   0.269546 0.837414 0.231741 -0.774693
C55   C     C_3   0.286484 0.334596 0.593870 -0.457640
C56   C     C_R   0.069624 0.741453 0.584678 -0.142484
C57   C     C_3   0.267646 0.327961 0.741325 -0.756052
C58   C     C_R   0.040426 0.797296 0.696287 0.400052
C59   C     C_R   0.978013 0.797384 0.699139 0.054725
C60   C     C_R   0.125602 0.641882 0.355723 0.516710
Cl1   Cl    Cl    0.772591 0.819228 0.338417 -0.561404
Cl2   Cl    Cl    0.425778 0.792706 0.799194 -0.633652
Cl3   Cl    Cl    0.081048 0.871989 0.832725 -0.555894
Cl4   Cl    Cl    0.823864 0.423784 0.660880 -0.548674
H1    H     H_    0.947201 0.572476 0.153845 0.199341
H2    H     H_    0.421931 0.328425 0.241519 0.207414
H3    H     H_    0.360951 0.174979 0.863689 0.166090
H4    H     H_    0.419729 0.326410 0.747336 0.210501
H5    H     H_    0.357181 0.718595 0.414564 0.151206
H6    H     H_    0.185868 0.454183 0.560498 0.152281
H7    H     H_    0.600895 0.923146 0.055338 0.271449
H8    H     H_    0.564348 0.042844 0.151379 0.268256
H9    H     H_    0.557284 0.881075 0.198712 0.266972
H10   H     H_    0.468867 0.977114 0.067613 0.214252
H11   H     H_    0.491738 0.822639 0.023016 0.243042
H12   H     H_    0.699222 0.394237 0.632746 0.183010
H13   H     H_    0.317594 0.292092 0.287251 0.245887
H14   H     H_    0.271909 0.277510 0.136984 0.283293
H15   H     H_    0.268110 0.156737 0.260904 0.247058
H16   H     H_    0.324487 0.084834 0.063127 0.228069
H17   H     H_    0.371349 0.102010 0.208641 0.199173
H18   H     H_    0.644828 0.498805 0.842534 0.265896
H19   H     H_    0.680244 0.653095 0.827456 0.270939
H20   H     H_    0.660248 0.597192 0.991566 0.262365
H21   H     H_    0.578115 0.672325 0.763546 0.266356
H22   H     H_    0.589186 0.749490 0.919806 0.197462
H23   H     H_    0.660831 0.695826 0.371134 0.181355
H24   H     H_    0.916218 0.844306 0.016877 0.259268
H25   H     H_    0.915833 0.701078 0.914490 0.290968
H26   H     H_    0.984012 0.769129 0.982115 0.259552
H27   H     H_    0.975337 0.957532 0.841635 0.231455
H28   H     H_    0.906726 0.908271 0.781612 0.245380
H29   H     H_    0.316810 0.821709 0.213601 0.245829
H30   H     H_    0.242297 0.763313 0.176246 0.311127
H31   H     H_    0.259204 0.930012 0.191601 0.252247
H32   H     H_    0.210765 0.867863 0.397925 0.222693
H33   H     H_    0.286227 0.905777 0.437244 0.212687
H34   H     H_    0.470865 0.104291 0.293746 0.161615
H35   H     H_    0.296456 0.392353 0.805732 0.277379
H36   H     H_    0.221312 0.354207 0.753900 0.264467
H37   H     H_    0.270752 0.230201 0.775426 0.244867
H38   H     H_    0.258383 0.266659 0.531772 0.218411
H39   H     H_    0.332252 0.303681 0.585347 0.187225
H40   H     H_    0.577333 0.209871 0.712469 0.175665
H41   H     H_    0.571815 0.126984 0.934986 0.178951
H42   H     H_    0.456927 0.877644 0.302096 0.172375
H43   H     H_    0.568403 0.636533 0.134420 0.159044
H44   H     H_    0.053273 0.582658 0.146302 0.202947
N1    N     N_R   0.853737 0.651408 0.488860 -0.324203
N2    N     N_R   0.156512 0.671180 0.471235 -0.366280
N3    N     N_R   0.499460 0.498800 0.142780 -0.127078
N4    N     N_R   0.499440 0.498720 0.857170 -0.115122
O1    O     O_R   0.500000 0.316780 0.614690 -0.644896
O2    O     O_R   0.583850 0.500050 0.614640 -0.629597
O3    O     O_R   0.583840 0.500030 0.385310 -0.599580
O4    O     O_2   0.852248 0.731161 0.710276 -0.541385
O5    O     O_2   0.850600 0.569862 0.265687 -0.517180
O6    O     O_2   0.153351 0.595559 0.246127 -0.550405
O7    O     O_2   0.164769 0.750269 0.692945 -0.465099
O8    O     O_R   0.500000 0.316750 0.385360 -0.637433
O9    O     O_R   0.416160 0.499970 0.614690 -0.579638
O10   O     O_R   0.416150 0.499950 0.385360 -0.634172
O11   O     O_R   0.500000 0.683250 0.614640 -0.594479
O12   O     O_R   0.500000 0.683220 0.385310 -0.629961
Zn1   Zn    Zn3+2 0.500000 0.500020 0.653130 0.959251
Zn2   Zn    Zn3+2 0.500000 0.499980 0.346870 0.932469

loop_
_geom_bond_atom_site_label_1
_geom_bond_atom_site_label_2
_ccdc_geom_bond_type
C34   C60   A    
C22   C29   A    
C27   C29   A    
N4    Zn1   S    
C3    C53   S    
C41   C42   A    
C52   H26   S    
C35   C36   A    
C7    C55   S    
C50   H20   S    
C7    C8    A    
C38   C49   S    
C53   C54   S    
C12   C23   A    
C26   C27   A    
C37   C38   A    
O3    Zn2   S    
C18   C24   A    
C48   H15   S    
C16   O11   A    
C14   H23   S    
C37   H43   S    
C11   H12   S    
C30   C31   A    
O8    Zn2   S    
O11   Zn1   S    
O1    Zn1   S    
C10   C17   A    
C57   H35   S    
C55   H39   S    
C9    N2    S    
C18   C19   A    
C48   H14   S    
C54   H29   S    
C5    H5    S    
C51   H27   S    
C19   C20   A    
C45   C56   A    
C8    C9    A    
C13   C28   S    
C60   O6    S    
C46   H8    S    
C43   C59   A    
C40   O5    S    
C31   C47   S    
C21   C22   A    
C53   H32   S    
C1    C25   S    
C52   H25   S    
C1    O1    A    
C47   H16   S    
N3    Zn2   S    
C20   C44   S    
C44   C46   S    
C50   H19   S    
C15   Cl1   S    
C54   H30   S    
C51   C52   S    
C49   H21   S    
C52   H24   S    
C24   C25   A    
C4    C6    S    
O2    Zn1   S    
C39   C43   A    
C27   H42   S    
C53   H33   S    
C25   C26   A    
C57   H36   S    
C42   C45   A    
C48   H13   S    
O10   Zn2   S    
C44   H11   S    
O9    Zn1   S    
C12   C41   A    
C3    C9    A    
C28   O3    A    
C51   H28   S    
C47   C48   S    
C55   H38   S    
C23   C34   A    
C36   N3    A    
C46   H7    S    
C40   N1    A    
C4    O10   A    
C34   C45   A    
C18   H40   S    
C44   H10   S    
C54   H31   S    
C30   H2    S    
C28   O2    A    
C26   H34   S    
C32   H3    S    
C19   H41   S    
C40   C41   A    
C39   O4    S    
C55   C57   S    
C22   C24   A    
C51   C59   S    
C42   C43   A    
C38   N4    A    
C50   H18   S    
O12   Zn2   S    
C58   Cl3   S    
C15   C17   A    
C2    N2    A    
C49   H22   S    
C31   C32   A    
C10   Cl4   S    
C3    C5    A    
C17   N1    S    
C2    O7    S    
C6    C7    A    
C57   H37   S    
C12   H1    S    
C8    H6    S    
C30   C36   A    
C32   C33   A    
C58   C59   A    
C2    C56   A    
C11   C13   A    
C5    C6    A    
C23   H44   S    
C33   C35   A    
C56   C58   A    
C4    O9    A    
C47   H17   S    
C16   O12   A    
C37   N3    A    
C60   N2    A    
C10   C11   A    
C39   N1    A    
C20   C21   A    
C16   C29   S    
C49   C50   S    
C14   C15   A    
C21   Cl2   S    
C13   C14   A    
C1    O8    A    
C46   H9    S    
C35   N4    A    
C33   H4    S    
