data_mof_unit_53796.cif
_audit_creation_date              2013-03-05T16:11:52-0500
_audit_creation_method            fapswitch 2.2
_symmetry_space_group_name_H-M    P1
_symmetry_Int_Tables_number       1
_space_group_crystal_system       triclinic
_cell_length_a                    10.788615
_cell_length_b                    9.604047
_cell_length_c                    23.47328
_cell_angle_alpha                 90.215443
_cell_angle_beta                  89.548941
_cell_angle_gamma                 90.328248
_cell_volume                      2432.03694924

loop_
_atom_site_label
_atom_site_type_symbol
_atom_site_description
_atom_site_fract_x
_atom_site_fract_y
_atom_site_fract_z
_atom_type_partial_charge
O1    O     O_R   0.317570 0.620260 0.500030 -0.611233
O2    O     O_R   0.317570 0.379740 0.500030 -0.605885
C1    C     C_R   0.260588 0.499808 0.500269 0.764257
O3    O     O_R   0.499840 0.620290 0.417900 -0.572919
O4    O     O_R   0.499840 0.379710 0.417900 -0.570417
C2    C     C_R   0.497380 0.499893 0.391219 0.819537
Cu1   Cu    Cu3+1 0.499860 0.642410 0.500030 0.996070
Cu2   Cu    Cu3+1 0.499860 0.357590 0.500030 0.989682
O5    O     O_R   0.682190 0.620260 0.500010 -0.558114
O6    O     O_R   0.682190 0.379740 0.500010 -0.564727
O7    O     O_R   0.499920 0.620230 0.582140 -0.533445
O8    O     O_R   0.499920 0.379770 0.582140 -0.543694
C3    C     C_R   0.739708 0.500796 0.501899 0.880275
C4    C     C_R   0.496305 0.500121 0.608649 0.868083
C5    C     C_R   0.572510 0.565958 0.878951 0.590789
N1    N     N_R   0.470316 0.515130 0.851332 -0.476284
C6    C     C_R   0.369038 0.466316 0.880552 0.566955
C7    C     C_R   0.368120 0.466012 0.940220 -0.003508
C8    C     C_R   0.474317 0.512642 0.969567 -0.050478
C9    C     C_R   0.579671 0.560609 0.938947 -0.140378
C10   C     C_R   0.264158 0.418361 0.971031 -0.113733
C11   C     C_R   0.265059 0.416637 0.030370 -0.140149
C12   C     C_R   0.370017 0.462309 0.060200 -0.007239
C13   C     C_R   0.474818 0.510738 0.029745 -0.010938
C14   C     C_R   0.580036 0.556891 0.059457 -0.078318
C15   C     C_R   0.684617 0.603093 0.029105 -0.198769
C16   C     C_R   0.686769 0.603127 0.969516 0.339339
C17   C     C_R   0.373047 0.460830 0.119965 0.542643
N2    N     N_R   0.476593 0.505767 0.148093 -0.471167
C18   C     C_R   0.579032 0.553248 0.119193 0.571062
O9    O     O_2   0.665159 0.623930 0.848115 -0.422129
O10   O     O_2   0.270086 0.416838 0.851878 -0.485976
H1    H     H_    0.181677 0.382077 0.949396 0.212298
H2    H     H_    0.183348 0.379121 0.052746 0.200439
O11   O     O_2   0.273192 0.415869 0.149759 -0.522921
O12   O     O_2   0.680048 0.595554 0.148242 -0.511430
H3    H     H_    0.767228 0.635745 0.051601 0.218797
C19   C     C_R   0.479824 0.376645 0.238258 -0.088571
H4    H     H_    0.477677 0.279309 0.214817 0.152051
C20   C     C_R   0.485591 0.374948 0.297599 -0.193456
H5    H     H_    0.486138 0.275440 0.319087 0.176612
C21   C     C_R   0.490609 0.500540 0.328525 -0.043521
C22   C     C_R   0.486957 0.627614 0.298963 -0.190581
H6    H     H_    0.488652 0.726218 0.321442 0.175553
C23   C     C_R   0.481014 0.629017 0.239736 -0.089944
H7    H     H_    0.479043 0.727587 0.217484 0.150955
C24   C     C_R   0.478177 0.503691 0.209152 0.338446
C25   C     C_R   0.390523 0.587163 0.757842 -0.023485
H8    H     H_    0.322612 0.652956 0.778661 0.177923
C26   C     C_R   0.397163 0.582719 0.698422 -0.144303
H9    H     H_    0.332004 0.642656 0.673807 0.175526
C27   C     C_R   0.486838 0.500594 0.671005 -0.048132
C28   C     C_R   0.565800 0.418011 0.703634 -0.025562
H10   H     H_    0.633222 0.350672 0.683700 0.245707
C29   C     C_R   0.558882 0.421779 0.762807 -0.071959
H11   H     H_    0.621378 0.358553 0.787504 0.179268
C30   C     C_R   0.472493 0.507715 0.790245 0.283458
C31   C     C_3   0.076078 0.650025 0.513379 -0.404845
C32   C     C_3   0.073228 0.402233 0.549061 -0.402273
H12   H     H_    0.103416 0.719777 0.477510 0.157907
H13   H     H_    0.116039 0.297369 0.545413 0.169693
H14   H     H_    0.121472 0.693306 0.552123 0.205514
H15   H     H_    0.099575 0.445060 0.591419 0.215529
C33   C     C_3   0.934312 0.650828 0.519916 0.182262
C34   C     C_3   0.930731 0.385562 0.544582 0.217330
H16   H     H_    0.899485 0.725496 0.487775 0.131025
H17   H     H_    0.912384 0.283268 0.523561 0.121682
H18   H     H_    0.111739 0.516740 0.408340 0.182180
H19   H     H_    0.096789 0.342522 0.435136 0.189995
H20   H     H_    0.901220 0.550325 0.413110 0.214819
H21   H     H_    0.887902 0.368940 0.427626 0.223646
C35   C     C_3   0.071128 0.452936 0.443386 -0.393574
C36   C     C_3   0.123076 0.500473 0.501517 0.037719
C37   C     C_3   0.878693 0.502438 0.504621 -0.088166
C38   C     C_3   0.928414 0.467546 0.443552 -0.500695
C39   C     C_3   0.623193 0.083669 0.483165 0.110355
C40   C     C_3   0.624105 0.917841 0.484564 0.103318
H22   H     H_    0.697045 0.121034 0.511672 0.176464
H23   H     H_    0.694196 0.887255 0.515750 0.195034
C41   C     C_3   0.462220 0.083059 0.557810 0.213057
C42   C     C_3   0.458072 0.918710 0.557356 0.193438
C43   C     C_3   0.409608 0.082100 0.459997 -0.308810
C44   C     C_3   0.412264 0.915909 0.458797 -0.301903
N3    N     N_3   0.500250 0.143650 0.501250 -0.218111
N4    N     N_3   0.500250 0.856350 0.501250 -0.214549
H24   H     H_    0.314051 0.116856 0.470771 0.155301
H25   H     H_    0.316965 0.875489 0.466771 0.158368
H26   H     H_    0.427286 0.122025 0.416375 0.207727
H27   H     H_    0.436330 0.880282 0.415070 0.206191
H28   H     H_    0.365308 0.118085 0.566396 0.091044
H29   H     H_    0.358772 0.888163 0.563282 0.077882
N5    N     N_R   0.901655 0.706248 0.576463 0.174213
O13   O     O_R   0.873581 0.837469 0.579868 -0.299536
O14   O     O_R   0.945455 0.648229 0.622018 -0.271209
N6    N     N_R   0.873530 0.376878 0.601457 0.168449
O15   O     O_R   0.778442 0.452150 0.615640 -0.345662
O16   O     O_R   0.910032 0.280936 0.636434 -0.271176
I1    I     I_    0.694387 0.171122 0.402943 -0.365913
I2    I     I_    0.705680 0.823684 0.407119 -0.357189
N7    N     N_R   0.535211 0.134112 0.606484 0.169129
O17   O     O_R   0.655658 0.130737 0.606788 -0.292653
O18   O     O_R   0.477371 0.155307 0.654605 -0.326673
N8    N     N_R   0.521034 0.865175 0.608076 0.177590
O19   O     O_R   0.639234 0.841432 0.608777 -0.232875
O20   O     O_R   0.460926 0.864070 0.656341 -0.319594
N9    N     N_R   0.800963 0.639284 0.941440 0.168290
O21   O     O_R   0.858833 0.545791 0.911226 -0.274480
O22   O     O_R   0.860058 0.751967 0.956351 -0.307626

loop_
_geom_bond_atom_site_label_1
_geom_bond_atom_site_label_2
_geom_bond_distance
_ccdc_geom_bond_type
C31   H14   1.114251 S    
C44   H25   1.111641 S    
C29   H11   1.083004 S    
C7    C10   1.405116 A    
C8    C9    1.415760 A    
C41   N3    1.504700 S    
C39   N3    1.506453 S    
Cu1   Cu2   2.735424 S    
Cu1   N4    2.054762 S    
C28   H10   1.078925 S    
Cu1   O7    1.939926 S    
C15   C16   1.398772 A    
N2    C24   1.433727 S    
C17   N2    1.368972 A    
C19   C20   1.394962 A    
C39   H22   1.102114 S    
O3    Cu1   1.938740 S    
C19   H4    1.083167 S    
O7    C4    1.312958 A    
C10   H1    1.083240 S    
N9    O21   1.301426 A    
C39   I1    2.196171 S    
C5    N1    1.369998 A    
C7    C8    1.411393 A    
C23   C24   1.399455 A    
O5    C3    1.308582 A    
N7    O17   1.300128 A    
C4    C27   1.466439 S    
N6    O15   1.298898 A    
C17   O11   1.349524 S    
N1    C6    1.367067 A    
C34   H17   1.115120 S    
C26   C27   1.402639 A    
C12   C13   1.410516 A    
C40   I2    2.206479 S    
C32   C36   1.554854 S    
H18   C35   1.113210 S    
C20   C21   1.406447 A    
C40   N4    1.507363 S    
Cu2   N3    2.055026 S    
C10   C11   1.393148 A    
C41   N7    1.473569 S    
C35   C38   1.546836 S    
C44   H27   1.110044 S    
N5    O14   1.301039 A    
C26   H9    1.083003 S    
C28   C29   1.390738 A    
C31   C33   1.535987 S    
C5    C9    1.412164 A    
C11   H2    1.083190 S    
C32   H13   1.113106 S    
C37   C38   1.562442 S    
C25   C30   1.401948 A    
C13   C14   1.405655 A    
O3    C2    1.313181 A    
C41   C42   1.578797 S    
C16   N9    1.434138 S    
C14   C15   1.400542 A    
C43   H24   1.112385 S    
C34   C37   1.574318 S    
O1    C1    1.306924 A    
C33   H16   1.111860 S    
H19   C35   1.113379 S    
C22   H6    1.082476 S    
N2    C18   1.369037 A    
Cu2   O8    1.938333 S    
N7    O18   1.302058 A    
C6    C7    1.400554 A    
C40   H23   1.098577 S    
N8    O20   1.301011 A    
C12   C17   1.403648 A    
C39   C40   1.593164 S    
C22   C23   1.392344 A    
C19   C24   1.400917 A    
C25   H8    1.082711 S    
C44   N4    1.498901 S    
O8    C4    1.311286 A    
C43   N3    1.499133 S    
C29   C30   1.400004 A    
C21   C22   1.407084 A    
C33   N5    1.469276 S    
H20   C38   1.113100 S    
C27   C28   1.401423 A    
C42   N8    1.471244 S    
C14   C18   1.402727 A    
Cu1   O5    1.979766 S    
C20   H5    1.082358 S    
O1    Cu1   1.976915 S    
O2    Cu2   1.979339 S    
C35   C36   1.545616 S    
O6    C3    1.315494 A    
O4    Cu2   1.940328 S    
N6    O16   1.301201 A    
C15   H3    1.083731 S    
C5    O9    1.348430 S    
C9    C16   1.422008 A    
C32   H15   1.112914 S    
C18   O12   1.349925 S    
C8    C13   1.412799 A    
C32   C34   1.549093 S    
H21   C38   1.105798 S    
O4    C2    1.315775 A    
N9    O22   1.301122 A    
C43   H26   1.109461 S    
C25   C26   1.396557 A    
N5    O13   1.299840 A    
O2    C1    1.309856 A    
N1    C30   1.435431 S    
C41   H28   1.116753 S    
C1    C36   1.483671 S    
C42   H29   1.116916 S    
C23   H7    1.083322 S    
C34   N6    1.468820 S    
C3    C37   1.501309 S    
Cu2   O6    1.977343 S    
C43   C44   1.596664 S    
C2    C21   1.474061 S    
N8    O19   1.296970 A    
C6    O10   1.349669 S    
C33   C37   1.584224 S    
C11   C12   1.403353 A    
C31   H12   1.114783 S    
C42   N4    1.512599 S    
C31   C36   1.549421 S    
