data_mof_unit_9074.cif
_audit_creation_date              2012-12-11T16:09:02-0500
_audit_creation_method            fapswitch 2.2
_symmetry_space_group_name_H-M    P1
_symmetry_Int_Tables_number       1
_space_group_crystal_system       triclinic
_cell_length_a                    12.93704
_cell_length_b                    13.246909
_cell_length_c                    27.657707
_cell_angle_alpha                 94.881147
_cell_angle_beta                  90.453767
_cell_angle_gamma                 118.895743
_cell_volume                      4128.16320014

loop_
_atom_site_label
_atom_site_type_symbol
_atom_type_description
_atom_site_fract_x
_atom_site_fract_y
_atom_site_fract_z
_atom_type_partial_charge
C1    C     C_R   0.629077 0.894196 0.428047 0.542322
C2    C     C_R   0.089648 0.714796 0.311287 0.005340
C3    C     C_3   0.863111 0.131042 0.914408 -0.450900
C4    C     C_3   0.454667 0.277050 0.879362 -0.245667
C5    C     C_3   0.439743 0.176176 0.907676 -0.301770
C6    C     C_3   0.316584 0.113661 0.927161 -0.447008
C7    C     C_3   0.432943 0.425232 0.804476 -0.410812
C8    C     C_3   0.038799 0.625133 0.685258 -0.252660
C9    C     C_3   0.123329 0.578990 0.670010 -0.291349
C10   C     C_3   0.062673 0.472222 0.633172 -0.449225
C11   C     C_3   0.900217 0.916566 0.800864 -0.253492
C12   C     C_3   0.965826 0.048448 0.798737 -0.299636
C13   C     C_R   0.026961 0.676617 0.211711 0.013095
C14   C     C_3   0.083051 0.107109 0.828748 -0.461770
C15   C     C_R   0.601091 0.222454 0.440700 0.547466
C16   C     C_R   0.011404 0.584048 0.237360 -0.128913
C17   C     C_R   0.043394 0.603192 0.286863 -0.134025
C18   C     C_R   0.005839 0.660815 0.161388 -0.140525
C19   C     C_R   0.025564 0.754972 0.135905 -0.003532
C20   C     C_R   0.176172 0.938017 0.361255 -0.019060
C21   C     C_R   0.141437 0.919294 0.311380 0.031113
C22   C     C_R   0.098141 0.807086 0.286630 0.050467
C23   C     C_R   0.671439 0.433218 0.239211 -0.099169
C24   C     C_R   0.156616 0.011235 0.284696 -0.133822
C25   C     C_R   0.128782 0.992360 0.235063 -0.137925
C26   C     C_R   0.084677 0.881601 0.210877 0.014893
C27   C     C_R   0.265984 0.875739 0.426380 0.548861
C28   C     C_R   0.068264 0.788060 0.236547 0.063923
C29   C     C_R   0.061469 0.864186 0.160933 -0.127985
C30   C     C_R   0.188035 0.849811 0.382660 0.003312
C31   C     C_R   0.766502 0.917011 0.361122 -0.009228
C32   C     C_R   0.770660 0.909786 0.310058 0.026412
C33   C     C_R   0.770035 0.905566 0.208789 0.009738
C34   C     C_R   0.662860 0.417129 0.288641 -0.103789
C35   C     C_R   0.868785 0.988082 0.237360 -0.137433
C36   C     C_R   0.871495 0.986423 0.287202 -0.127161
C37   C     C_R   0.773933 0.901777 0.158989 -0.130606
C38   C     C_R   0.687739 0.806216 0.129544 -0.004172
C39   C     C_R   0.627544 0.898639 0.564762 0.543455
C40   C     C_R   0.559994 0.763713 0.352345 -0.151071
C41   C     C_R   0.566645 0.749688 0.302308 -0.014061
C42   C     C_R   0.669134 0.827031 0.280835 0.040000
C43   C     C_R   0.468722 0.664481 0.273491 -0.111708
C44   C     C_R   0.470242 0.653743 0.222368 0.000950
C45   C     C_R   0.680152 0.329772 0.305928 0.034452
C46   C     C_R   0.573487 0.733117 0.200416 0.010274
C47   C     C_R   0.670495 0.821696 0.230023 0.048541
C48   C     C_R   0.585510 0.724518 0.149765 -0.142730
C49   C     C_R   0.655227 0.852896 0.381204 -0.005557
C50   C     C_R   0.730748 0.275243 0.654422 -0.140608
C51   C     C_R   0.602753 0.225953 0.579069 0.546794
C52   C     C_R   0.743373 0.295412 0.705129 0.009631
C53   C     C_R   0.753689 0.315268 0.807854 0.021204
C54   C     C_R   0.833719 0.291384 0.781452 -0.136286
C55   C     C_R   0.827590 0.280380 0.730824 -0.144073
C56   C     C_R   0.696666 0.361655 0.206778 0.032330
C57   C     C_R   0.758766 0.328039 0.859526 -0.020566
C58   C     C_R   0.677988 0.356423 0.882893 0.000521
C59   C     C_R   0.570319 0.320732 0.654035 -0.134893
C60   C     C_R   0.580470 0.338907 0.704654 -0.003708
C61   C     C_R   0.665335 0.323632 0.730568 0.053823
C62   C     C_R   0.503587 0.367726 0.729577 -0.119193
C63   C     C_R   0.272163 0.879773 0.563504 0.544463
C64   C     C_R   0.504475 0.374839 0.780250 -0.000647
C65   C     C_R   0.580898 0.346818 0.806411 0.023925
C66   C     C_R   0.668201 0.330921 0.781724 0.017274
C67   C     C_1   0.701975 0.377689 0.155848 -0.069265
C68   C     C_R   0.574447 0.335067 0.856463 -0.003890
C69   C     C_R   0.640310 0.282101 0.628939 -0.006340
C70   C     C_1   0.225768 0.864305 0.610738 -0.022995
C71   C     C_R   0.102453 0.734362 0.719897 0.011921
C72   C     C_R   0.088873 0.727373 0.770028 -0.103413
C73   C     C_R   0.231395 0.931296 0.786715 -0.127696
C74   C     C_R   0.243232 0.940303 0.736894 -0.123122
C75   C     C_1   0.635467 0.273187 0.395740 -0.026623
C76   C     C_R   0.178754 0.842830 0.703297 0.040451
C77   C     C_R   0.152962 0.825309 0.803289 0.017392
C78   C     C_1   0.658778 0.303950 0.355579 -0.067279
C79   C     C_1   0.132828 0.815758 0.854134 -0.070127
C80   C     C_1   0.199789 0.854215 0.652440 -0.069166
C81   C     C_1   0.105482 0.799063 0.895393 -0.027786
C82   C     C_1   0.644490 0.863518 0.610254 -0.018393
C83   C     C_R   0.769192 0.865913 0.725378 -0.094576
C84   C     C_R   0.777756 0.862089 0.775783 0.016934
C85   C     C_R   0.562106 0.762230 0.775690 -0.123773
C86   C     C_R   0.555508 0.768758 0.725767 -0.113457
C87   C     C_R   0.708286 0.260076 0.273683 -0.109558
C88   C     C_R   0.659023 0.820916 0.700650 0.024059
C89   C     C_1   0.707280 0.399718 0.114236 -0.026708
C90   C     C_R   0.672225 0.809249 0.801067 0.043952
C91   C     C_1   0.675211 0.798694 0.852404 -0.074589
C92   C     C_1   0.652673 0.840433 0.650740 -0.063879
C93   C     C_1   0.686524 0.788920 0.894726 -0.034671
C94   C     C_R   0.004642 0.737849 0.083301 0.571729
C95   C     C_R   0.717601 0.441683 0.067443 0.531715
C96   C     C_R   0.720918 0.782963 0.081136 0.538612
C97   C     C_R   0.057551 0.766644 0.941583 0.555866
C98   C     C_R   0.707887 0.428917 0.930128 0.536557
C99   C     C_R   0.716734 0.276088 0.224212 -0.115731
C100  C     C_R   0.136495 0.737331 0.358785 -0.149738
C101  C     C_R   0.716361 0.776142 0.942895 0.545672
C102  C     C_3   0.201049 0.050219 0.390830 -0.379041
C103  C     C_3   0.879005 0.986704 0.394023 -0.233704
C104  C     C_3   0.922599 0.118642 0.400041 -0.268648
C105  C     C_3   0.989395 0.175129 0.449120 -0.434155
C106  C     C_3   0.363162 0.561476 0.190866 -0.253316
C107  C     C_3   0.251707 0.488162 0.217878 -0.304750
C108  C     C_3   0.148925 0.404149 0.182444 -0.457470
C109  C     C_3   0.836311 0.295956 0.889292 -0.251135
C110  C     C_3   0.784394 0.163888 0.885739 -0.315837
Cr1   Cr    Cr6+3 0.416430 0.829200 0.492370 1.012775
Cr2   Cr    Cr6+3 0.674630 0.087020 0.504170 0.994603
Cr3   Cr    Cr6+3 0.408920 0.083740 0.503490 1.004740
Cr4   Cr    Cr6+3 0.914010 0.832750 0.013970 1.001729
Cr5   Cr    Cr6+3 0.922310 0.578600 0.003000 1.000060
Cr6   Cr    Cr6+3 0.656280 0.574630 0.003870 1.003829
H1    H     H_    0.721069 0.191688 0.286610 0.114523
H2    H     H_    0.476719 0.710769 0.368269 0.130935
H3    H     H_    0.785032 0.245040 0.635282 0.126837
H4    H     H_    0.901389 0.279950 0.799263 0.107424
H5    H     H_    0.888113 0.258563 0.711740 0.102699
H6    H     H_    0.442540 0.385177 0.709480 0.108159
H7    H     H_    0.501267 0.327554 0.634513 0.127265
H8    H     H_    0.656678 0.500344 0.226155 0.119267
H9    H     H_    0.029296 0.645098 0.783269 0.113741
H10   H     H_    0.282631 0.007062 0.812181 0.107832
H11   H     H_    0.304136 0.023194 0.724547 0.120572
H12   H     H_    0.144294 0.065309 0.215356 0.098340
H13   H     H_    0.848772 0.906719 0.705515 0.105685
H14   H     H_    0.481114 0.721362 0.794643 0.107669
H15   H     H_    0.469741 0.735017 0.706914 0.111126
H16   H     H_    0.640287 0.470983 0.313096 0.111657
H17   H     H_    0.975472 0.575856 0.141942 0.123341
H18   H     H_    0.139027 0.668184 0.376220 0.125981
H19   H     H_    0.978505 0.497885 0.218836 0.116053
H20   H     H_    0.035624 0.531542 0.305683 0.106350
H21   H     H_    0.074883 0.936956 0.141513 0.128847
H22   H     H_    0.168074 0.032901 0.427794 0.139081
H23   H     H_    0.195861 0.099804 0.300901 0.108497
H24   H     H_    0.297157 0.112851 0.392784 0.171773
H25   H     H_    0.152661 0.091252 0.375752 0.093498
H26   H     H_    0.930416 0.139011 0.479302 0.175742
H27   H     H_    0.066433 0.160382 0.453033 0.134120
H28   H     H_    0.021895 0.269937 0.451700 0.129690
H29   H     H_    0.983805 0.162408 0.371593 0.124691
H30   H     H_    0.847649 0.136705 0.396481 0.199484
H31   H     H_    0.864265 0.952121 0.430066 0.155423
H32   H     H_    0.949554 0.969885 0.379612 0.127557
H33   H     H_    0.125703 0.452594 0.157546 0.156358
H34   H     H_    0.852360 0.967141 0.143731 0.130497
H35   H     H_    0.172594 0.344488 0.160767 0.151461
H36   H     H_    0.070336 0.351838 0.203034 0.133576
H37   H     H_    0.270256 0.436941 0.243008 0.153292
H38   H     H_    0.224559 0.545784 0.239056 0.171545
H39   H     H_    0.339107 0.605810 0.164088 0.151764
H40   H     H_    0.389276 0.501868 0.170637 0.141660
H41   H     H_    0.954948 0.175769 0.902446 0.149705
H42   H     H_    0.863937 0.155596 0.953879 0.153522
H43   H     H_    0.828849 0.036186 0.908326 0.172104
H44   H     H_    0.695237 0.124171 0.900727 0.161510
H45   H     H_    0.946064 0.051687 0.220933 0.098781
H46   H     H_    0.773503 0.127188 0.847333 0.168248
H47   H     H_    0.928559 0.339689 0.877687 0.135856
H48   H     H_    0.841967 0.323913 0.928422 0.170189
H49   H     H_    0.300178 0.174851 0.951584 0.153707
H50   H     H_    0.248182 0.075316 0.896735 0.148033
H51   H     H_    0.309416 0.042775 0.948045 0.153299
H52   H     H_    0.453973 0.113093 0.883436 0.158229
H53   H     H_    0.505832 0.208927 0.938965 0.170317
H54   H     H_    0.441717 0.340839 0.903483 0.169909
H55   H     H_    0.382210 0.239455 0.850514 0.138083
H56   H     H_    0.952609 0.047966 0.307002 0.110470
H57   H     H_    0.438070 0.496732 0.784532 0.132081
H58   H     H_    0.338748 0.357585 0.804237 0.112506
H59   H     H_    0.467780 0.464069 0.842110 0.144961
H60   H     H_    0.988045 0.401005 0.649574 0.147456
H61   H     H_    0.029248 0.492770 0.600352 0.158735
H62   H     H_    0.126844 0.442725 0.622080 0.139798
H63   H     H_    0.201542 0.646513 0.653516 0.177115
H64   H     H_    0.155030 0.555801 0.702579 0.156330
H65   H     H_    0.962961 0.557035 0.702803 0.146465
H66   H     H_    0.001413 0.643163 0.652842 0.148572
H67   H     H_    0.519379 0.652343 0.126070 0.117948
H68   H     H_    0.069380 0.084012 0.866715 0.153556
H69   H     H_    0.145058 0.080565 0.812343 0.156745
H70   H     H_    0.123150 0.202639 0.829325 0.131196
H71   H     H_    0.983740 0.068883 0.760548 0.154963
H72   H     H_    0.909993 0.085349 0.812777 0.166354
H73   H     H_    0.896111 0.898055 0.839384 0.160386
H74   H     H_    0.951240 0.878232 0.782529 0.154079
H75   H     H_    0.391425 0.607144 0.291659 0.101980
H76   H     H_    0.737206 0.220919 0.199570 0.109620
O1    O     O_R   0.296680 0.802170 0.437540 -0.521691
O2    O     O_R   0.637200 0.461990 0.052510 -0.508660
O3    O     O_R   0.664790 0.681920 0.057970 -0.500769
O4    O     O_R   0.525380 0.838530 0.443500 -0.502611
O5    O     O_R   0.815840 0.852920 0.961840 -0.518565
O6    O     O_R   0.012100 0.822630 0.963670 -0.492840
O7    O     O_R   0.037010 0.668460 0.953040 -0.502731
O8    O     O_R   0.813390 0.478970 0.949660 -0.506286
O9    O     O_R   0.632250 0.456930 0.945520 -0.518052
O10   O     O_R   0.660200 0.677230 0.958780 -0.489101
O11   O     O_3   0.830870 0.661990 0.006950 -0.257581
O12   O     O_R   0.662610 0.183990 0.557860 -0.503642
O13   O     O_R   0.702130 0.995190 0.446810 -0.521734
O14   O     O_R   0.661770 0.181390 0.458760 -0.497319
O15   O     O_R   0.499820 0.198480 0.455280 -0.518809
O16   O     O_R   0.311660 0.976250 0.449080 -0.505282
O17   O     O_R   0.297580 0.804960 0.544440 -0.512486
O18   O     O_R   0.526220 0.841130 0.542590 -0.494340
O19   O     O_R   0.703030 0.997990 0.553710 -0.520940
O20   O     O_R   0.500730 0.201280 0.562180 -0.516679
O21   O     O_R   0.312500 0.978850 0.548170 -0.496266
O22   O     O_3   0.499990 0.999990 0.500010 -0.233035
O23   O     O_R   0.820790 0.857990 0.068830 -0.534248
O24   O     O_R   0.016700 0.827330 0.062850 -0.506895
O25   O     O_R   0.041970 0.673520 0.060040 -0.512332
O26   O     O_R   0.817980 0.483660 0.048840 -0.523531

loop_
_geom_bond_atom_site_label_1
_geom_bond_atom_site_label_2
_ccdc_geom_bond_type
C8    H65   S    
C40   H2    S    
C55   H5    S    
C41   C42   A    
C89   C95   S    
C4    H55   S    
C54   H4    S    
C73   C74   A    
C97   O7    A    
C98   O9    A    
C15   C75   S    
C35   C36   A    
C58   C98   S    
Cr1   O22   S    
Cr3   O21   S    
C37   H34   S    
C105  H28   S    
C6    H50   S    
Cr6   O9    S    
C110  H46   S    
C103  H31   S    
C23   C56   A    
C20   C30   A    
C53   C54   A    
C35   H45   S    
C96   O23   A    
C4    H54   S    
C13   C18   A    
C5    C6    S    
C32   C36   A    
C45   C87   A    
C25   H12   S    
C63   O17   A    
Cr2   O13   S    
C83   H13   S    
C52   C61   A    
C5    H53   S    
C99   H76   S    
C14   H70   S    
C101  O5    A    
C86   H15   S    
C20   C102  S    
C106  C107  S    
C3    C110  S    
C73   H10   S    
C12   H72   S    
C7    H58   S    
C30   C100  A    
C67   C89   T    
C95   O26   A    
C82   C92   T    
C18   H17   S    
C60   C62   A    
C18   C19   A    
C102  H22   S    
C5    H52   S    
C27   O16   A    
C62   C64   A    
C108  H36   S    
Cr6   O3    S    
C61   C66   A    
C96   O3    A    
C57   C109  S    
C88   C92   S    
C100  H18   S    
C8    C9    S    
Cr4   O5    S    
Cr5   O11   S    
C2    C22   A    
C3    H42   S    
C50   C52   A    
C107  C108  S    
C13   C28   A    
C45   C78   S    
C27   O1    A    
C102  H25   S    
Cr2   O22   S    
C1    O13   A    
C9    C10   S    
C38   C48   A    
C9    H63   S    
C52   C55   A    
Cr1   O4    S    
Cr6   O2    S    
C65   C68   A    
C83   C88   A    
C6    H49   S    
C43   H75   S    
C59   C60   A    
C22   C28   A    
C21   C22   A    
C27   C30   S    
C59   H7    S    
C41   C43   A    
C84   C90   A    
Cr3   O22   S    
C31   C49   A    
C74   H11   S    
C104  H29   S    
C104  C105  S    
C44   C46   A    
C103  H32   S    
C87   C99   A    
C77   C79   S    
C24   H23   S    
C10   H60   S    
C46   C48   A    
C36   H56   S    
C70   C80   T    
C50   H3    S    
C10   H62   S    
Cr3   O16   S    
Cr4   O24   S    
C1    O4    A    
C24   C25   A    
Cr3   O20   S    
C109  H47   S    
C93   C101  S    
C105  H26   S    
C4    C68   S    
C14   H69   S    
C53   C57   A    
C16   C17   A    
C25   C26   A    
C85   C86   A    
C12   H71   S    
Cr5   O7    S    
C94   O25   A    
C33   C37   A    
C39   O18   A    
C7    H59   S    
C60   C61   A    
C11   H73   S    
C31   C103  S    
C51   O20   A    
C43   C44   A    
Cr2   O19   S    
C72   C77   A    
C104  H30   S    
C85   H14   S    
C91   C93   T    
C108  H35   S    
Cr6   O10   S    
C83   C84   A    
C63   C70   S    
C11   C12   S    
C23   C34   A    
C17   H20   S    
C39   O19   A    
Cr5   O26   S    
C34   C45   A    
C102  H24   S    
C63   O21   A    
C53   C66   A    
C9    H64   S    
C107  H37   S    
C19   C94   S    
C74   C76   A    
Cr1   O1    S    
C58   C68   A    
C40   C41   A    
C12   C14   S    
C65   C66   A    
C37   C38   A    
C106  H40   S    
C59   C69   A    
C33   C47   A    
C13   C16   A    
Cr2   O12   S    
Cr1   O17   S    
C19   C29   A    
Cr3   O15   S    
C62   H6    S    
Cr6   O11   S    
C110  H44   S    
C51   O12   A    
C79   C81   T    
C8    H66   S    
C54   C55   A    
C46   C47   A    
C8    C71   S    
C32   C42   A    
C10   H61   S    
C94   O24   A    
C97   O6    A    
C50   C69   A    
C31   C32   A    
C76   C80   S    
C39   C82   S    
C4    C5    S    
C109  H48   S    
C105  H27   S    
C48   H67   S    
C14   H68   S    
C85   C90   A    
C87   H1    S    
C23   H8    S    
C44   C106  S    
C11   C84   S    
C95   O2    A    
C56   C67   S    
C29   H21   S    
Cr5   O8    S    
C26   C28   A    
C98   O8    A    
C72   H9    S    
C101  O10   A    
C11   H74   S    
C64   C65   A    
Cr1   O18   S    
Cr2   O14   S    
C71   C72   A    
C109  C110  S    
C90   C91   S    
C71   C76   A    
C81   C97   S    
C15   O14   A    
C7    H57   S    
C33   C35   A    
C86   C88   A    
C42   C47   A    
Cr4   O23   S    
C75   C78   T    
C7    C64   S    
C107  H38   S    
C3    H43   S    
C2    C100  A    
C108  H33   S    
C34   H16   S    
C20   C21   A    
C26   C29   A    
C106  H39   S    
Cr4   O6    S    
C21   C24   A    
C38   C96   S    
C103  C104  S    
C3    H41   S    
C73   C77   A    
Cr4   O11   S    
Cr5   O25   S    
C51   C69   S    
C56   C99   A    
C57   C58   A    
C6    H51   S    
C16   H19   S    
C1    C49   S    
C15   O15   A    
C40   C49   A    
C2    C17   A    
