data_mof_unit_56466.cif
_audit_creation_date              2012-12-11T16:18:10-0500
_audit_creation_method            fapswitch 2.2
_symmetry_space_group_name_H-M    P1
_symmetry_Int_Tables_number       1
_space_group_crystal_system       triclinic
_cell_length_a                    14.044909
_cell_length_b                    14.057979
_cell_length_c                    30.107942
_cell_angle_alpha                 97.190861
_cell_angle_beta                  97.107683
_cell_angle_gamma                 61.289601
_cell_volume                      5158.92350166

loop_
_atom_site_label
_atom_site_type_symbol
_atom_type_description
_atom_site_fract_x
_atom_site_fract_y
_atom_site_fract_z
_atom_type_partial_charge
C1    C     C_R   0.385649 0.711211 0.442246 0.540950
C2    C     C_R   0.823956 0.255239 0.385447 0.011711
C3    C     C_R   0.847627 0.227176 0.339588 0.038718
C4    C     C_R   0.398855 0.381100 0.426461 0.548392
C5    C     C_R   0.818832 0.311380 0.311278 0.042211
C6    C     C_R   0.773527 0.419532 0.328390 -0.137967
C7    C     C_R   0.748012 0.447138 0.372587 -0.142861
C8    C     C_R   0.892290 0.362706 0.167954 -0.002590
C9    C     C_R   0.913025 0.361114 0.123924 -0.127478
C10   C     C_R   0.847126 0.229801 0.099234 0.010224
C11   C     C_R   0.830106 0.226743 0.144524 0.022873
C12   C     C_R   0.406616 0.248549 0.222248 0.022899
C13   C     C_R   0.854935 0.292122 0.178629 0.056294
C14   C     C_1   0.842824 0.287729 0.224872 -0.028062
C15   C     C_1   0.833265 0.292606 0.264205 -0.036228
C16   C     C_R   0.711561 0.404671 0.442941 0.538011
C17   C     C_R   0.896525 0.291845 0.089844 0.008801
C18   C     C_R   0.363191 0.770197 0.401571 0.016780
C19   C     C_R   0.436602 0.801895 0.387948 -0.015159
C20   C     C_R   0.424774 0.830016 0.343837 -0.107878
C21   C     C_R   0.340931 0.829196 0.313935 0.039603
C22   C     C_R   0.260896 0.810192 0.328575 0.009063
C23   C     C_R   0.413557 0.255307 0.269283 -0.083785
C24   C     C_R   0.272397 0.781581 0.372407 -0.120501
C25   C     C_R   0.250991 0.844542 0.154376 -0.128566
C26   C     C_R   0.231655 0.868677 0.109743 -0.131877
C27   C     C_R   0.390009 0.897693 0.116791 -0.108462
C28   C     C_R   0.389754 0.711486 0.568298 0.543128
C29   C     C_R   0.409938 0.873638 0.161836 0.016057
C30   C     C_R   0.336936 0.851136 0.180830 0.054482
C31   C     C_1   0.342496 0.843730 0.228028 -0.028306
C32   C     C_1   0.342855 0.838843 0.267437 -0.030764
C33   C     C_R   0.297951 0.900426 0.091189 0.006033
C34   C     C_R   0.331656 0.341728 0.293096 0.025798
C35   C     C_R   0.367413 0.364576 0.593193 0.004875
C36   C     C_R   0.433567 0.268884 0.615014 -0.110141
C37   C     C_R   0.417744 0.261321 0.659145 0.012321
C38   C     C_R   0.333601 0.351329 0.681355 0.051030
C39   C     C_R   0.262054 0.442866 0.658404 -0.139893
C40   C     C_R   0.402512 0.383341 0.552549 0.539672
C41   C     C_R   0.278524 0.449507 0.614527 -0.141888
C42   C     C_R   0.210725 0.397840 0.831382 -0.131438
C43   C     C_R   0.201860 0.376173 0.873954 -0.145091
C44   C     C_R   0.399268 0.266856 0.884031 -0.004470
C45   C     C_R   0.316298 0.330460 0.199253 0.053475
C46   C     C_R   0.406570 0.289562 0.840859 -0.093780
C47   C     C_R   0.312407 0.351144 0.814267 0.019263
C48   C     C_1   0.318753 0.355711 0.767765 -0.047355
C49   C     C_1   0.324226 0.354952 0.728338 -0.038588
C50   C     C_R   0.294726 0.306370 0.899973 0.032029
C51   C     C_1   0.761325 0.376913 0.612579 -0.015221
C52   C     C_R   0.712812 0.407931 0.568556 0.543553
C53   C     C_R   0.731922 0.358952 0.724712 -0.113071
C54   C     C_R   0.754576 0.342724 0.770409 -0.121845
C55   C     C_R   0.947880 0.273251 0.761899 0.020881
C56   C     C_1   0.302348 0.320904 0.151117 -0.061163
C57   C     C_R   0.923703 0.290386 0.716004 -0.090097
C58   C     C_R   0.816221 0.333706 0.697558 0.023803
C59   C     C_R   0.861836 0.300673 0.789362 0.055097
C60   C     C_1   0.881970 0.290475 0.837059 -0.060913
C61   C     C_1   0.790724 0.355157 0.650970 -0.061150
C62   C     C_1   0.907360 0.281526 0.876596 -0.023797
C63   C     C_1   0.377264 0.755531 0.614008 -0.018960
C64   C     C_1   0.365555 0.363473 0.380815 -0.014674
C65   C     C_R   0.378360 0.710446 0.727105 0.034817
C66   C     C_R   0.366821 0.730545 0.774227 0.039026
C67   C     C_1   0.345977 0.352483 0.341085 -0.060395
C68   C     C_R   0.327451 0.918105 0.768817 -0.129998
C69   C     C_R   0.338551 0.898442 0.722860 -0.130697
C70   C     C_R   0.362751 0.796076 0.701787 0.039026
C71   C     C_R   0.340019 0.836035 0.794578 0.042731
C72   C     C_1   0.318746 0.865972 0.841337 -0.060301
C73   C     C_1   0.369820 0.779286 0.653747 -0.059619
C74   C     C_1   0.295857 0.899025 0.879477 -0.020358
C75   C     C_R   0.949701 0.273519 0.047930 0.536559
C76   C     C_R   0.242343 0.422619 0.270141 -0.115665
C77   C     C_R   0.275289 0.270184 0.065429 0.545276
C78   C     C_1   0.290818 0.303537 0.111259 -0.022579
C79   C     C_R   0.260653 0.954349 0.048943 0.542615
C80   C     C_R   0.952212 0.269090 0.922110 0.540425
C81   C     C_R   0.276718 0.266796 0.939761 0.538239
C82   C     C_R   0.261698 0.950568 0.922955 0.546357
C83   C     C_R   0.234439 0.416688 0.223302 -0.127571
C84   C     C_3   0.787364 0.154168 0.157587 -0.399577
C85   C     C_3   0.809838 0.170602 0.061516 -0.381588
C86   C     C_3   0.901638 0.108985 0.321501 -0.401770
C87   C     C_3   0.166564 0.814593 0.297243 -0.406180
C88   C     C_3   0.528899 0.804215 0.418695 -0.380838
C89   C     C_R   0.767497 0.366950 0.400959 0.025947
C90   C     C_3   0.505221 0.877238 0.189610 -0.409031
C91   C     C_3   0.502912 0.199254 0.911403 -0.385005
C92   C     C_3   0.495114 0.158617 0.681552 -0.405906
C93   C     C_3   0.495027 0.154238 0.197124 -0.406865
C94   C     C_3   0.065521 0.226862 0.779759 -0.401983
C95   C     C_3   0.405855 0.599958 0.702848 -0.393145
C96   C     C_3   0.382065 0.640815 0.802006 -0.394873
C97   C     C_3   0.916536 0.437715 0.202445 -0.404703
C98   C     C_3   0.859651 0.166389 0.417039 -0.382620
Cr1   Cr    Cr6+3 0.581000 0.584320 0.508140 1.011334
Cr2   Cr    Cr6+3 0.339110 0.576430 0.496080 1.016739
Cr3   Cr    Cr6+3 0.579910 0.339270 0.495810 1.015130
Cr4   Cr    Cr6+3 0.082090 0.079210 0.982490 1.017248
Cr5   Cr    Cr6+3 0.082460 0.324610 0.994920 1.015645
Cr6   Cr    Cr6+3 0.323630 0.087860 0.996130 1.010701
H1    H     H_    0.179527 0.490658 0.288429 0.109102
H2    H     H_    0.948820 0.410467 0.116929 0.141155
H3    H     H_    0.753382 0.483924 0.306819 0.111874
H4    H     H_    0.706034 0.532737 0.383657 0.130224
H5    H     H_    0.845568 0.099753 0.183084 0.127095
H6    H     H_    0.707669 0.205270 0.172200 0.132851
H7    H     H_    0.776418 0.100906 0.129403 0.123029
H8    H     H_    0.809255 0.195870 0.028015 0.137640
H9    H     H_    0.863287 0.081467 0.062138 0.134400
H10   H     H_    0.724333 0.190603 0.065098 0.120006
H11   H     H_    0.910374 0.098369 0.284867 0.129623
H12   H     H_    0.195307 0.826283 0.168933 0.106915
H13   H     H_    0.984537 0.065219 0.338208 0.131849
H14   H     H_    0.852506 0.070126 0.327858 0.124185
H15   H     H_    0.160603 0.869439 0.090747 0.133088
H16   H     H_    0.110075 0.799501 0.314451 0.114893
H17   H     H_    0.119884 0.896201 0.283967 0.131839
H18   H     H_    0.197286 0.751967 0.268781 0.137849
H19   H     H_    0.213589 0.761156 0.382686 0.134367
H20   H     H_    0.498694 0.847395 0.451551 0.139067
H21   H     H_    0.594587 0.720204 0.423535 0.158828
H22   H     H_    0.565052 0.847902 0.404569 0.108368
H23   H     H_    0.164190 0.478967 0.205809 0.101680
H24   H     H_    0.558364 0.797451 0.203747 0.134857
H25   H     H_    0.554967 0.894911 0.169314 0.114740
H26   H     H_    0.475564 0.941581 0.217546 0.136832
H27   H     H_    0.442400 0.920982 0.102640 0.126658
H28   H     H_    0.120863 0.408467 0.885113 0.141390
H29   H     H_    0.137581 0.445991 0.810857 0.116132
H30   H     H_    0.225997 0.524169 0.598520 0.135542
H31   H     H_    0.485247 0.255102 0.827095 0.106875
H32   H     H_    0.513361 0.116222 0.912701 0.161460
H33   H     H_    0.575368 0.191004 0.896576 0.111669
H34   H     H_    0.483890 0.848060 0.332073 0.106545
H35   H     H_    0.500849 0.238448 0.945921 0.138636
H36   H     H_    0.474539 0.158772 0.715948 0.139421
H37   H     H_    0.493174 0.087700 0.661404 0.128966
H38   H     H_    0.579108 0.148020 0.683574 0.132185
H39   H     H_    0.459674 0.108367 0.174741 0.143177
H40   H     H_    0.533244 0.184939 0.176494 0.133936
H41   H     H_    0.559544 0.097295 0.220269 0.113013
H42   H     H_    0.688166 0.364245 0.791091 0.105170
H43   H     H_    0.077734 0.215781 0.816200 0.142947
H44   H     H_    0.113730 0.146284 0.761869 0.128924
H45   H     H_    0.196788 0.511767 0.675258 0.114364
H46   H     H_    0.097840 0.281944 0.773701 0.131187
H47   H     H_    0.988669 0.270825 0.694767 0.111420
H48   H     H_    0.417089 0.537354 0.724814 0.127878
H49   H     H_    0.339381 0.608206 0.676940 0.141838
H50   H     H_    0.482520 0.568872 0.686067 0.133625
H51   H     H_    0.321571 0.612235 0.789696 0.135395
H52   H     H_    0.465679 0.571964 0.799483 0.125069
H53   H     H_    0.371574 0.666667 0.838152 0.137957
H54   H     H_    0.483324 0.194007 0.287449 0.107298
H55   H     H_    0.895661 0.437495 0.236697 0.138746
H56   H     H_    0.501733 0.202120 0.598745 0.133389
H57   H     H_    0.004615 0.413531 0.204012 0.134211
H58   H     H_    0.869165 0.522523 0.192420 0.121964
H59   H     H_    0.946608 0.106585 0.413748 0.120683
H60   H     H_    0.854024 0.197671 0.452799 0.139711
H61   H     H_    0.809375 0.124218 0.409100 0.134740
H62   H     H_    0.648405 0.392310 0.710626 0.110778
H63   H     H_    0.307142 0.998770 0.784346 0.113456
H64   H     H_    0.326915 0.963834 0.703574 0.112599
O1    O     O_R   0.688580 0.499770 0.460490 -0.525437
O2    O     O_R   0.346150 0.177650 0.050510 -0.514409
O3    O     O_R   0.314200 0.996600 0.036060 -0.503784
O4    O     O_R   0.480400 0.672610 0.462660 -0.502073
O5    O     O_R   0.168690 0.969990 0.933130 -0.505064
O6    O     O_R   0.991920 0.175870 0.937430 -0.495327
O7    O     O_R   0.974010 0.342590 0.941330 -0.511280
O8    O     O_R   0.182630 0.317940 0.955040 -0.505678
O9    O     O_R   0.347320 0.174720 0.953250 -0.517195
O10   O     O_R   0.315290 0.993890 0.945900 -0.494581
O11   O     O_3   0.162730 0.163890 0.991180 -0.239898
O12   O     O_R   0.348600 0.476260 0.536540 -0.502035
O13   O     O_R   0.315310 0.685650 0.451800 -0.520876
O14   O     O_R   0.346220 0.474990 0.446280 -0.494092
O15   O     O_R   0.492270 0.312460 0.441630 -0.507986
O16   O     O_R   0.669740 0.350480 0.455640 -0.495684
O17   O     O_R   0.691150 0.501150 0.557860 -0.504492
O18   O     O_R   0.482790 0.673890 0.552920 -0.493241
O19   O     O_R   0.317880 0.687030 0.549170 -0.510903
O20   O     O_R   0.494840 0.313840 0.539010 -0.518457
O21   O     O_R   0.672120 0.351750 0.545910 -0.497908
O22   O     O_3   0.500010 0.500010 0.500010 -0.239740
O23   O     O_R   0.167510 0.972920 0.030390 -0.515724
O24   O     O_R   0.990840 0.178580 0.027590 -0.495346
O25   O     O_R   0.972840 0.345510 0.038590 -0.519975
O26   O     O_R   0.181550 0.320660 0.045200 -0.494677

loop_
_geom_bond_atom_site_label_1
_geom_bond_atom_site_label_2
_ccdc_geom_bond_type
C10   C85   S    
C8    C13   A    
C55   C59   A    
C27   C29   A    
C27   H27   S    
C35   C36   A    
C51   C61   T    
C88   H20   S    
C85   H8    S    
C98   H59   S    
C39   C41   A    
C38   C49   S    
C53   C54   A    
C27   C33   A    
Cr4   O5    S    
C12   C23   A    
C1    C18   S    
C37   C38   A    
C42   H29   S    
C18   C24   A    
C97   H55   S    
C62   C80   S    
C36   C37   A    
Cr6   O2    S    
Cr3   O21   S    
C5    C6    A    
C96   H51   S    
C10   C17   A    
C20   H34   S    
C65   C70   A    
C7    C89   A    
C23   H54   S    
C68   H63   S    
C25   C30   A    
C56   C78   T    
C60   C62   T    
C18   C19   A    
C79   O3    A    
C29   C90   S    
C88   H22   S    
C46   H31   S    
C91   H33   S    
C90   H25   S    
C16   O1    A    
Cr6   O9    S    
Cr6   O10   S    
C91   H32   S    
C66   C71   A    
C45   C56   S    
C8    C9    A    
Cr4   O24   S    
C6    H3    S    
C93   H41   S    
Cr5   O26   S    
Cr3   O20   S    
Cr2   O14   S    
C93   H39   S    
C54   H42   S    
C58   C61   S    
C96   H53   S    
C59   C60   S    
C40   O12   A    
C13   C14   S    
C3    C86   S    
Cr4   O11   S    
C45   C83   A    
C74   C82   S    
C55   C94   S    
C76   C83   A    
C41   H30   S    
Cr6   O11   S    
C44   C46   A    
C54   C59   A    
C94   H44   S    
C38   C39   A    
C21   C32   S    
Cr2   O22   S    
C84   H7    S    
C35   C40   S    
C51   C52   S    
C64   C67   T    
Cr2   O19   S    
C26   H15   S    
C72   C74   T    
C19   C88   S    
C25   H12   S    
C87   H17   S    
C1    O13   A    
C77   O2    A    
Cr1   O4    S    
C63   C73   T    
C9    H2    S    
C77   C78   S    
C24   H19   S    
C84   H6    S    
C86   H11   S    
C95   H49   S    
C2    C89   A    
C8    C97   S    
C81   O8    A    
C29   C30   A    
C92   H37   S    
C28   O18   A    
Cr1   O22   S    
Cr1   O1    S    
C26   C33   A    
C47   C48   S    
C82   O5    A    
C65   C95   S    
C30   C31   S    
C23   C34   A    
C82   O10   A    
C70   C73   S    
Cr5   O7    S    
Cr4   O23   S    
C86   H14   S    
C22   C87   S    
Cr2   O13   S    
C44   C91   S    
Cr3   O16   S    
Cr6   O3    S    
C91   H35   S    
C75   O25   A    
C9    C17   A    
C48   C49   T    
Cr3   O22   S    
C97   H57   S    
C55   C57   A    
C76   H1    S    
C22   C24   A    
C12   C93   S    
C28   O19   A    
C94   H46   S    
C42   C43   A    
Cr2   O12   S    
Cr1   O17   S    
C92   H38   S    
C66   C96   S    
C44   C50   A    
C94   H43   S    
C39   H45   S    
C46   C47   A    
C43   H28   S    
C37   C92   S    
C14   C15   T    
C68   C69   A    
C31   C32   T    
C33   C79   S    
C80   O7    A    
C83   H23   S    
C12   C45   A    
C3    C5    A    
Cr3   O15   S    
C34   C67   S    
C87   H18   S    
C98   H60   S    
C53   C58   A    
C16   O16   A    
C43   C50   A    
C6    C7    A    
C40   O20   A    
C11   C84   S    
Cr4   O6    S    
C4    C64   S    
C1    O4    A    
C84   H5    S    
C88   H21   S    
C95   H50   S    
C19   C20   A    
C85   H9    S    
C75   O24   A    
C25   C26   A    
C69   H64   S    
C80   O6    A    
C87   H16   S    
C77   O26   A    
C11   C13   A    
C57   C58   A    
C96   H52   S    
C68   C71   A    
C57   H47   S    
C93   H40   S    
Cr5   O8    S    
C2    C3    A    
C86   H13   S    
Cr5   O11   S    
C52   O21   A    
C65   C66   A    
C4    O15   A    
C69   C70   A    
C35   C41   A    
C5    C15   S    
C98   H61   S    
C85   H10   S    
C10   C11   A    
C36   H56   S    
C81   O9    A    
C90   H26   S    
C28   C63   S    
C53   H62   S    
C16   C89   S    
C42   C47   A    
C71   C72   S    
C20   C21   A    
C2    C98   S    
C97   H58   S    
C52   O17   A    
C17   C75   S    
C90   H24   S    
C7    H4    S    
C79   O23   A    
C95   H48   S    
Cr5   O25   S    
C4    O14   A    
C21   C22   A    
Cr1   O18   S    
C50   C81   S    
C34   C76   A    
C92   H36   S    
