data_mof_unit_25652.cif
_audit_creation_date              2012-12-10T17:44:22-0500
_audit_creation_method            fapswitch 2.2
_symmetry_space_group_name_H-M    P1
_symmetry_Int_Tables_number       1
_space_group_crystal_system       triclinic
_cell_length_a                    13.788689
_cell_length_b                    15.069731
_cell_length_c                    17.184163
_cell_angle_alpha                 88.864083
_cell_angle_beta                  83.195093
_cell_angle_gamma                 90.813681
_cell_volume                      3544.3848817

loop_
_atom_site_label
_atom_site_type_symbol
_atom_type_description
_atom_site_fract_x
_atom_site_fract_y
_atom_site_fract_z
_atom_type_partial_charge
C1    C     C_R   0.500481 0.671332 0.500075 0.806099
C2    C     C_R   0.499542 0.328649 0.499774 0.808680
C3    C     C_R   0.587918 0.187142 0.486184 -0.219472
C4    C     C_R   0.412162 0.812814 0.513591 -0.218553
C5    C     C_R   0.499161 0.231799 0.499166 -0.093926
C6    C     C_R   0.500894 0.768139 0.500568 -0.092294
C7    C     C_R   0.410827 0.183875 0.512084 -0.213431
C8    C     C_R   0.589261 0.816019 0.487640 -0.214553
C9    C     C_R   0.410680 0.091419 0.512526 0.072300
C10   C     C_R   0.589480 0.908474 0.487479 0.073067
C11   C     C_R   0.500170 0.046461 0.499928 -0.005911
C12   C     C_R   0.500104 0.953450 0.500441 -0.002889
C13   C     C_R   0.589614 0.094551 0.486888 0.026735
C14   C     C_R   0.410691 0.905367 0.513505 0.025344
C15   C     C_R   0.322371 0.043443 0.525914 -0.301421
C16   C     C_R   0.677763 0.956390 0.474063 -0.312210
C17   C     C_R   0.321586 0.950616 0.525503 0.423269
C18   C     C_R   0.678880 0.049344 0.475531 0.448134
C19   C     C_R   0.215573 0.548589 0.444503 -0.028237
C20   C     C_R   0.784430 0.451723 0.555686 -0.029067
C21   C     C_R   0.195741 0.452042 0.556815 0.280620
C22   C     C_R   0.804311 0.548001 0.443251 0.287863
C23   C     C_R   0.485060 0.500544 0.650364 0.791764
C24   C     C_R   0.514841 0.501020 0.349853 0.789601
C25   C     C_R   0.093058 0.450109 0.556781 0.016745
C26   C     C_R   0.906969 0.550267 0.443451 0.019402
C27   C     C_R   0.051635 0.500002 0.500021 0.050403
C28   C     C_R   0.948382 0.500527 0.500283 0.052284
C29   C     C_R   0.113198 0.549821 0.443404 -0.004141
C30   C     C_R   0.886810 0.450708 0.556889 -0.002887
C31   C     C_R   0.030568 0.400542 0.613452 -0.175887
C32   C     C_R   0.969443 0.599887 0.386791 -0.182417
C33   C     C_R   0.928934 0.400939 0.613392 -0.216485
C34   C     C_R   0.071075 0.599727 0.386964 -0.214852
C35   C     C_R   0.472495 0.505848 0.735691 -0.024540
C36   C     C_R   0.526695 0.508794 0.264885 -0.013942
C37   C     C_R   0.544697 0.473201 0.778825 -0.205144
C38   C     C_R   0.469892 0.455500 0.221778 -0.205264
C39   C     C_R   0.535793 0.483110 0.859539 -0.138929
C40   C     C_R   0.474258 0.468631 0.141179 -0.143319
C41   C     C_R   0.456343 0.528889 0.897947 0.126403
C42   C     C_R   0.531871 0.538281 0.103370 0.122987
C43   C     C_R   0.382073 0.558100 0.855088 -0.152670
C44   C     C_R   0.592039 0.588811 0.146472 -0.145578
C45   C     C_R   0.390019 0.546584 0.774366 -0.211002
C46   C     C_R   0.589534 0.574055 0.226920 -0.223379
C47   C     C_2   0.449055 0.544205 0.983107 0.252019
C48   C     C_2   0.531185 0.557958 0.018794 0.251857
Cu1   Cu    Cu3+1 0.402580 0.500010 0.500000 0.930282
Cu2   Cu    Cu3+1 0.597420 0.499990 0.500000 0.934066
H1    H     H_    0.607843 0.439855 0.750144 0.140487
H2    H     H_    0.422105 0.404006 0.250574 0.143016
H3    H     H_    0.262840 0.587064 0.401208 0.142044
H4    H     H_    0.737187 0.413224 0.598984 0.133817
H5    H     H_    0.059695 0.361025 0.658298 0.171682
H6    H     H_    0.940294 0.639424 0.341967 0.170646
H7    H     H_    0.883276 0.362446 0.657763 0.141654
H8    H     H_    0.116689 0.638643 0.342808 0.141984
H9    H     H_    0.633070 0.616310 0.259932 0.135540
H10   H     H_    0.333319 0.572077 0.741909 0.147179
H11   H     H_    0.319033 0.591589 0.883566 0.145814
H12   H     H_    0.638810 0.641405 0.118555 0.148766
H13   H     H_    0.431697 0.424814 0.108817 0.173429
H14   H     H_    0.591394 0.455178 0.891729 0.169039
H15   H     H_    0.655845 0.224816 0.475616 0.195582
H16   H     H_    0.344077 0.775255 0.523696 0.192932
H17   H     H_    0.342175 0.218413 0.522269 0.150300
H18   H     H_    0.657881 0.781446 0.477297 0.150158
H19   H     H_    0.253762 0.077852 0.537001 0.153796
H20   H     H_    0.746130 0.921756 0.462098 0.151534
N1    N     N_R   0.256180 0.500070 0.500030 -0.194075
N2    N     N_R   0.743820 0.499930 0.499970 -0.191591
O1    O     O_R   0.417720 0.629750 0.499980 -0.586162
O2    O     O_R   0.582280 0.370250 0.500020 -0.584720
O3    O     O_R   0.582260 0.629730 0.499990 -0.594777
O4    O     O_R   0.417740 0.370270 0.500010 -0.595230
O5    O     O_R   0.408190 0.500030 0.613590 -0.597666
O6    O     O_R   0.591810 0.499970 0.386410 -0.592119
O7    O     O_R   0.572730 0.500000 0.613600 -0.581199
O8    O     O_R   0.427270 0.500000 0.386400 -0.580720
N3    N     N_3   0.233507 0.406550 0.620378 -0.623357
H21   H     H_    0.250630 0.452408 0.661505 0.237289
H22   H     H_    0.291918 0.366768 0.601090 0.258688
N4    N     N_3   0.766706 0.592615 0.379250 -0.632717
H23   H     H_    0.750362 0.545885 0.338584 0.241433
H24   H     H_    0.707652 0.631864 0.398115 0.252742
O9    O     O_3   0.619367 0.583432 0.975958 -0.624520
C49   C     C_3   0.614454 0.672952 0.950673 0.027902
H25   H     H_    0.593725 0.716735 0.001308 0.124407
H26   H     H_    0.560399 0.680532 0.907878 0.146793
C50   C     C_3   0.714675 0.702700 0.910441 -0.294137
H27   H     H_    0.769532 0.696494 0.952636 0.219558
H28   H     H_    0.736399 0.659049 0.860141 0.226932
C51   C     C_3   0.713793 0.798725 0.880644 -0.930215
H29   H     H_    0.660739 0.806044 0.837156 0.258866
H30   H     H_    0.787604 0.818221 0.851882 0.258032
H31   H     H_    0.693689 0.843776 0.930161 0.255348
O10   O     O_3   0.357577 0.533317 0.026077 -0.625585
C52   C     C_3   0.325877 0.615485 0.057436 0.030172
H32   H     H_    0.314207 0.663314 0.009335 0.130515
H33   H     H_    0.379599 0.644988 0.093450 0.137850
C53   C     C_3   0.229465 0.600289 0.110051 -0.285033
H34   H     H_    0.173624 0.573652 0.074653 0.222279
H35   H     H_    0.240088 0.550592 0.156870 0.224849
C54   C     C_3   0.192592 0.686044 0.148092 -0.951345
H36   H     H_    0.246183 0.712444 0.185602 0.253155
H37   H     H_    0.122233 0.672638 0.185318 0.254788
H38   H     H_    0.180628 0.736631 0.102450 0.259643
O11   O     O_3   0.234200 0.904034 0.542583 -0.613181
C55   C     C_3   0.185513 0.902620 0.474799 0.031400
H39   H     H_    0.233793 0.876560 0.423884 0.136004
H40   H     H_    0.161602 0.970605 0.460091 0.145984
C56   C     C_3   0.095428 0.841691 0.490641 -0.307459
H41   H     H_    0.118642 0.773244 0.504053 0.224790
H42   H     H_    0.047429 0.865560 0.542314 0.223435
C57   C     C_3   0.037554 0.839495 0.420286 -0.933847
H43   H     H_    0.012044 0.907025 0.406681 0.255986
H44   H     H_    0.972745 0.794856 0.433916 0.262468
H45   H     H_    0.083471 0.814185 0.368182 0.255076
O12   O     O_3   0.766224 0.096424 0.458339 -0.616290
C58   C     C_3   0.824734 0.086871 0.520325 0.054239
H46   H     H_    0.902100 0.097336 0.495025 0.172572
H47   H     H_    0.820215 0.019199 0.548088 0.128683
C59   C     C_3   0.799257 0.157136 0.582460 -0.369050
H48   H     H_    0.805503 0.224361 0.554291 0.227351
H49   H     H_    0.722790 0.146386 0.609913 0.212820
C60   C     C_3   0.867234 0.152558 0.646271 -0.910498
H50   H     H_    0.863211 0.085513 0.674643 0.258410
H51   H     H_    0.844934 0.202054 0.691663 0.248921
H52   H     H_    0.943750 0.167556 0.620922 0.259190

loop_
_geom_bond_atom_site_label_1
_geom_bond_atom_site_label_2
_ccdc_geom_bond_type
C25   C31   A    
C38   C40   A    
O9    C49   S    
C45   H10   S    
C26   C32   A    
C46   H9    S    
C27   C29   A    
C19   N1    A    
Cu2   O7    S    
N3    H21   S    
C39   C41   A    
C20   C30   A    
C39   H14   S    
C54   H37   S    
C24   C36   S    
C47   O10   S    
C13   C18   A    
C21   N1    A    
C35   C37   A    
N4    H24   S    
C40   H13   S    
Cu2   O2    S    
C37   H1    S    
C38   H2    S    
O10   C52   S    
C57   H43   S    
C53   C54   S    
C7    C9    A    
Cu2   N2    S    
C55   H39   S    
C58   C59   S    
C53   H34   S    
C24   O8    A    
C47   C48   D    
C57   H44   S    
C31   C33   A    
C36   C46   A    
C3    C13   A    
C56   C57   S    
C19   H3    S    
C40   C42   A    
C4    C14   A    
C41   C43   A    
C14   C17   A    
C3    H15   S    
C42   C44   A    
Cu2   O6    S    
C22   N2    A    
N3    H22   S    
C44   C46   A    
C15   H19   S    
C54   H38   S    
C48   O9    S    
C1    C6    S    
C1    O3    A    
C16   H20   S    
N4    H23   S    
C4    C6    A    
C50   H27   S    
C5    C7    A    
C6    C8    A    
C51   H31   S    
C44   H12   S    
C29   C34   A    
C32   C34   A    
C51   H30   S    
C60   H51   S    
C50   H28   S    
C9    C11   A    
C52   H32   S    
C49   C50   S    
C41   C47   S    
Cu1   O4    S    
C16   C18   A    
C42   C48   S    
C23   O5    A    
C53   H35   S    
C43   C45   A    
C55   C56   S    
C58   H46   S    
C10   C12   A    
C59   C60   S    
C31   H5    S    
C20   H4    S    
C52   H33   S    
C49   H26   S    
C8    H18   S    
C23   C35   S    
Cu1   N1    S    
Cu1   O1    S    
C2    C5    S    
C60   H50   S    
C19   C29   A    
C18   O12   S    
C2    O4    A    
O12   C58   S    
C43   H11   S    
C59   H49   S    
C56   H41   S    
C24   O6    A    
C15   C17   A    
C21   C25   A    
C33   H7    S    
C30   C33   A    
C21   N3    S    
C3    C5    A    
C17   O11   S    
C11   C12   A    
Cu1   O8    S    
C25   C27   A    
C54   H36   S    
C26   C28   A    
C57   H45   S    
C1    O1    A    
C28   C30   A    
C12   C14   A    
C60   H52   S    
C37   C39   A    
C10   C16   A    
Cu2   O3    S    
C50   C51   S    
C4    H16   S    
C11   C13   A    
C36   C38   A    
Cu1   O5    S    
C9    C15   A    
C51   H29   S    
C55   H40   S    
C58   H47   S    
C7    H17   S    
C52   C53   S    
C49   H25   S    
C8    C10   A    
Cu1   Cu2   S    
C22   C26   A    
C27   C28   A    
C34   H8    S    
C20   N2    A    
C2    O2    A    
C23   O7    A    
O11   C55   S    
C32   H6    S    
C22   N4    S    
C59   H48   S    
C56   H42   S    
C35   C45   A    
