data_mof_unit_11790.cif
_audit_creation_date              2013-03-05T16:00:28-0500
_audit_creation_method            fapswitch 2.2
_symmetry_space_group_name_H-M    P1
_symmetry_Int_Tables_number       1
_space_group_crystal_system       triclinic
_cell_length_a                    6.923923
_cell_length_b                    28.794283
_cell_length_c                    32.014137
_cell_angle_alpha                 101.12053
_cell_angle_beta                  89.738932
_cell_angle_gamma                 90.348102
_cell_volume                      6262.64350864

loop_
_atom_site_label
_atom_site_type_symbol
_atom_site_description
_atom_site_fract_x
_atom_site_fract_y
_atom_site_fract_z
_atom_type_partial_charge
O1    O     O_R   0.494350 0.453160 0.452490 -0.569368
O2    O     O_R   0.820990 0.455850 0.538220 -0.601661
O3    O     O_R   0.994300 0.546840 0.547510 -0.598415
C1    C     C_R   0.651633 0.445644 0.551695 0.958287
O4    O     O_R   0.823860 0.447580 0.452250 -0.581269
O5    O     O_R   0.997190 0.538510 0.460920 -0.599381
C2    C     C_R   0.655091 0.435593 0.435710 1.007615
O6    O     O_R   0.491450 0.461490 0.539080 -0.599629
O7    O     O_3   0.661790 0.529840 0.502950 -0.281822
V1    V     V_3+5 0.935470 0.494460 0.499450 1.192559
O8    O     O_R   0.327090 0.544150 0.461780 -0.578692
C3    C     C_R   0.158634 0.554115 0.448100 1.035896
O9    O     O_R   0.324210 0.552420 0.547750 -0.604457
C4    C     C_R   0.155134 0.565282 0.563684 0.920017
V2    V     V_3+5 0.435840 0.505540 0.500550 1.196557
O10   O     O_3   0.159650 0.470160 0.497050 -0.267448
C5    C     C_R   0.965588 0.615476 0.622916 -0.136409
C6    C     C_R   0.954124 0.650829 0.659640 -0.118495
C7    C     C_R   0.120368 0.675555 0.676804 0.117766
C8    C     C_R   0.298640 0.663814 0.656202 -0.115247
H1    H     H_    0.429906 0.681979 0.668484 0.118818
C9    C     C_R   0.310353 0.628204 0.619583 -0.148854
C10   C     C_R   0.143863 0.603569 0.602368 -0.127177
N1    N     N_R   0.262099 0.741711 0.729030 -0.068456
N2    N     N_R   0.250320 0.775944 0.763534 -0.066694
C11   C     C_R   0.083896 0.783420 0.786518 0.157115
N3    N     N_R   0.929612 0.754985 0.773396 -0.066189
N4    N     N_R   0.941186 0.720834 0.738769 -0.067611
C12   C     C_R   0.107674 0.713434 0.715756 0.115860
C13   C     C_R   0.912081 0.826009 0.852590 -0.093270
H2    H     H_    0.796812 0.799982 0.847246 0.132943
C14   C     C_R   0.901023 0.862934 0.888177 -0.102586
H3    H     H_    0.778520 0.863955 0.909491 0.155038
C15   C     C_R   0.046851 0.897727 0.896583 -0.299238
C16   C     C_R   0.204479 0.895112 0.867642 0.370090
C17   C     C_R   0.216547 0.857073 0.832822 -0.226465
H4    H     H_    0.337455 0.855777 0.811048 0.172864
C18   C     C_R   0.070867 0.822378 0.824645 0.048947
C19   C     C_R   0.174743 0.659661 0.284006 0.584589
N5    N     N_R   0.122246 0.676613 0.325460 -0.175988
C20   C     C_R   0.065366 0.722681 0.338466 0.572779
C21   C     C_R   0.054778 0.753332 0.309100 -0.107950
C22   C     C_R   0.105423 0.736377 0.266324 0.013355
C23   C     C_R   0.167238 0.689153 0.253615 -0.075196
C24   C     C_R   0.995748 0.800456 0.321697 -0.181231
C25   C     C_R   0.986395 0.830998 0.292522 0.382325
C26   C     C_R   0.031136 0.813909 0.248847 -0.241047
C27   C     C_R   0.093634 0.766527 0.236170 -0.011367
C28   C     C_R   0.143982 0.748994 0.193283 -0.054959
C29   C     C_R   0.207644 0.702022 0.181147 -0.074354
C30   C     C_R   0.218949 0.672484 0.210904 -0.081676
C31   C     C_R   0.011749 0.841818 0.217059 0.602370
N6    N     N_R   0.062422 0.824108 0.175599 -0.171980
C32   C     C_R   0.129301 0.778856 0.163447 0.594294
O11   O     O_2   0.233130 0.614402 0.272186 -0.479063
O12   O     O_2   0.017333 0.738647 0.379597 -0.535747
H5    H     H_    0.960250 0.814283 0.354738 0.208548
O13   O     O_2   0.938632 0.885861 0.226976 -0.457577
O14   O     O_2   0.180690 0.762744 0.122541 -0.489666
C33   C     C_R   0.892936 0.852019 0.116090 0.420425
C34   C     C_R   0.891762 0.882387 0.086371 -0.237970
H6    H     H_    0.773007 0.880211 0.064167 0.196158
C35   C     C_R   0.039885 0.915824 0.085080 -0.344623
C36   C     C_R   0.193236 0.918878 0.114738 0.363949
C37   C     C_R   0.198455 0.887463 0.143225 -0.147256
H7    H     H_    0.315969 0.889734 0.165777 0.190527
C38   C     C_R   0.050509 0.854378 0.144527 0.010712
C39   C     C_R   0.294621 0.644100 0.380081 -0.029741
H8    H     H_    0.417252 0.666223 0.375758 0.161436
C40   C     C_R   0.306349 0.614240 0.409650 -0.104407
H9    H     H_    0.438293 0.613995 0.427644 0.137192
C41   C     C_R   0.148780 0.585586 0.416301 -0.182552
C42   C     C_R   0.980455 0.586898 0.392065 -0.241888
C43   C     C_R   0.967092 0.616299 0.361685 0.381838
C44   C     C_R   0.126819 0.645587 0.355949 0.059965
C45   C     C_R   0.593129 0.226224 0.840026 0.574660
N7    N     N_R   0.585899 0.178026 0.826776 -0.173929
C46   C     C_R   0.592554 0.158002 0.784296 0.597457
C47   C     C_R   0.600696 0.186718 0.753306 -0.067218
C48   C     C_R   0.604650 0.236366 0.766414 0.011867
C49   C     C_R   0.602690 0.256283 0.810101 -0.108313
C50   C     C_R   0.603083 0.166958 0.709634 -0.083177
C51   C     C_R   0.607808 0.195983 0.679390 -0.101807
C52   C     C_R   0.611064 0.245535 0.692016 -0.032180
C53   C     C_R   0.609957 0.266018 0.735765 -0.013454
C54   C     C_R   0.613670 0.315879 0.748823 -0.237135
C55   C     C_R   0.607532 0.335549 0.793138 0.381349
C56   C     C_R   0.605453 0.305668 0.822963 -0.172894
C57   C     C_R   0.613865 0.275096 0.661803 0.533986
N8    N     N_R   0.620087 0.323279 0.674582 -0.174838
C58   C     C_R   0.626618 0.343898 0.716933 0.639054
O15   O     O_2   0.588292 0.245062 0.882006 -0.530596
O16   O     O_2   0.590372 0.110465 0.772065 -0.493094
H10   H     H_    0.600172 0.128955 0.698631 0.182558
O17   O     O_2   0.609454 0.255824 0.619912 -0.540180
O18   O     O_2   0.648983 0.391212 0.727819 -0.448806
C59   C     C_R   0.459328 0.380744 0.636776 0.400027
C60   C     C_R   0.471240 0.410641 0.606763 -0.279321
C61   C     C_R   0.640568 0.413451 0.582870 -0.180356
C62   C     C_R   0.799269 0.385474 0.589206 -0.140508
H11   H     H_    0.931704 0.386647 0.571297 0.142295
C63   C     C_R   0.788915 0.355377 0.618584 -0.013209
C64   C     C_R   0.621283 0.352907 0.642854 0.049563
C65   C     C_R   0.394964 0.123287 0.862891 0.384843
C66   C     C_R   0.387199 0.093162 0.892704 -0.213775
C67   C     C_R   0.549164 0.086704 0.917310 -0.182226
C68   C     C_R   0.720374 0.111369 0.911996 -0.161500
C69   C     C_R   0.729006 0.141995 0.883021 -0.016230
H12   H     H_    0.861956 0.160910 0.879681 0.173093
C70   C     C_R   0.568649 0.147973 0.857975 0.057094
C71   C     C_R   0.488412 0.395926 0.367156 0.366799
C72   C     C_R   0.476008 0.357981 0.332223 -0.224566
C73   C     C_R   0.619400 0.323028 0.324224 0.050458
C74   C     C_R   0.776219 0.326350 0.352399 -0.096463
H13   H     H_    0.889744 0.300147 0.347190 0.130828
C75   C     C_R   0.787445 0.363155 0.388065 -0.110640
C76   C     C_R   0.643705 0.398117 0.396358 -0.302422
N9    N     N_R   0.759459 0.255434 0.273245 -0.066776
N10   N     N_R   0.747966 0.221182 0.238692 -0.067275
C77   C     C_R   0.582645 0.213855 0.215481 0.119345
N11   N     N_R   0.429319 0.242334 0.228469 -0.068255
N12   N     N_R   0.441043 0.276676 0.262902 -0.066639
C78   C     C_R   0.606308 0.284060 0.286094 0.154274
C79   C     C_R   0.392324 0.163992 0.155961 -0.119769
H14   H     H_    0.261323 0.182164 0.168141 0.118496
C80   C     C_R   0.380767 0.128288 0.119410 -0.108541
H15   H     H_    0.241351 0.120069 0.104530 0.125959
C81   C     C_R   0.546946 0.103662 0.102305 -0.124804
C82   C     C_R   0.724699 0.115600 0.122948 -0.126312
C83   C     C_R   0.735986 0.151047 0.159618 -0.114463
H16   H     H_    0.875424 0.159163 0.174510 0.121754
C84   C     C_R   0.570094 0.175827 0.176626 0.113918
O19   O     O_R   0.699050 0.038480 0.960880 -0.597215
O20   O     O_R   0.366680 0.052470 0.047720 -0.588141
O21   O     O_R   0.193410 0.961530 0.039110 -0.571248
C85   C     C_R   0.535662 0.065361 0.063633 0.980866
O22   O     O_R   0.369510 0.044100 0.961740 -0.593817
O23   O     O_R   0.196260 0.953110 0.952520 -0.573776
C86   C     C_R   0.538813 0.054371 0.948332 1.024501
O24   O     O_R   0.696210 0.046900 0.047470 -0.606117
O25   O     O_3   0.528780 0.970170 0.997070 -0.258354
V3    V     V_3+5 0.255080 0.005530 0.000540 1.231740
O26   O     O_R   0.866350 0.947520 0.952280 -0.583871
C87   C     C_R   0.035354 0.935426 0.935803 1.001427
O27   O     O_R   0.863520 0.955880 0.038260 -0.587417
C88   C     C_R   0.031754 0.946700 0.052602 1.032190
V4    V     V_3+5 0.754720 0.994440 0.999470 1.228289
O28   O     O_3   0.030880 0.029830 0.002930 -0.294002
H17   H     H_    0.834158 0.597266 0.610785 0.131661
N13   N     N_R   0.938877 0.879563 0.308565 0.270202
O29   O     O_R   0.787799 0.889825 0.332832 -0.328980
O30   O     O_R   0.067502 0.912339 0.307042 -0.284447
H18   H     H_    0.247950 0.687776 0.148482 0.184991
H19   H     H_    0.267589 0.636451 0.200249 0.184557
N14   N     N_R   0.733390 0.819723 0.117043 0.247845
O31   O     O_R   0.615251 0.810075 0.084988 -0.355767
O32   O     O_R   0.695405 0.802527 0.150906 -0.398573
N15   N     N_R   0.338199 0.955302 0.118284 0.242205
O33   O     O_R   0.286904 0.999264 0.121579 -0.401139
O34   O     O_R   0.516159 0.945985 0.126473 -0.383383
H20   H     H_    0.858518 0.564698 0.396732 0.188198
H21   H     H_    0.814295 0.658893 0.674463 0.119134
N16   N     N_R   0.792506 0.615377 0.337026 0.234430
O35   O     O_R   0.748909 0.649993 0.318063 -0.415428
O36   O     O_R   0.671150 0.580263 0.334615 -0.338786
H22   H     H_    0.608676 0.179391 0.646014 0.180723
N17   N     N_R   0.592622 0.385512 0.808806 0.271269
O37   O     O_R   0.440175 0.407908 0.799891 -0.271597
O38   O     O_R   0.706251 0.406001 0.839182 -0.315638
H23   H     H_    0.599935 0.321517 0.856513 0.209965
N18   N     N_R   0.283092 0.379129 0.660578 0.235407
O39   O     O_R   0.233346 0.341187 0.674510 -0.423729
O40   O     O_R   0.164487 0.414704 0.666107 -0.363894
H24   H     H_    0.347489 0.431873 0.602090 0.176667
H25   H     H_    0.912990 0.334138 0.622887 0.172924
N19   N     N_R   0.226444 0.128277 0.837996 0.229152
O41   O     O_R   0.190064 0.168039 0.826065 -0.430480
O42   O     O_R   0.101592 0.093828 0.829318 -0.353003
H26   H     H_    0.253725 0.074648 0.896637 0.192320
H27   H     H_    0.847451 0.107370 0.930563 0.140510
N20   N     N_R   0.348730 0.433194 0.370848 0.237369
O43   O     O_R   0.406343 0.477015 0.375856 -0.370985
O44   O     O_R   0.168736 0.423160 0.361420 -0.400896
H28   H     H_    0.356838 0.356928 0.310254 0.173331
H29   H     H_    0.908312 0.363926 0.409554 0.150919
H30   H     H_    0.855814 0.097362 0.110921 0.139863
H31   H     H_    0.450123 0.620051 0.604753 0.128071
N21   N     N_R   0.347045 0.932098 0.871416 0.238656
O45   O     O_R   0.292614 0.975939 0.875804 -0.391830
O46   O     O_R   0.526972 0.921706 0.862388 -0.400635

loop_
_geom_bond_atom_site_label_1
_geom_bond_atom_site_label_2
_geom_bond_distance
_ccdc_geom_bond_type
C65   C70   1.416776 A    
C55   C56   1.403128 A    
C30   H19   1.083038 S    
C80   H15   1.082894 S    
C50   H10   1.083053 S    
C68   H27   1.083113 S    
N14   O32   1.300965 A    
C42   C43   1.410876 A    
C2    C76   1.494392 S    
C83   C84   1.406869 A    
C7    C8    1.408748 A    
N7    C46   1.371610 A    
C1    O6    1.297191 A    
C81   C82   1.408648 A    
C59   C60   1.410157 A    
N8    C58   1.372040 A    
C65   N19   1.439438 S    
N20   O43   1.301309 A    
C75   C76   1.407537 A    
C39   C44   1.403617 A    
O26   V4    1.979833 S    
N18   O40   1.301537 A    
C13   C18   1.405841 A    
C11   N3    1.359715 A    
C5    C10   1.408792 A    
C51   C52   1.406032 A    
N4    C12   1.360769 A    
N16   O36   1.301717 A    
C6    C7    1.406664 A    
C54   C58   1.420302 A    
C81   C85   1.492731 S    
O5    C3    1.296432 A    
C13   H2    1.082778 S    
C60   H24   1.083106 S    
C67   C68   1.404692 A    
C46   O16   1.349134 S    
C28   C32   1.407404 A    
C60   C61   1.407389 A    
C71   N20   1.436486 S    
C69   H12   1.082091 S    
C79   C84   1.408602 A    
N21   O46   1.301148 A    
C15   C16   1.421317 A    
C20   C21   1.410526 A    
C9    H31   1.082893 S    
C34   C35   1.408358 A    
N9    N10   1.334801 A    
C72   C73   1.405203 A    
C42   H20   1.083006 S    
C73   C74   1.405747 A    
V4    O28   2.154430 S    
C58   O18   1.347692 S    
N1    C12   1.358997 A    
O8    V2    1.973443 S    
C52   C53   1.410977 A    
O21   V3    1.975927 S    
C55   N17   1.433503 S    
N16   O35   1.300726 A    
C33   C38   1.417061 A    
C39   H8    1.082725 S    
C37   C38   1.400621 A    
C5    C6    1.401156 A    
C68   C69   1.398616 A    
C40   H9    1.083023 S    
O19   V4    1.974218 S    
C22   C27   1.420267 A    
C35   C88   1.494136 S    
C85   O24   1.296865 A    
N19   O42   1.301489 A    
C52   C57   1.406284 A    
C3    C41   1.489779 S    
C77   C84   1.492741 S    
O9    C4    1.301841 A    
N15   O34   1.301188 A    
C63   C64   1.402865 A    
C66   H26   1.083037 S    
O24   V4    1.978287 S    
C65   C66   1.408746 A    
O27   V4    1.973061 S    
O27   C88   1.301139 A    
C32   O14   1.349145 S    
N20   O44   1.301220 A    
C51   H22   1.083063 S    
C19   O11   1.348966 S    
O22   V3    1.979035 S    
C56   H23   1.083575 S    
C43   C44   1.419377 A    
V3    O28   1.701960 S    
C45   N7    1.371423 A    
C72   H28   1.083110 S    
N17   O38   1.301061 A    
O23   V3    1.977529 S    
C74   H13   1.082778 S    
C19   N5    1.370958 A    
O4    C2    1.302021 A    
C46   C47   1.409446 A    
C41   C42   1.407770 A    
O20   C85   1.301337 A    
N2    C11   1.360061 A    
C53   C54   1.415905 A    
C47   C48   1.410244 A    
C14   H3    1.083151 S    
C33   C34   1.411029 A    
C16   C17   1.406623 A    
C14   C15   1.407768 A    
C4    C10   1.492875 S    
C57   O17   1.349291 S    
O2    C1    1.299075 A    
C22   C23   1.410612 A    
C20   O12   1.349154 S    
C48   C53   1.419705 A    
O20   V3    1.978825 S    
O22   C86   1.298482 A    
C26   C27   1.416082 A    
C73   C78   1.492894 S    
O8    C3    1.300674 A    
O21   C88   1.297171 A    
C24   H5    1.083585 S    
C62   C63   1.397771 A    
C29   C30   1.396794 A    
C77   N11   1.359189 A    
N1    N2    1.333616 A    
N18   O39   1.301207 A    
N11   N12   1.333788 A    
C59   C64   1.418057 A    
O3    C4    1.297002 A    
C31   O13   1.347726 S    
C45   O15   1.349130 S    
O1    V2    1.978075 S    
C23   C30   1.404520 A    
C39   C40   1.399087 A    
N5    C20   1.371078 A    
C25   N13   1.433386 S    
C8    C9    1.403114 A    
O19   C86   1.297230 A    
O6    V2    1.972915 S    
O9    V2    1.979420 S    
N15   O33   1.301242 A    
C28   C29   1.406251 A    
N13   O30   1.301292 A    
C21   C22   1.405870 A    
C19   C23   1.410731 A    
O2    V1    1.979254 S    
N17   O37   1.301350 A    
C31   N6    1.371746 A    
C54   C55   1.423069 A    
C79   C80   1.403004 A    
C82   C83   1.401336 A    
C66   C67   1.407070 A    
C25   C26   1.423214 A    
N19   O41   1.301258 A    
C80   C81   1.407477 A    
C71   C72   1.407236 A    
O1    C2    1.296031 A    
C9    C10   1.407424 A    
C5    H17   1.082934 S    
C48   C49   1.405601 A    
C45   C49   1.410653 A    
O5    V1    1.976133 S    
C47   C50   1.404205 A    
C74   C75   1.402104 A    
N10   C77   1.360626 A    
N5    C44   1.445245 S    
N6    C32   1.368832 A    
C26   C31   1.420427 A    
C75   H29   1.083169 S    
C59   N18   1.440942 S    
C61   C62   1.404766 A    
C71   C76   1.421164 A    
C11   C18   1.492778 S    
C36   C37   1.403645 A    
C17   C18   1.404742 A    
C83   H16   1.082815 S    
C63   H25   1.082107 S    
C33   N14   1.443669 S    
O4    V1    1.978336 S    
O3    V1    1.977652 S    
V1    O10   1.701823 S    
O25   V3    2.149004 S    
C15   C87   1.495183 S    
C13   C14   1.402562 A    
C6    H21   1.082818 S    
C67   C86   1.487760 S    
C43   N16   1.444091 S    
O23   C87   1.296277 A    
C27   C28   1.411353 A    
V2    O10   2.154436 S    
C62   H11   1.083054 S    
C69   C70   1.403202 A    
O7    V1    2.149110 S    
N9    C78   1.359764 A    
C37   H7    1.083540 S    
O7    V2    1.705897 S    
C34   H6    1.082972 S    
N6    C38   1.446401 S    
N8    C64   1.446955 S    
C49   C56   1.402085 A    
O25   V4    1.705489 S    
C35   C36   1.418604 A    
C24   C25   1.402886 A    
C8    H1    1.082769 S    
C17   H4    1.083123 S    
C50   C51   1.395906 A    
C16   N21   1.435928 S    
C1    C61   1.488806 S    
C36   N15   1.436184 S    
N14   O31   1.301649 A    
N12   C78   1.360057 A    
N13   O29   1.301102 A    
N21   O45   1.300842 A    
C40   C41   1.403950 A    
C29   H18   1.083059 S    
C57   N8    1.369155 A    
C82   H30   1.082967 S    
N7    C70   1.446320 S    
C21   C24   1.401810 A    
O26   C87   1.302797 A    
C79   H14   1.082770 S    
N3    N4    1.334887 A    
C7    C12   1.492623 S    
