data_mof_unit_17388.cif
_audit_creation_date              2012-12-10T18:49:54-0500
_audit_creation_method            fapswitch 2.2
_symmetry_space_group_name_H-M    P1
_symmetry_Int_Tables_number       1
_space_group_crystal_system       triclinic
_cell_length_a                    10.726595
_cell_length_b                    9.848163
_cell_length_c                    10.723067
_cell_angle_alpha                 89.084521
_cell_angle_beta                  91.518874
_cell_angle_gamma                 90.247172
_cell_volume                      1132.20425834

loop_
_atom_site_label
_atom_site_type_symbol
_atom_type_description
_atom_site_fract_x
_atom_site_fract_y
_atom_site_fract_z
_atom_type_partial_charge
C1    C     C_R   0.259906 0.499957 0.496061 0.880058
C2    C     C_3   0.612532 0.578307 0.931283 -0.418957
C3    C     C_R   0.064117 0.383924 0.446829 -0.261303
C4    C     C_R   0.066173 0.624650 0.491243 -0.242556
C5    C     C_R   0.935479 0.385136 0.437758 0.079750
C6    C     C_R   0.938349 0.628988 0.479773 0.084449
C7    C     C_R   0.872008 0.505017 0.467645 -0.076008
C8    C     C_R   0.127805 0.501561 0.481073 -0.063036
C9    C     C_R   0.588333 0.071000 0.568051 0.134597
C10   C     C_R   0.584679 0.925997 0.572173 0.146368
C11   C     C_R   0.414683 0.929035 0.429116 -0.145275
C12   C     C_R   0.413495 0.072724 0.430581 -0.131366
C13   C     C_R   0.499295 0.500591 0.257872 0.879002
C14   C     C_R   0.739635 0.501028 0.488793 0.895518
C15   C     C_R   0.499464 0.498872 0.742513 0.849236
C16   C     C_3   0.368669 0.551160 0.069012 -0.090674
C17   C     C_3   0.516774 0.351058 0.076705 -0.049149
C18   C     C_3   0.372092 0.559867 0.923862 -0.107261
C19   C     C_3   0.504228 0.347143 0.933613 -0.112817
C20   C     C_3   0.604346 0.591948 0.072904 -0.416501
C21   C     C_3   0.497722 0.500144 0.121883 0.082987
C22   C     C_3   0.498290 0.496932 0.879141 0.060838
H1    H     H_    0.346490 0.875294 0.372236 0.146986
H2    H     H_    0.344296 0.127810 0.374981 0.130601
H3    H     H_    0.297988 0.472652 0.094134 0.101744
H4    H     H_    0.440212 0.286015 0.113746 0.120506
H5    H     H_    0.294146 0.494921 0.887636 0.107376
H6    H     H_    0.412449 0.298104 0.910566 0.114250
H7    H     H_    0.588286 0.699951 0.095795 0.181572
H8    H     H_    0.695310 0.564478 0.118549 0.159300
H9    H     H_    0.619598 0.680863 0.887752 0.178083
H10   H     H_    0.700781 0.526193 0.909455 0.164809
H11   H     H_    0.113642 0.291213 0.427380 0.151015
H12   H     H_    0.117247 0.718088 0.508001 0.157643
N1    N     N_R   0.499970 0.857200 0.499970 -0.082002
N2    N     N_R   0.499970 0.142800 0.499970 -0.075682
O1    O     O_R   0.316750 0.614620 0.499990 -0.633583
O2    O     O_R   0.316750 0.385380 0.499990 -0.634351
O3    O     O_R   0.499970 0.614670 0.314790 -0.617559
O4    O     O_R   0.499970 0.385330 0.314790 -0.619763
O5    O     O_R   0.683220 0.614710 0.500010 -0.589090
O6    O     O_R   0.683220 0.385290 0.500010 -0.571786
O7    O     O_R   0.500010 0.614660 0.685200 -0.612494
O8    O     O_R   0.500010 0.385340 0.685200 -0.618044
Zn1   Zn    Zn3+2 0.499980 0.653120 0.500000 0.953214
Zn2   Zn    Zn3+2 0.499980 0.346880 0.500000 0.960147
N3    N     N_3   0.328762 0.678044 0.126451 -0.442713
H13   H     H_    0.386566 0.759060 0.101515 0.207121
H14   H     H_    0.238051 0.700735 0.094744 0.196464
N4    N     N_3   0.635595 0.294442 0.126498 -0.422296
H15   H     H_    0.711585 0.335554 0.079718 0.201408
H16   H     H_    0.635470 0.189255 0.114349 0.197874
N5    N     N_3   0.347077 0.698644 0.876651 -0.465166
H17   H     H_    0.427276 0.758873 0.878792 0.204688
H18   H     H_    0.311356 0.695550 0.785069 0.206319
N6    N     N_3   0.602259 0.261104 0.883911 -0.471659
H19   H     H_    0.667296 0.316185 0.832655 0.209794
H20   H     H_    0.559537 0.187235 0.828345 0.205929
N7    N     N_3   0.870720 0.267648 0.391984 -0.427159
H21   H     H_    0.891419 0.258366 0.297777 0.172078
H22   H     H_    0.907514 0.181933 0.438113 0.161334
N8    N     N_3   0.877051 0.758615 0.477963 -0.434620
H23   H     H_    0.939905 0.837426 0.497555 0.152484
H24   H     H_    0.842815 0.776268 0.386950 0.185778
N9    N     N_3   0.689107 0.142305 0.627960 -0.406322
H25   H     H_    0.769497 0.119356 0.580315 0.171436
H26   H     H_    0.704170 0.102443 0.717678 0.130578
N10   N     N_3   0.665746 0.850475 0.655278 -0.391146
H27   H     H_    0.642970 0.874465 0.746450 0.135620
H28   H     H_    0.757501 0.881806 0.641977 0.171385

loop_
_geom_bond_atom_site_label_1
_geom_bond_atom_site_label_2
_ccdc_geom_bond_type
C17   N4    S    
C19   N6    S    
C9    N2    A    
N4    H16   S    
C11   C12   A    
C2    C22   S    
C16   C21   S    
C10   N10   S    
C2    C20   S    
C12   N2    A    
C1    C8    S    
C9    C10   A    
C12   H2    S    
N8    H24   S    
N3    H13   S    
C14   O6    A    
O3    Zn1   S    
C6    N8    S    
C11   N1    A    
N4    H15   S    
C15   O7    A    
N7    H21   S    
N3    H14   S    
C3    H11   S    
C20   H8    S    
N5    H17   S    
C20   C21   S    
N2    Zn2   S    
C19   H6    S    
O7    Zn1   S    
N8    H23   S    
C1    O2    A    
C14   O5    A    
C17   H4    S    
C16   N3    S    
C16   C18   S    
C2    H9    S    
C17   C19   S    
N6    H20   S    
C15   O8    A    
C3    C8    A    
C6    C7    A    
C9    N9    S    
C20   H7    S    
N5    H18   S    
C10   N1    A    
C4    H12   S    
O2    Zn2   S    
C4    C6    A    
C13   O3    A    
O4    Zn2   S    
C13   C21   S    
N1    Zn1   S    
C16   H3    S    
C19   C22   S    
N6    H19   S    
C2    H10   S    
N9    H25   S    
O6    Zn2   S    
N7    H22   S    
C11   H1    S    
C4    C8    A    
C5    C7    A    
N10   H28   S    
C5    N7    S    
N10   H27   S    
C13   O4    A    
O5    Zn1   S    
C18   N5    S    
C3    C5    A    
C18   C22   S    
O1    Zn1   S    
C15   C22   S    
C7    C14   S    
C18   H5    S    
O8    Zn2   S    
C1    O1    A    
N9    H26   S    
C17   C21   S    
