data_mof_unit_25932.cif
_audit_creation_date              2012-10-26T20:52:21-0400
_audit_creation_method            fapswitch 2.2
_symmetry_space_group_name_H-M    P1
_symmetry_Int_Tables_number       1
_space_group_crystal_system       triclinic
_cell_length_a                    15.974862
_cell_length_b                    14.75373
_cell_length_c                    10.930974
_cell_angle_alpha                 89.942369
_cell_angle_beta                  90.14512
_cell_angle_gamma                 89.75379
_cell_volume                      2576.27477097

loop_
_atom_site_label
_atom_site_type_symbol
_atom_type_description
_atom_site_fract_x
_atom_site_fract_y
_atom_site_fract_z
_atom_type_partial_charge
Br1   Br    Br    0.103291 0.694604 0.444207 -0.493284
Br2   Br    Br    0.893509 0.694667 0.454471 -0.442201
Br3   Br    Br    0.656460 0.110308 0.634656 -0.494318
Br4   Br    Br    0.348852 0.113555 0.355242 -0.526923
C1    C     C_R   0.340941 0.500206 0.499299 0.517496
C2    C     C_1   0.499910 0.197360 0.500806 0.228401
C3    C     C_R   0.500882 0.499781 0.264552 0.561426
C4    C     C_R   0.496081 0.499587 0.735105 0.580520
C5    C     C_2   0.494473 0.425445 0.934211 0.230762
C6    C     C_2   0.478172 0.429052 0.066386 0.265300
C7    C     C_2   0.474094 0.497632 0.863670 0.258291
C8    C     C_2   0.509800 0.498587 0.132647 0.278171
C9    C     C_R   0.955459 0.583265 0.476428 0.145185
C10   C     C_R   0.043315 0.583551 0.473689 0.153720
C11   C     C_R   0.912819 0.501324 0.496036 -0.031050
C12   C     C_R   0.659125 0.499837 0.501105 0.531213
C13   C     C_R   0.087525 0.502365 0.493679 -0.037119
C14   C     C_R   0.957080 0.419614 0.511702 0.249679
C15   C     C_R   0.044887 0.421010 0.516276 0.228648
C16   C     C_1   0.823165 0.500439 0.499141 0.031718
C17   C     C_1   0.177132 0.501902 0.494385 0.019230
C18   C     C_1   0.252077 0.500961 0.496505 -0.008959
C19   C     C_1   0.748144 0.499794 0.500549 0.007726
C20   C     C_3   0.498582 0.277515 0.865008 0.051159
C21   C     C_3   0.531886 0.198346 0.941626 -0.237872
C22   C     C_3   0.483933 0.111320 0.914586 -0.472113
C23   C     C_R   0.562960 0.951426 0.562861 0.237594
C24   C     C_3   0.357675 0.346439 0.095103 -0.001356
C25   C     C_3   0.304389 0.392516 0.193426 -0.243251
C26   C     C_3   0.211184 0.384502 0.164748 -0.468098
C27   C     C_3   0.339452 0.548459 0.890703 -0.008773
C28   C     C_3   0.297587 0.626271 0.821129 -0.249619
C29   C     C_3   0.204220 0.608570 0.803328 -0.474113
C30   C     C_3   0.636770 0.548380 0.061353 -0.017782
C31   C     C_3   0.689502 0.588501 0.164909 -0.259226
C32   C     C_3   0.782547 0.569813 0.145626 -0.470159
C33   C     C_3   0.915752 0.283816 0.429128 0.043084
C34   C     C_R   0.429903 0.952316 0.454716 0.247520
C35   C     C_3   0.839642 0.302998 0.347241 -0.282067
C36   C     C_3   0.834032 0.235268 0.242221 -0.462039
C37   C     C_3   0.107824 0.335022 0.664038 0.027203
C38   C     C_3   0.186489 0.276837 0.680707 -0.248426
C39   C     C_3   0.212821 0.271548 0.814894 -0.497264
C40   C     C_3   0.606219 0.882450 0.738036 0.021934
C41   C     C_3   0.674333 0.821923 0.793379 -0.235232
C42   C     C_3   0.652670 0.793594 0.923808 -0.471882
C43   C     C_3   0.292548 0.913844 0.486556 0.044308
C44   C     C_3   0.298209 0.848151 0.595325 -0.287835
C45   C     C_R   0.497453 0.902983 0.505837 -0.048162
C46   C     C_3   0.223163 0.859825 0.680090 -0.460241
C47   C     C_R   0.433142 0.048684 0.447210 0.124620
C48   C     C_R   0.564064 0.047605 0.560287 0.128650
C49   C     C_R   0.499248 0.097183 0.502429 -0.065647
C50   C     C_1   0.498877 0.802674 0.502142 0.213686
Cu1   Cu    Cu3+1 0.500000 0.589220 0.500000 1.017326
Cu2   Cu    Cu3+1 0.500000 0.410780 0.500000 1.018308
H1    H     H_    0.507473 0.260223 0.767062 0.185754
H2    H     H_    0.317350 0.360174 0.283361 0.221341
H3    H     H_    0.320994 0.465431 0.199472 0.150455
H4    H     H_    0.196429 0.418263 0.076341 0.133659
H5    H     H_    0.174261 0.417780 0.238110 0.172785
H6    H     H_    0.192760 0.312087 0.159612 0.169980
H7    H     H_    0.309530 0.542058 0.981919 0.151462
H8    H     H_    0.327151 0.484071 0.839796 0.079411
H9    H     H_    0.306007 0.690426 0.872799 0.182463
H10   H     H_    0.327619 0.633876 0.730179 0.187775
H11   H     H_    0.194516 0.542920 0.756118 0.141766
H12   H     H_    0.429762 0.285115 0.878549 0.095952
H13   H     H_    0.175875 0.662979 0.746437 0.182410
H14   H     H_    0.172001 0.606909 0.893220 0.159058
H15   H     H_    0.657143 0.578853 0.973405 0.161144
H16   H     H_    0.649228 0.474022 0.053581 0.136958
H17   H     H_    0.678810 0.662894 0.169749 0.198927
H18   H     H_    0.670369 0.558037 0.253173 0.171698
H19   H     H_    0.794652 0.495641 0.143034 0.142461
H20   H     H_    0.818961 0.599319 0.222310 0.200002
H21   H     H_    0.803996 0.600948 0.058676 0.160260
H22   H     H_    0.912639 0.212419 0.461103 0.185590
H23   H     H_    0.599250 0.187390 0.920809 0.200882
H24   H     H_    0.974596 0.289596 0.374897 0.151226
H25   H     H_    0.781500 0.299089 0.402631 0.211650
H26   H     H_    0.844471 0.372297 0.308207 0.145688
H27   H     H_    0.891160 0.238738 0.184721 0.153110
H28   H     H_    0.778769 0.251629 0.184319 0.163939
H29   H     H_    0.826954 0.165339 0.278363 0.180439
H30   H     H_    0.054453 0.302304 0.711768 0.173469
H31   H     H_    0.119590 0.402221 0.707625 0.109263
H32   H     H_    0.174549 0.207313 0.645871 0.187797
H33   H     H_    0.238582 0.306650 0.626936 0.190403
H34   H     H_    0.526118 0.214422 0.040443 0.218510
H35   H     H_    0.226525 0.340377 0.850561 0.127767
H36   H     H_    0.270215 0.229280 0.823703 0.141912
H37   H     H_    0.162377 0.240565 0.870557 0.160369
H38   H     H_    0.545773 0.844972 0.741118 0.112502
H39   H     H_    0.600472 0.945155 0.794178 0.157271
H40   H     H_    0.681867 0.760127 0.736220 0.196066
H41   H     H_    0.734744 0.859042 0.794110 0.205527
H42   H     H_    0.644748 0.854252 0.982854 0.163515
H43   H     H_    0.704134 0.751192 0.961762 0.153140
H44   H     H_    0.594015 0.753385 0.924621 0.193760
H45   H     H_    0.416780 0.119915 0.938300 0.158362
H46   H     H_    0.235500 0.897277 0.432866 0.206266
H47   H     H_    0.283546 0.984330 0.520613 0.154612
H48   H     H_    0.300634 0.777166 0.561459 0.205122
H49   H     H_    0.355885 0.861573 0.649119 0.138116
H50   H     H_    0.218729 0.931026 0.712498 0.152394
H51   H     H_    0.230651 0.815358 0.761196 0.151603
H52   H     H_    0.164380 0.841659 0.631789 0.208173
H53   H     H_    0.510315 0.054895 0.970057 0.165059
H54   H     H_    0.489325 0.093334 0.816249 0.151447
H55   H     H_    0.342071 0.273133 0.093395 0.183100
H56   H     H_    0.340952 0.373441 0.003148 0.075811
N1    N     N_1   0.500000 0.276710 0.500000 -0.169358
N2    N     N_1   0.500000 0.723290 0.500000 -0.183946
O1    O     O_R   0.380310 0.575320 0.500020 -0.498256
O2    O     O_3   0.443745 0.354041 0.124147 -0.573359
O3    O     O_3   0.425404 0.568101 0.908982 -0.561623
O4    O     O_3   0.551099 0.570565 0.077682 -0.561206
O5    O     O_3   0.914118 0.339943 0.534196 -0.543331
O6    O     O_3   0.089235 0.341735 0.537724 -0.558304
O7    O     O_3   0.628649 0.904691 0.616681 -0.507596
O8    O     O_3   0.362355 0.905146 0.407293 -0.521818
O9    O     O_R   0.619690 0.575320 0.499980 -0.490515
O10   O     O_R   0.380310 0.424640 0.499970 -0.512629
O11   O     O_R   0.619690 0.424640 0.500030 -0.484091
O12   O     O_R   0.500000 0.575320 0.321940 -0.474499
O13   O     O_R   0.500000 0.575320 0.678060 -0.491496
O14   O     O_R   0.500000 0.424640 0.321880 -0.472303
O15   O     O_R   0.500000 0.424640 0.678120 -0.505470
O16   O     O_3   0.545743 0.356546 0.890093 -0.577645

loop_
_geom_bond_atom_site_label_1
_geom_bond_atom_site_label_2
_ccdc_geom_bond_type
C30   O4    S    
C11   C14   A    
C42   H43   S    
C31   H18   S    
C37   C38   S    
C36   H28   S    
C31   C32   S    
C36   H27   S    
Cu1   Cu2   S    
C23   O7    S    
C34   C45   A    
C5    O16   S    
C24   H56   S    
C37   H30   S    
C1    O10   A    
C21   H34   S    
Cu2   O10   S    
C24   C25   S    
C12   O9    A    
C14   C15   A    
C32   H21   S    
C22   H45   S    
C45   C50   S    
C44   H48   S    
C40   O7    S    
C30   H15   S    
C30   C31   S    
Br2   C9    S    
C27   O3    S    
C32   H20   S    
C13   C15   A    
C1    C18   S    
C44   H49   S    
C20   H1    S    
C26   H4    S    
Cu2   N1    S    
C16   C19   T    
C3    O14   A    
C24   O2    S    
C12   O11   A    
C22   H54   S    
Cu2   O15   S    
C29   H13   S    
C44   C46   S    
C42   H42   S    
C37   O6    S    
C43   H46   S    
C9    C10   A    
C1    O1    A    
C46   H52   S    
C10   C13   A    
C11   C16   S    
C24   H55   S    
C3    C8    S    
C37   H31   S    
C33   H24   S    
Cu1   O9    S    
C43   H47   S    
Br4   C47   S    
C27   H7    S    
C20   C21   S    
C35   H25   S    
C35   C36   S    
C43   O8    S    
C34   C47   A    
C21   C22   S    
C41   C42   S    
C39   H35   S    
C47   C49   A    
C36   H29   S    
C2    N1    T    
C25   C26   S    
C32   H19   S    
C4    O13   A    
C43   C44   S    
C33   O5    S    
Cu1   O12   S    
Cu2   O11   S    
C5    C7    D    
C22   H53   S    
C34   O8    S    
C6    C8    D    
C29   H14   S    
C8    O4    S    
Cu1   O13   S    
C15   O6    S    
C12   C19   S    
C9    C11   A    
C46   H51   S    
C38   H32   S    
C38   C39   S    
C2    C49   S    
C7    O3    S    
C30   H16   S    
C6    O2    S    
C23   C48   A    
C29   H11   S    
C28   H10   S    
C5    C6    S    
C42   H44   S    
C31   H17   S    
C21   H23   S    
C27   H8    S    
C27   C28   S    
C40   C41   S    
C35   H26   S    
Br3   C48   S    
Cu1   N2    S    
C33   H22   S    
C39   H36   S    
C38   H33   S    
C28   C29   S    
C26   H6    S    
C33   C35   S    
C40   H39   S    
C41   H41   S    
Cu1   O1    S    
C4    C7    S    
C50   N2    T    
C39   H37   S    
Cu2   O14   S    
C3    O12   A    
C13   C17   S    
C40   H38   S    
C20   H12   S    
C20   O16   S    
C25   H2    S    
C26   H5    S    
C4    O15   A    
C46   H50   S    
C25   H3    S    
Br1   C10   S    
C17   C18   T    
C41   H40   S    
C14   O5    S    
C23   C45   A    
C48   C49   A    
C28   H9    S    
