data_mof_unit_42683.cif
_audit_creation_date              2012-12-11T14:49:55-0500
_audit_creation_method            fapswitch 2.2
_symmetry_space_group_name_H-M    P1
_symmetry_Int_Tables_number       1
_space_group_crystal_system       triclinic
_cell_length_a                    16.900653
_cell_length_b                    16.702947
_cell_length_c                    19.524165
_cell_angle_alpha                 117.905546
_cell_angle_beta                  63.405173
_cell_angle_gamma                 100.583756
_cell_volume                      4352.94843807

loop_
_atom_site_label
_atom_site_type_symbol
_atom_type_description
_atom_site_fract_x
_atom_site_fract_y
_atom_site_fract_z
_atom_type_partial_charge
C1    C     C_R   0.023894 0.761915 0.028569 -0.090418
C2    C     C_R   0.236306 0.579750 0.837126 0.561824
C3    C     C_R   0.193960 0.436549 0.036847 -0.129517
C4    C     C_R   0.749188 0.473240 0.171577 -0.131559
C5    C     C_R   0.046800 0.326409 0.752900 -0.128644
C6    C     C_R   0.274581 0.448086 0.977209 0.061499
C7    C     C_R   0.039427 0.240077 0.747984 0.071190
C8    C     C_R   0.231331 0.558459 0.761519 -0.047619
C9    C     C_R   0.987166 0.231402 0.043659 0.066770
C10   C     C_R   0.140043 0.161756 0.594124 -0.259310
C11   C     C_R   0.084877 0.157299 0.671530 0.115448
C12   C     C_R   0.744936 0.529399 0.252204 0.075173
C13   C     C_R   0.064707 0.072513 0.672756 -0.259174
C14   C     C_R   0.084269 0.993901 0.596453 0.142715
C15   C     C_R   0.126723 0.000675 0.518634 0.026616
C16   C     C_R   0.815388 0.509873 0.912865 -0.136920
C17   C     C_R   0.159051 0.084135 0.517323 0.139722
C18   C     C_R   0.053064 0.910420 0.597083 -0.209153
C19   C     C_R   0.054970 0.836591 0.522283 -0.209710
C20   C     C_R   0.087698 0.846118 0.446684 0.142153
C21   C     C_R   0.127939 0.926747 0.443615 0.026614
C22   C     C_R   0.160630 0.936916 0.367868 0.141479
C23   C     C_R   0.740840 0.460804 0.936581 0.060902
C24   C     C_R   0.201184 0.017183 0.365315 -0.206259
C25   C     C_R   0.200729 0.090535 0.439834 -0.205430
C26   C     C_R   0.072802 0.780119 0.376948 -0.259852
C27   C     C_R   0.094816 0.795126 0.305443 0.116086
C28   C     C_R   0.011182 0.659921 0.240766 -0.137196
C29   C     C_R   0.144391 0.870509 0.298832 -0.260428
C30   C     C_R   0.374358 0.497068 0.651221 -0.297409
C31   C     C_R   0.303400 0.555449 0.685906 0.123944
C32   C     C_R   0.300528 0.606401 0.647423 -0.255159
C33   C     C_R   0.372985 0.602176 0.573931 0.130437
C34   C     C_R   0.059430 0.736582 0.241980 0.074641
C35   C     C_R   0.447202 0.546301 0.540656 0.023977
C36   C     C_R   0.447426 0.493272 0.579511 0.148774
C37   C     C_R   0.373215 0.653198 0.533787 -0.205584
C38   C     C_R   0.447180 0.649473 0.461016 -0.203029
C39   C     C_R   0.521412 0.595369 0.428669 0.141123
C40   C     C_R   0.749111 0.432361 0.989244 -0.134294
C41   C     C_R   0.521399 0.543652 0.468917 0.026401
C42   C     C_R   0.595854 0.489190 0.437413 0.142060
C43   C     C_R   0.595336 0.436636 0.476119 -0.209491
C44   C     C_R   0.520876 0.438347 0.547004 -0.210172
C45   C     C_R   0.260109 0.514683 0.960325 -0.131810
C46   C     C_R   0.595972 0.591485 0.356657 -0.268901
C47   C     C_R   0.669149 0.538559 0.327672 0.108085
C48   C     C_R   0.669708 0.487812 0.367160 -0.267679
C49   C     C_R   0.672145 0.433552 0.903899 0.139187
C50   C     C_R   0.360576 0.403622 0.942100 0.101297
C51   C     C_R   0.453988 0.323146 0.957210 0.114548
C52   C     C_R   0.078593 0.738703 0.165815 -0.136006
C53   C     C_R   0.369945 0.344556 0.970751 -0.211029
C54   C     C_R   0.435830 0.429437 0.887546 -0.285973
C55   C     C_R   0.518553 0.417189 0.880157 0.176560
C56   C     C_R   0.978939 0.247041 0.827992 -0.130271
C57   C     C_R   0.527579 0.368253 0.919096 0.104821
C58   C     C_R   0.607047 0.373999 0.926744 -0.281235
C59   C     C_R   0.665691 0.473473 0.857400 -0.175327
C60   C     C_R   0.589911 0.463421 0.843753 -0.206233
C61   C     C_R   0.804896 0.189043 0.187341 0.097905
C62   C     C_R   0.927692 0.866195 0.029407 0.133657
C63   C     C_R   0.846232 0.955969 0.011490 -0.232411
C64   C     C_R   0.829534 0.543048 0.248304 -0.143208
C65   C     C_R   0.886179 0.873929 0.984238 -0.169943
C66   C     C_R   0.929889 0.943135 0.101901 -0.280837
C67   C     C_R   0.156949 0.510035 0.760236 -0.250001
C68   C     C_R   0.889468 0.025710 0.129971 0.187801
C69   C     C_R   0.846682 0.031945 0.084675 0.189939
C70   C     C_R   0.804450 0.113907 0.113949 -0.272393
C71   C     C_R   0.847651 0.183241 0.231766 -0.167125
C72   C     C_R   0.889881 0.101987 0.203366 -0.222532
C73   C     C_R   0.944619 0.692081 0.951497 -0.132684
C74   C     C_R   0.965223 0.777344 0.003043 0.037746
C75   C     C_3   0.366711 0.654906 0.830806 -0.284988
C76   C     C_3   0.465090 0.260575 0.989759 -0.434075
C77   C     C_3   0.385037 0.203045 0.015101 -0.245968
C78   C     C_R   0.026172 0.312937 0.075771 -0.139370
C79   C     C_3   0.407831 0.134237 0.034906 -0.922828
C80   C     C_R   0.947723 0.244504 0.000631 -0.131131
H1    H     H_    0.055180 0.812157 0.067731 0.094942
H2    H     H_    0.021729 0.903943 0.656240 0.128872
H3    H     H_    0.694686 0.444527 0.153770 0.103008
H4    H     H_    0.025263 0.774236 0.524917 0.127992
H5    H     H_    0.037565 0.720942 0.382258 0.116331
H6    H     H_    0.164504 0.881717 0.243129 0.119489
H7    H     H_    0.228030 0.025240 0.307112 0.131389
H8    H     H_    0.227045 0.154085 0.437940 0.132086
H9    H     H_    0.372977 0.456176 0.681607 0.119708
H10   H     H_    0.243000 0.649516 0.675279 0.132455
H11   H     H_    0.316478 0.695962 0.558756 0.133422
H12   H     H_    0.956668 0.192778 0.846619 0.092642
H13   H     H_    0.446655 0.689215 0.430455 0.134410
H14   H     H_    0.597637 0.629266 0.323520 0.132591
H15   H     H_    0.837080 0.530965 0.862814 0.085560
H16   H     H_    0.727293 0.445667 0.341646 0.128517
H17   H     H_    0.652359 0.394441 0.451603 0.129809
H18   H     H_    0.520987 0.397680 0.576914 0.132029
H19   H     H_    0.614507 0.339133 0.958020 0.115331
H20   H     H_    0.716022 0.517356 0.836404 0.112099
H21   H     H_    0.583719 0.499578 0.812440 0.120485
H22   H     H_    0.311372 0.319824 0.007697 0.112478
H23   H     H_    0.130916 0.489173 0.713046 0.134351
H24   H     H_    0.430333 0.469216 0.859249 0.114551
H25   H     H_    0.771118 0.120007 0.080346 0.119973
H26   H     H_    0.996193 0.628713 0.282505 0.086132
H27   H     H_    0.847778 0.241884 0.288429 0.116011
H28   H     H_    0.814268 0.959738 0.975738 0.125610
H29   H     H_    0.922339 0.098633 0.238904 0.127555
H30   H     H_    0.884284 0.816513 0.927649 0.114111
H31   H     H_    0.960823 0.938528 0.138028 0.120694
H32   H     H_    0.710548 0.382966 0.010757 0.085070
H33   H     H_    0.125622 0.781190 0.139568 0.101199
H34   H     H_    0.052978 0.330904 0.121855 0.091498
H35   H     H_    0.848869 0.578541 0.300781 0.104870
H36   H     H_    0.901073 0.677430 0.920363 0.094503
H37   H     H_    0.307091 0.542037 0.918078 0.126675
H38   H     H_    0.380023 0.678694 0.782355 0.172901
H39   H     H_    0.399213 0.587450 0.801257 0.114781
H40   H     H_    0.397339 0.703595 0.873827 0.174969
H41   H     H_    0.461661 0.086519 0.977680 0.260860
H42   H     H_    0.429183 0.169451 0.087922 0.260958
H43   H     H_    0.348562 0.094726 0.054224 0.250380
H44   H     H_    0.329356 0.247547 0.073093 0.191902
H45   H     H_    0.901752 0.199045 0.977104 0.089810
H46   H     H_    0.363585 0.165898 0.962189 0.203415
H47   H     H_    0.522201 0.213121 0.938200 0.194203
H48   H     H_    0.481111 0.302071 0.045764 0.184920
H49   H     H_    0.181411 0.391362 0.065485 0.090871
H50   H     H_    0.087382 0.347066 0.703335 0.098850
H51   H     H_    0.161102 0.226093 0.592214 0.120217
H52   H     H_    0.026466 0.067569 0.732196 0.118579
N1    N     N_R   0.036080 0.671900 0.995420 -0.037792
N2    N     N_R   0.867430 0.509300 0.948100 -0.037806
N3    N     N_R   0.003360 0.617250 0.167070 -0.041552
N4    N     N_R   0.825450 0.461270 0.995400 -0.039007
N5    N     N_R   0.045340 0.665280 0.119770 -0.040209
N6    N     N_R   0.883740 0.497640 0.167070 -0.042114
N7    N     N_R   0.987050 0.628910 0.948110 -0.041511
N8    N     N_R   0.174550 0.538730 0.004600 -0.037305
N9    N     N_R   0.954660 0.334720 0.880230 -0.041154
N10   N     N_R   0.116260 0.502360 0.832930 -0.066642
N11   N     N_R   0.012950 0.371090 0.051890 -0.040386
N12   N     N_R   0.963920 0.328100 0.004580 -0.040401
N13   N     N_R   0.165290 0.545350 0.880240 -0.090918
N14   N     N_R   0.132570 0.490700 0.051900 -0.043175
N15   N     N_R   0.996640 0.382750 0.832930 -0.038980
N16   N     N_R   0.834710 0.454650 0.119760 -0.042001
Ni1   Ni    Ni4+2 0.104370 0.604370 0.000010 0.260756
Ni2   Ni    Ni4+2 0.895630 0.395630 0.999990 0.207218
Ni3   Ni    Ni4+2 0.991920 0.505780 0.891500 0.205887
Ni4   Ni    Ni4+2 0.008080 0.494220 0.108500 0.206280
O1    O     O_3   0.275049 0.655720 0.879734 -0.626059

loop_
_geom_bond_atom_site_label_1
_geom_bond_atom_site_label_2
_ccdc_geom_bond_type
C61   C70   A    
C66   C68   A    
C63   C65   A    
C5    N15   A    
C6    C45   A    
C71   H27   S    
C27   C29   A    
C28   N3    A    
C41   C42   A    
C14   C18   A    
C35   C36   A    
C3    C6    A    
C16   N2    A    
N3    Ni4   S    
C67   H23   S    
C39   C41   A    
C64   N6    A    
C52   H33   S    
C2    N13   A    
C7    C11   S    
C40   N4    A    
C26   C27   A    
C50   C54   A    
C73   H36   S    
C1    C74   A    
C54   H24   S    
C22   C29   A    
N16   Ni2   S    
C30   H9    S    
C30   C31   A    
C12   C64   A    
C23   C49   S    
C80   H45   S    
C10   C17   A    
C1    H1    S    
C23   C40   A    
C4    N16   A    
C15   C17   A    
C18   C19   A    
C73   C74   A    
C10   H51   S    
N12   Ni2   S    
C33   C35   A    
C54   C55   A    
C44   H18   S    
C32   H10   S    
C63   C69   A    
N6    N16   A    
C68   C69   A    
C80   N12   A    
C51   C57   A    
C13   C14   A    
C66   H31   S    
C4    C12   A    
C61   C71   A    
C28   C34   A    
C59   C60   A    
C64   H35   S    
C21   C22   A    
C59   H20   S    
N10   N13   A    
N5    Ni1   S    
C78   H34   S    
C75   H38   S    
C28   H26   S    
C7    C56   A    
C12   C47   S    
C1    N1    A    
N9    Ni2   S    
C77   C79   S    
C27   C34   S    
C79   H42   S    
C50   C53   A    
C62   C66   A    
N1    Ni1   S    
C76   C77   S    
C40   H32   S    
N8    N14   A    
C5    C7    A    
C37   H11   S    
N2    N4    A    
C73   N7    A    
N6    Ni4   S    
C79   H43   S    
C25   H8    S    
C33   C37   A    
C49   C58   A    
C51   C53   A    
C9    C80   A    
N10   Ni3   S    
N15   Ni3   S    
C43   C44   A    
C37   C38   A    
C79   H41   S    
C75   O1    S    
C47   C48   A    
C46   H14   S    
C15   C21   A    
C53   H22   S    
C68   C72   A    
C52   N5    A    
C75   H39   S    
C42   C48   A    
C24   C25   A    
C29   H6    S    
C8    C67   A    
C39   C46   A    
N14   Ni4   S    
C56   N9    A    
C5    H50   S    
N1    N7    A    
C16   C23   A    
C55   C57   A    
C76   H48   S    
C22   C24   A    
C36   C44   A    
C42   C43   A    
C60   H21   S    
C45   H37   S    
N3    N5    A    
C72   H29   S    
N11   Ni4   S    
C16   H15   S    
C48   H16   S    
C62   C65   A    
C3    H49   S    
C8    C31   S    
C31   C32   A    
C2    C8    A    
C58   H19   S    
C43   H17   S    
C70   H25   S    
N4    Ni2   S    
C2    O1    S    
C34   C52   A    
C49   C59   A    
C30   C36   A    
C17   C25   A    
C32   C33   A    
C19   C20   A    
N11   N12   A    
C71   C72   A    
C77   H44   S    
C78   N11   A    
C11   C13   A    
C57   C58   A    
C38   C39   A    
C4    H3    S    
C20   C26   A    
C26   H5    S    
N2    Ni3   S    
C38   H13   S    
N7    Ni3   S    
C18   H2    S    
C13   H52   S    
C9    C78   A    
C45   N8    A    
C75   H40   S    
C69   C70   A    
C35   C41   A    
C24   H7    S    
C65   H30   S    
C46   C47   A    
C10   C11   A    
N9    N15   A    
C6    C50   S    
C56   H12   S    
C20   C21   A    
C3    N14   A    
C51   C76   S    
C76   H47   S    
C14   C15   A    
C62   C74   S    
C63   H28   S    
C55   C60   A    
C67   N10   A    
N8    Ni1   S    
N13   Ni1   S    
C77   H46   S    
C19   H4    S    
