data_mof_unit_31974.cif
_audit_creation_date              2012-12-11T14:56:44-0500
_audit_creation_method            fapswitch 2.2
_symmetry_space_group_name_H-M    P1
_symmetry_Int_Tables_number       1
_space_group_crystal_system       triclinic
_cell_length_a                    10.530058
_cell_length_b                    10.669792
_cell_length_c                    17.077844
_cell_angle_alpha                 80.358396
_cell_angle_beta                  89.577732
_cell_angle_gamma                 119.208235
_cell_volume                      1642.2583624

loop_
_atom_site_label
_atom_site_type_symbol
_atom_type_description
_atom_site_fract_x
_atom_site_fract_y
_atom_site_fract_z
_atom_type_partial_charge
C1    C     C_R   0.278642 0.888676 0.132661 0.556677
C2    C     C_1   0.684226 0.400970 0.709893 0.036339
C3    C     C_R   0.621647 0.713319 0.805155 -0.099341
C4    C     C_R   0.636168 0.280254 0.086196 0.537832
C5    C     C_R   0.603081 0.697208 0.727429 0.346825
C6    C     C_R   0.665977 0.821557 0.665519 0.042700
C7    C     C_R   0.745593 0.961792 0.682645 -0.111632
C8    C     C_R   0.757459 0.977897 0.761511 -0.111917
C9    C     C_R   0.690457 0.853208 0.822811 -0.041382
C10   C     C_R   0.087470 0.889046 0.790696 -0.089010
C11   C     C_R   0.074101 0.889092 0.710966 0.369777
C12   C     C_R   0.798458 0.422179 0.262826 -0.127261
C13   C     C_R   0.112150 0.802494 0.672984 0.023909
C14   C     C_R   0.154701 0.709326 0.717343 -0.194840
C15   C     C_R   0.173304 0.713868 0.797297 -0.147532
C16   C     C_R   0.643289 0.855738 0.124296 0.545203
C17   C     C_R   0.147119 0.810290 0.832578 -0.039204
C18   C     C_R   0.711353 0.772815 0.353423 0.552057
C19   C     C_R   0.689325 0.396128 0.394624 0.545807
C20   C     C_R   0.108314 0.812541 0.359914 0.540856
C21   C     C_R   0.676899 0.799793 0.585554 0.560804
C22   C     C_R   0.716951 0.445742 0.626008 0.576826
C23   C     C_R   0.788293 0.409309 0.184131 -0.129857
C24   C     C_R   0.087369 0.797883 0.590248 0.560329
C25   C     C_R   0.215634 0.857607 0.902876 0.558350
C26   C     C_R   0.640337 0.290447 0.861861 0.544059
C27   C     C_R   0.647935 0.866928 0.899633 0.541231
C28   C     C_R   0.524243 0.302402 0.206179 -0.129838
C29   C     C_R   0.534803 0.317224 0.285270 -0.135548
C30   C     C_R   0.671315 0.370643 0.314412 0.029273
C31   C     C_R   0.650691 0.341757 0.156754 0.027354
C32   C     C_1   0.684843 0.831681 0.201707 -0.028685
C33   C     C_1   0.703534 0.807683 0.270347 -0.030344
C34   C     C_1   0.227452 0.854027 0.215389 -0.043105
C35   C     C_1   0.178866 0.834558 0.283028 -0.044487
C36   C     C_1   0.661919 0.357106 0.780432 0.002046
Cr1   Cr    Cr6+3 0.402240 0.783890 0.019450 1.027940
Cr2   Cr    Cr6+3 0.382360 0.097900 0.991800 1.037556
Cr3   Cr    Cr6+3 0.715380 0.118170 0.988700 1.030033
Cr4   Cr    Cr6+3 0.936650 0.882420 0.465510 1.068323
Cr5   Cr    Cr6+3 0.605770 0.565620 0.493360 1.082324
Cr6   Cr    Cr6+3 0.921340 0.550490 0.496380 1.027327
F1    F     F_    0.027193 0.977425 0.671120 -0.623348
F2    F     F_    0.523829 0.559296 0.713393 -0.630327
H1    H     H_    0.416568 0.250548 0.185641 0.142953
H2    H     H_    0.063558 0.961280 0.817642 0.161875
H3    H     H_    0.178825 0.638092 0.689606 0.162548
H4    H     H_    0.437060 0.283340 0.323974 0.137072
H5    H     H_    0.906391 0.472453 0.283240 0.147206
H6    H     H_    0.886958 0.442847 0.146295 0.142378
H7    H     H_    0.569321 0.616274 0.852061 0.153143
H8    H     H_    0.798135 0.057822 0.635202 0.164996
H9    H     H_    0.218286 0.650591 0.829457 0.165582
H10   H     H_    0.809981 0.087276 0.774357 0.160173
O1    O     O_R   0.521780 0.757110 0.108900 -0.513274
O2    O     O_R   0.805020 0.410040 0.421340 -0.514235
O3    O     O_R   0.049240 0.685450 0.403290 -0.500090
O4    O     O_R   0.275160 0.783810 0.101120 -0.493492
O5    O     O_R   0.077520 0.903010 0.551800 -0.432837
O6    O     O_R   0.802980 0.872780 0.546830 -0.476890
O7    O     O_R   0.578090 0.681300 0.569920 -0.449940
O8    O     O_R   0.608530 0.436370 0.586530 -0.438328
O9    O     O_R   0.798770 0.401880 0.597100 -0.523321
O10   O     O_R   0.043450 0.677890 0.566230 -0.530035
O11   O     O_3   0.821250 0.666180 0.485090 -0.317121
O12   O     O_R   0.513330 0.228330 0.898660 -0.479212
O13   O     O_R   0.237900 0.972600 0.090980 -0.510345
O14   O     O_R   0.511190 0.220540 0.061620 -0.524731
O15   O     O_R   0.736920 0.257720 0.063840 -0.514435
O16   O     O_R   0.710450 0.984050 0.081720 -0.493330
O17   O     O_R   0.524090 0.765520 0.933110 -0.519758
O18   O     O_R   0.277300 0.791600 0.938160 -0.497615
O19   O     O_R   0.240210 0.981010 0.915190 -0.508049
O20   O     O_R   0.739230 0.266130 0.888050 -0.519830
O21   O     O_R   0.712580 0.991850 0.918770 -0.499101
O22   O     O_3   0.499990 0.999980 0.999980 -0.268899
O23   O     O_R   0.083770 0.911170 0.376030 -0.515202
O24   O     O_R   0.808770 0.880340 0.383890 -0.492340
O25   O     O_R   0.584340 0.689460 0.394160 -0.505427
O26   O     O_R   0.614320 0.443940 0.423590 -0.514182

loop_
_geom_bond_atom_site_label_1
_geom_bond_atom_site_label_2
_ccdc_geom_bond_type
C19   O2    A    
Cr4   O6    S    
Cr5   O7    S    
Cr5   O26   S    
C12   H5    S    
C7    C8    A    
Cr2   O22   S    
C12   C23   A    
C20   O23   A    
C15   H9    S    
C28   C29   A    
C7    H8    S    
C5    C6    A    
C10   C17   A    
C34   C35   T    
Cr3   O20   S    
Cr6   O2    S    
C22   O9    A    
C20   C35   S    
Cr2   O12   S    
C18   O25   A    
C10   H2    S    
Cr6   O11   S    
C11   F1    S    
Cr3   O21   S    
C21   O7    A    
Cr1   O4    S    
C24   O10   A    
Cr4   O5    S    
C13   C14   A    
Cr5   O8    S    
C27   O21   A    
Cr6   O3    S    
C4    O15   A    
C1    C34   S    
C28   H1    S    
C29   H4    S    
C26   O12   A    
C16   O16   A    
C21   O6    A    
C8    H10   S    
C4    O14   A    
C3    H7    S    
C8    C9    A    
C23   H6    S    
Cr5   O11   S    
C6    C21   S    
C13   C24   S    
C23   C31   A    
C2    C22   S    
C29   C30   A    
C3    C9    A    
C22   O8    A    
C18   O24   A    
Cr3   O15   S    
C25   O18   A    
Cr3   O22   S    
C6    C7    A    
C26   C36   S    
C5    F2    S    
Cr2   O14   S    
Cr4   O11   S    
Cr1   O17   S    
Cr4   O24   S    
Cr6   O10   S    
C27   O17   A    
C9    C27   S    
C2    C36   T    
C15   C17   A    
C12   C30   A    
C14   C15   A    
Cr1   O22   S    
C28   C31   A    
C3    C5    A    
Cr5   O25   S    
C14   H3    S    
C1    O13   A    
C16   C32   S    
C17   C25   S    
C32   C33   T    
C16   O1    A    
C1    O4    A    
C11   C13   A    
C24   O5    A    
C26   O20   A    
Cr3   O16   S    
C25   O19   A    
C19   O26   A    
C18   C33   S    
C4    C31   S    
C10   C11   A    
Cr1   O1    S    
Cr2   O13   S    
Cr1   O18   S    
Cr4   O23   S    
C20   O3    A    
C19   C30   S    
Cr6   O9    S    
Cr2   O19   S    
