data_mof_unit_52795.cif
_audit_creation_date              2012-12-10T17:21:18-0500
_audit_creation_method            fapswitch 2.2
_symmetry_space_group_name_H-M    P1
_symmetry_Int_Tables_number       1
_space_group_crystal_system       triclinic
_cell_length_a                    9.673252
_cell_length_b                    10.936062
_cell_length_c                    13.853974
_cell_angle_alpha                 96.522051
_cell_angle_beta                  84.427532
_cell_angle_gamma                 88.102132
_cell_volume                      1447.76310758

loop_
_atom_site_label
_atom_site_type_symbol
_atom_type_description
_atom_site_fract_x
_atom_site_fract_y
_atom_site_fract_z
_atom_type_partial_charge
C1    C     C_R   0.498453 0.736605 0.493122 0.799907
C2    C     C_1   0.462106 0.509468 0.787244 -0.175392
C3    C     C_R   0.237003 0.898763 0.491057 -0.139506
C4    C     C_R   0.117073 0.971832 0.523531 -0.186439
C5    C     C_R   0.126751 0.087258 0.574790 -0.130442
C6    C     C_R   0.256556 0.136188 0.581923 -0.087524
C7    C     C_R   0.378108 0.070841 0.535084 0.044078
C8    C     C_R   0.370239 0.944200 0.504012 0.042648
C9    C     C_R   0.495267 0.870261 0.483194 -0.217716
C10   C     C_R   0.622643 0.927855 0.465797 0.200101
C11   C     C_R   0.628708 0.056293 0.484710 0.198836
C12   C     C_R   0.476809 0.502513 0.683070 0.789454
C13   C     C_R   0.504809 0.129218 0.515734 -0.242653
C14   C     C_R   0.876065 0.366829 0.349905 -0.163039
C15   C     C_R   0.947470 0.338446 0.259315 -0.404817
C16   C     C_R   0.091722 0.344161 0.248489 0.323300
C17   C     C_R   0.161869 0.365709 0.335137 0.440523
C18   C     C_R   0.086043 0.433755 0.421705 0.000185
C19   C     C_R   0.936756 0.432626 0.425521 0.089670
C20   C     C_R   0.914348 0.573956 0.568198 0.327841
C21   C     C_R   0.061509 0.564728 0.572518 0.297021
C22   C     C_R   0.501350 0.263688 0.508189 0.854021
C23   C     C_R   0.522943 0.500898 0.317424 0.828336
C24   C     C_1   0.536407 0.510860 0.215429 -0.204707
C25   C     C_2   0.556525 0.535821 0.026835 0.342699
C26   C     C_2   0.441400 0.523376 0.979946 0.347214
C27   C     C_1   0.451261 0.516330 0.874934 -0.035387
C28   C     C_1   0.546246 0.521904 0.129926 -0.069858
Cu1   Cu    Cu3+1 0.359340 0.500010 0.500010 0.953594
Cu2   Cu    Cu3+1 0.640660 0.499990 0.499990 0.934557
H1    H     H_    0.772312 0.336730 0.358736 0.228880
H2    H     H_    0.888857 0.308239 0.199070 0.161224
H3    H     H_    0.222896 0.810800 0.450301 0.160393
H4    H     H_    0.016378 0.938172 0.510010 0.133481
H5    H     H_    0.033815 0.140975 0.605800 0.129474
H6    H     H_    0.260433 0.226141 0.622825 0.137205
N1    N     N_R   0.852210 0.498790 0.499090 -0.231724
N2    N     N_R   0.148080 0.498710 0.499060 -0.230874
O1    O     O_R   0.381190 0.680360 0.500010 -0.616903
O2    O     O_R   0.618760 0.680340 0.500000 -0.584333
O3    O     O_R   0.364420 0.499990 0.637850 -0.590461
O4    O     O_R   0.601990 0.499960 0.637840 -0.584973
O5    O     O_R   0.381240 0.319660 0.500000 -0.513163
O6    O     O_R   0.618810 0.319640 0.499990 -0.566295
O7    O     O_R   0.398010 0.500040 0.362160 -0.526992
O8    O     O_R   0.635580 0.500010 0.362150 -0.598648
O9    O     O_3   0.313642 0.510279 0.031329 -0.561909
C29   C     C_3   0.245323 0.627746 0.053587 0.070924
H7    H     H_    0.202608 0.656087 0.987397 0.133218
H8    H     H_    0.315902 0.699380 0.081477 0.111109
C30   C     C_3   0.126314 0.622045 0.133022 -0.725343
H9    H     H_    0.167654 0.597289 0.200638 0.253524
H10   H     H_    0.069921 0.713235 0.149613 0.167440
H11   H     H_    0.052649 0.552107 0.108546 0.263474
O10   O     O_3   0.167033 0.334037 0.156394 -0.565990
C31   C     C_3   0.113459 0.247953 0.086865 0.081224
H12   H     H_    0.026699 0.292285 0.054463 0.162283
H13   H     H_    0.077293 0.164531 0.119561 0.114120
C32   C     C_3   0.227049 0.205579 0.004907 -0.779412
H14   H     H_    0.317788 0.164445 0.034943 0.226062
H15   H     H_    0.186802 0.135177 0.951762 0.188876
H16   H     H_    0.260797 0.284443 0.966046 0.282705
O11   O     O_3   0.288638 0.303752 0.343353 -0.537412
C33   C     C_3   0.345655 0.224708 0.259423 0.114901
H17   H     H_    0.385277 0.280390 0.201281 0.207460
H18   H     H_    0.268726 0.158080 0.233904 0.146518
C34   C     C_3   0.470185 0.148418 0.281298 -0.869350
H19   H     H_    0.436060 0.082391 0.332677 0.258086
H20   H     H_    0.518405 0.094515 0.212839 0.195127
H21   H     H_    0.549281 0.209079 0.311163 0.239132
N3    N     N_2   0.117167 0.627076 0.654634 -0.414469
H22   H     H_    0.210188 0.668175 0.642569 0.289187
C35   C     C_3   0.093108 0.571669 0.744520 -0.643803
H23   H     H_    0.139241 0.628120 0.803948 0.207776
H24   H     H_    0.140216 0.476627 0.735990 0.234290
H25   H     H_    0.980012 0.566905 0.765423 0.251060
O12   O     O_3   0.683245 0.554523 0.974919 -0.587846
C36   C     C_3   0.759016 0.640947 0.029898 0.073757
H26   H     H_    0.799797 0.599662 0.091877 0.155978
H27   H     H_    0.693328 0.725541 0.058363 0.127760
C37   C     C_3   0.881772 0.678930 0.964956 -0.822362
H28   H     H_    0.845319 0.713978 0.899242 0.259462
H29   H     H_    0.936487 0.752895 0.005453 0.194811
H30   H     H_    0.955195 0.598363 0.942543 0.252143
N4    N     N_2   0.744874 0.858692 0.422567 -0.421299
H31   H     H_    0.800501 0.810705 0.466774 0.277817
C38   C     C_3   0.743675 0.805450 0.322064 -0.671921
H32   H     H_    0.665286 0.734192 0.315800 0.231147
H33   H     H_    0.847691 0.762369 0.294562 0.213803
H34   H     H_    0.719375 0.878325 0.275782 0.217592
N5    N     N_2   0.760852 0.110673 0.485949 -0.392836
H35   H     H_    0.810303 0.093359 0.545898 0.236163
C39   C     C_3   0.853567 0.097693 0.396270 -0.641799
H36   H     H_    0.939861 0.160473 0.405560 0.223824
H37   H     H_    0.796828 0.117915 0.333589 0.219757
H38   H     H_    0.905913 0.005479 0.380216 0.237844
N6    N     N_2   0.832485 0.661658 0.637874 -0.412511
H39   H     H_    0.727288 0.662124 0.640517 0.310576
C40   C     C_3   0.878407 0.786183 0.657530 -0.742294
H40   H     H_    0.797336 0.854101 0.642724 0.205865
H41   H     H_    0.974657 0.800859 0.611758 0.237884
H42   H     H_    0.896813 0.804398 0.735550 0.253080

loop_
_geom_bond_atom_site_label_1
_geom_bond_atom_site_label_2
_ccdc_geom_bond_type
C38   H32   S    
C10   N4    S    
C39   H36   S    
C23   O7    A    
C35   H23   S    
C14   H1    S    
O10   C31   S    
C2    C12   S    
N6    H39   S    
C7    C8    A    
N4    H31   S    
C25   C28   S    
C26   C27   S    
C12   O3    A    
C21   N3    S    
C25   O12   S    
C5    C6    A    
C36   H27   S    
C3    H3    S    
C15   C16   A    
C31   H12   S    
C18   C19   A    
C12   O4    A    
C19   N1    A    
C1    O2    A    
N6    C40   S    
C29   C30   S    
C22   O6    A    
C20   N6    S    
C40   H40   S    
C6    H6    S    
C8    C9    A    
Cu1   N2    S    
O9    C29   S    
C23   C24   S    
C2    C27   T    
C9    C10   A    
C29   H8    S    
C32   H14   S    
C39   H37   S    
C23   O8    A    
Cu1   O5    S    
C35   H24   S    
Cu2   O6    S    
C37   H29   S    
C37   H28   S    
N4    C38   S    
C4    H4    S    
C32   H15   S    
C21   N2    A    
C30   H9    S    
C33   C34   S    
C15   H2    S    
C1    C9    S    
C3    C8    A    
N5    H35   S    
N3    C35   S    
C36   H26   S    
C16   C17   A    
C25   C26   D    
O12   C36   S    
C34   H19   S    
Cu2   N1    S    
Cu1   O7    S    
C30   H10   S    
C33   H18   S    
Cu1   Cu2   S    
N5    C39   S    
C22   O5    A    
Cu1   O1    S    
C17   C18   A    
Cu2   O2    S    
C26   O9    S    
C29   H7    S    
C40   H41   S    
C39   H38   S    
C38   H33   S    
C35   H25   S    
C3    C4    A    
C37   H30   S    
C32   H16   S    
Cu1   O3    S    
C14   C19   A    
Cu2   O8    S    
C24   C28   T    
C4    C5    A    
C6    C7    A    
C31   C32   S    
C30   H11   S    
C33   H17   S    
C34   H21   S    
C18   N2    A    
C16   O10   S    
N3    H22   S    
C17   O11   S    
C20   N1    A    
C11   C13   A    
C36   C37   S    
C5    H5    S    
C31   H13   S    
C13   C22   S    
C10   C11   A    
C1    O1    A    
O11   C33   S    
C11   N5    S    
C7    C13   A    
C40   H42   S    
C20   C21   A    
C38   H34   S    
C14   C15   A    
Cu2   O4    S    
C34   H20   S    
