data_mof_unit_25737.cif
_audit_creation_date              2012-12-10T17:57:24-0500
_audit_creation_method            fapswitch 2.2
_symmetry_space_group_name_H-M    P1
_symmetry_Int_Tables_number       1
_space_group_crystal_system       triclinic
_cell_length_a                    9.593556
_cell_length_b                    10.803542
_cell_length_c                    13.478412
_cell_angle_alpha                 91.450164
_cell_angle_beta                  72.998096
_cell_angle_gamma                 88.123339
_cell_volume                      1334.30148951

loop_
_atom_site_label
_atom_site_type_symbol
_atom_type_description
_atom_site_fract_x
_atom_site_fract_y
_atom_site_fract_z
_atom_type_partial_charge
C1    C     C_R   0.501429 0.737482 0.494683 0.761129
C2    C     C_R   0.433585 0.511907 0.979815 0.094975
C3    C     C_R   0.467453 0.542479 0.873882 0.095149
C4    C     C_R   0.539597 0.530597 0.033513 0.050212
C5    C     C_R   0.671867 0.588536 0.983621 0.120189
C6    C     C_R   0.693657 0.630231 0.883225 -0.261924
C7    C     C_R   0.592011 0.610499 0.830513 -0.196527
C8    C     C_R   0.518434 0.492526 0.135346 -0.250844
C9    C     C_R   0.751081 0.569203 0.138299 -0.193776
C10   C     C_R   0.374537 0.505673 0.814557 -0.108336
C11   C     C_R   0.633570 0.931762 0.431749 0.099306
C12   C     C_R   0.421750 0.504520 0.700010 0.769766
C13   C     C_R   0.631826 0.061692 0.438887 -0.187613
C14   C     C_R   0.505972 0.128971 0.496032 -0.047439
C15   C     C_R   0.380595 0.068982 0.547437 -0.178510
C16   C     C_R   0.381512 0.941618 0.544084 -0.234373
C17   C     C_R   0.505470 0.871872 0.487838 -0.053345
C18   C     C_R   0.896811 0.588283 0.554081 -0.044868
C19   C     C_R   0.045109 0.594089 0.551028 0.210773
C20   C     C_R   0.098907 0.408237 0.448485 -0.060492
C21   C     C_R   0.951121 0.409341 0.447269 -0.035097
C22   C     C_R   0.502193 0.262565 0.498941 0.796996
C23   C     C_R   0.577684 0.500701 0.300575 0.798607
C24   C     C_R   0.778031 0.606042 0.036601 0.143136
C25   C     C_R   0.619818 0.516293 0.188668 -0.102843
C26   C     C_R   0.238804 0.457881 0.864864 -0.203212
C27   C     C_R   0.198015 0.440860 0.970955 -0.129971
C28   C     C_R   0.294476 0.465032 0.027830 -0.178386
Cu1   Cu    Cu3+1 0.359340 0.499980 0.500000 0.934364
Cu2   Cu    Cu3+1 0.640660 0.500020 0.500000 0.930713
H1    H     H_    0.830185 0.587455 0.179497 0.165226
H2    H     H_    0.726128 0.112237 0.399096 0.128164
H3    H     H_    0.282814 0.120670 0.592386 0.149244
H4    H     H_    0.286532 0.897717 0.588730 0.157749
H5    H     H_    0.816774 0.658591 0.595776 0.120936
H6    H     H_    0.173994 0.334859 0.406464 0.129575
H7    H     H_    0.916164 0.336761 0.404319 0.117124
H8    H     H_    0.789714 0.678221 0.843919 0.152072
H9    H     H_    0.422799 0.445013 0.176166 0.150346
H10   H     H_    0.164742 0.430957 0.821759 0.151319
H11   H     H_    0.255082 0.448316 0.109527 0.122991
H12   H     H_    0.092227 0.405176 0.009012 0.146836
H13   H     H_    0.611464 0.652270 0.756071 0.159216
N1    N     N_R   0.147940 0.499970 0.499970 -0.162358
N2    N     N_R   0.852060 0.500060 0.499990 -0.168957
O1    O     O_R   0.381250 0.680340 0.500010 -0.589473
O2    O     O_R   0.618820 0.680370 0.500010 -0.602569
O3    O     O_R   0.323240 0.499950 0.650980 -0.589445
O4    O     O_R   0.560810 0.499980 0.650980 -0.569178
O5    O     O_R   0.381180 0.319630 0.499990 -0.586180
O6    O     O_R   0.618750 0.319660 0.499990 -0.579935
O7    O     O_R   0.439190 0.500020 0.349020 -0.577832
O8    O     O_R   0.676760 0.500050 0.349020 -0.589842
C29   C     C_3   0.079186 0.718091 0.592951 -0.391678
C30   C     C_3   0.114091 0.713585 0.697357 -0.282243
C31   C     C_3   0.055128 0.829408 0.767068 -0.945081
H14   H     H_    0.096088 0.915236 0.727429 0.257248
H15   H     H_    0.934430 0.836596 0.789357 0.251623
H16   H     H_    0.090711 0.824913 0.838229 0.259531
H17   H     H_    0.066938 0.630723 0.739671 0.211040
H18   H     H_    0.233330 0.709225 0.683913 0.239920
H19   H     H_    0.157848 0.765755 0.531449 0.201486
H20   H     H_    0.983668 0.784214 0.605311 0.160741
N3    N     N_3   0.911612 0.665507 0.990908 -0.616759
H21   H     H_    0.968316 0.616296 0.922616 0.225990
H22   H     H_    0.886146 0.755651 0.973686 0.223355
C32   C     C_3   0.768261 0.856999 0.365612 -0.375602
C33   C     C_3   0.883838 0.930969 0.288925 -0.402615
C34   C     C_3   0.004998 0.845131 0.219811 -0.814792
H23   H     H_    0.057581 0.788833 0.267839 0.252571
H24   H     H_    0.960278 0.782493 0.171294 0.269425
H25   H     H_    0.088976 0.901175 0.167646 0.243708
H26   H     H_    0.832282 0.984768 0.238772 0.226699
H27   H     H_    0.934419 0.995696 0.332386 0.215622
H28   H     H_    0.822051 0.810394 0.418082 0.213319
H29   H     H_    0.731377 0.784781 0.319756 0.203704

loop_
_geom_bond_atom_site_label_1
_geom_bond_atom_site_label_2
_ccdc_geom_bond_type
Cu2   O6    S    
Cu2   N2    S    
C4    C8    A    
C12   O4    A    
C9    C25   A    
C26   C27   A    
C3    C7    A    
C5    C6    A    
C1    O1    A    
C29   H20   S    
C33   H27   S    
C15   C16   A    
C28   H11   S    
C31   H14   S    
C18   C19   A    
C34   H24   S    
C13   H2    S    
C16   H4    S    
C33   C34   S    
C16   C17   A    
C6    H8    S    
C8    H9    S    
C7    H13   S    
C18   H5    S    
C12   O3    A    
C22   O5    A    
C10   C26   A    
C24   N3    S    
C13   C14   A    
C8    C25   A    
C20   N1    A    
C11   C32   S    
C23   O8    A    
C21   N2    A    
Cu1   O5    S    
Cu2   O8    S    
Cu1   O3    S    
C32   C33   S    
Cu2   O2    S    
C1    O2    A    
C29   H19   S    
C33   H26   S    
N3    H22   S    
C34   H25   S    
C2    C4    A    
Cu1   Cu2   S    
C30   C31   S    
C10   C12   S    
C19   C29   S    
Cu2   O4    S    
Cu1   N1    S    
C32   H28   S    
C18   N2    A    
C19   N1    A    
C29   C30   S    
C11   C17   A    
C4    C5    A    
C9    C24   A    
C6    C7    A    
C1    C17   S    
C31   H16   S    
Cu1   O1    S    
N3    H21   S    
C14   C22   S    
C2    C3    A    
C3    C10   A    
C11   C13   A    
C27   H12   S    
C26   H10   S    
C23   O7    A    
C5    C24   A    
C30   H18   S    
C31   H15   S    
C23   C25   S    
C34   H23   S    
C9    H1    S    
C20   H6    S    
C21   H7    S    
C20   C21   A    
C27   C28   A    
C14   C15   A    
C2    C28   A    
C32   H29   S    
C30   H17   S    
C15   H3    S    
C22   O6    A    
Cu1   O7    S    
