data_mof_unit_64587.cif
_audit_creation_date              2012-12-10T16:58:35-0500
_audit_creation_method            fapswitch 2.2
_symmetry_space_group_name_H-M    P1
_symmetry_Int_Tables_number       1
_space_group_crystal_system       triclinic
_cell_length_a                    13.163646
_cell_length_b                    13.126085
_cell_length_c                    15.550655
_cell_angle_alpha                 108.730332
_cell_angle_beta                  74.602903
_cell_angle_gamma                 91.345113
_cell_volume                      2447.69953673

loop_
_atom_site_label
_atom_site_type_symbol
_atom_type_description
_atom_site_fract_x
_atom_site_fract_y
_atom_site_fract_z
_atom_type_partial_charge
C1    C     C_R   0.217889 0.540721 0.535858 0.900618
C2    C     C_R   0.532658 0.494105 0.112729 -0.255391
C3    C     C_R   0.572188 0.306657 0.090918 -0.194034
C4    C     C_R   0.780414 0.458602 0.465158 0.833772
C5    C     C_R   0.443837 0.583653 0.854773 -0.073850
C6    C     C_2   0.893066 0.444041 0.451263 -0.259325
C7    C     C_2   0.935763 0.486005 0.522863 -0.299916
C8    C     C_2   0.102356 0.549845 0.554004 -0.453070
C9    C     C_2   0.050555 0.471191 0.506428 0.569638
C10   C     C_2   0.539177 0.894544 0.535579 -0.419966
C11   C     C_2   0.465012 0.951141 0.521860 0.561952
C12   C     C_R   0.430787 0.726883 0.002337 -0.154257
C13   C     C_2   0.446936 0.107444 0.469831 -0.315347
C14   C     C_2   0.486314 0.061747 0.520932 -0.292470
C15   C     C_R   0.468464 0.218839 0.473499 0.839630
C16   C     C_R   0.529453 0.781239 0.527373 0.923341
C17   C     C_R   0.544127 0.441796 0.247681 0.796163
C18   C     C_R   0.455203 0.554917 0.752728 0.775008
C19   C     C_R   0.558729 0.276551 0.000832 -0.196397
C20   C     C_R   0.557672 0.414994 0.147158 0.008450
C21   C     C_R   0.423336 0.692652 0.910199 -0.192116
C22   C     C_3   0.286473 0.948780 0.571165 -0.295225
C23   C     C_R   0.461546 0.653838 0.040088 -0.179579
C24   C     C_3   0.086341 0.290764 0.466676 -0.267203
C25   C     C_R   0.481080 0.542605 0.987266 0.082975
C26   C     C_R   0.465774 0.506865 0.895232 0.086668
C27   C     C_R   0.514419 0.465457 0.022822 0.078219
C28   C     C_R   0.527298 0.354308 0.967323 0.174832
C29   C     C_R   0.503963 0.320710 0.880749 -0.252047
C30   C     C_R   0.471380 0.395327 0.846240 -0.199405
H1    H     H_    0.589487 0.244964 0.118468 0.134278
H2    H     H_    0.521488 0.575876 0.160258 0.134258
H3    H     H_    0.405467 0.752567 0.881048 0.160246
H4    H     H_    0.468239 0.687329 0.111081 0.136712
H5    H     H_    0.415893 0.811510 0.043974 0.146264
H6    H     H_    0.448255 0.363584 0.781528 0.169032
H7    H     H_    0.217761 0.904340 0.554261 0.187550
H8    H     H_    0.270513 0.034367 0.578392 0.154980
H9    H     H_    0.292445 0.942379 0.639395 0.167327
H10   H     H_    0.002218 0.271135 0.476955 0.159707
H11   H     H_    0.110094 0.303647 0.532818 0.139578
H12   H     H_    0.886994 0.534009 0.592032 0.138364
H13   H     H_    0.135034 0.219901 0.411927 0.188418
H14   H     H_    0.058546 0.621265 0.608191 0.118017
H15   H     H_    0.942389 0.404419 0.380117 0.176550
H16   H     H_    0.538959 0.105173 0.561361 0.167111
H17   H     H_    0.396492 0.063756 0.427228 0.186025
H18   H     H_    0.612927 0.929441 0.544572 0.096241
H19   H     H_    0.509156 0.235777 0.840003 0.144082
H20   H     H_    0.568211 0.191803 0.958964 0.134502
O1    O     O_3   0.500000 0.500000 0.500000 -0.490857
O2    O     O_R   0.468210 0.402800 0.293550 -0.630374
O3    O     O_R   0.410220 0.615430 0.721590 -0.649359
O4    O     O_R   0.602670 0.506150 0.290200 -0.638121
O5    O     O_R   0.518910 0.475630 0.694660 -0.644260
O6    O     O_3   0.377698 0.901633 0.497453 -0.598522
O7    O     O_3   0.105291 0.380700 0.435169 -0.566366
O8    O     O_R   0.526920 0.270960 0.524520 -0.640632
O9    O     O_R   0.454490 0.752910 0.584610 -0.631120
O10   O     O_R   0.270990 0.462040 0.468400 -0.576017
O11   O     O_R   0.747590 0.514090 0.422470 -0.638976
O12   O     O_R   0.265290 0.607490 0.589320 -0.650975
O13   O     O_R   0.716130 0.416380 0.519810 -0.630243
O14   O     O_R   0.423930 0.265320 0.430520 -0.646735
O15   O     O_R   0.594650 0.710810 0.460350 -0.637660
Zn1   Zn    Zn3+2 0.564370 0.417180 0.558730 0.952550
Zn2   Zn    Zn3+2 0.417220 0.409120 0.424430 0.997592
Zn3   Zn    Zn3+2 0.609330 0.556780 0.419650 0.980153
Zn4   Zn    Zn3+2 0.409080 0.616930 0.597190 0.969013

loop_
_geom_bond_atom_site_label_1
_geom_bond_atom_site_label_2
_ccdc_geom_bond_type
C8    C9    D    
C10   C16   S    
C22   O6    S    
C15   O14   A    
C3    C19   A    
C6    C7    D    
C19   C28   A    
C6    H15   S    
O4    Zn3   S    
C25   C27   A    
C1    C8    S    
O11   Zn3   S    
C30   H6    S    
O15   Zn3   S    
O3    Zn4   S    
C1    O12   A    
C23   H4    S    
C23   C25   A    
O13   Zn1   S    
C3    C20   A    
C14   H16   S    
O1    Zn2   S    
C13   C14   D    
C12   H5    S    
C3    H1    S    
C24   H11   S    
C17   O4    A    
C12   C23   A    
C29   C30   A    
O2    Zn2   S    
C18   O5    A    
O9    Zn4   S    
C22   H9    S    
C4    O11   A    
C17   O2    A    
C4    O13   A    
C28   C29   A    
C24   H10   S    
C26   C30   A    
C16   O15   A    
C9    O7    S    
O1    Zn3   S    
C13   C15   S    
C2    C27   A    
C10   H18   S    
C15   O8    A    
C1    O10   A    
C4    C6    S    
C21   H3    S    
C10   C11   D    
O1    Zn1   S    
C2    C20   A    
C5    C26   A    
C22   H8    S    
O14   Zn2   S    
C19   H20   S    
C27   C28   A    
C17   C20   S    
C5    C21   A    
O10   Zn2   S    
C2    H2    S    
C7    H12   S    
C11   C14   S    
C7    C9    S    
C24   H13   S    
C24   O7    S    
C29   H19   S    
C5    C18   S    
O1    Zn4   S    
C18   O3    A    
C25   C26   A    
C22   H7    S    
C13   H17   S    
C12   C21   A    
O8    Zn1   S    
C11   O6    S    
C8    H14   S    
O12   Zn4   S    
O5    Zn1   S    
C16   O9    A    
