data_mof_unit_34031.cif
_audit_creation_date              2012-12-11T16:16:24-0500
_audit_creation_method            fapswitch 2.2
_symmetry_space_group_name_H-M    P1
_symmetry_Int_Tables_number       1
_space_group_crystal_system       triclinic
_cell_length_a                    7.275199
_cell_length_b                    25.886014
_cell_length_c                    28.598121
_cell_angle_alpha                 90.018056
_cell_angle_beta                  89.674172
_cell_angle_gamma                 89.933723
_cell_volume                      5385.67599834

loop_
_atom_site_label
_atom_site_type_symbol
_atom_type_description
_atom_site_fract_x
_atom_site_fract_y
_atom_site_fract_z
_atom_type_partial_charge
O1    O     O_R   0.600980 0.796780 0.202430 -0.534636
O2    O     O_R   0.399020 0.203220 0.797570 -0.533906
O3    O     O_R   0.399020 0.203220 0.702430 -0.533901
O4    O     O_R   0.600980 0.796780 0.297570 -0.533713
O5    O     O_R   0.100980 0.703220 0.297570 -0.533941
O6    O     O_R   0.899020 0.296780 0.702430 -0.534636
O7    O     O_R   0.899020 0.296780 0.797570 -0.534594
O8    O     O_R   0.100980 0.703220 0.202430 -0.533742
O9    O     O_R   0.271240 0.802920 0.297240 -0.539201
O10   O     O_R   0.728760 0.197080 0.702760 -0.540003
O11   O     O_R   0.728760 0.197080 0.797240 -0.538529
O12   O     O_R   0.271240 0.802920 0.202760 -0.539811
O13   O     O_R   0.771240 0.697080 0.202760 -0.538458
O14   O     O_R   0.228760 0.302920 0.797240 -0.539376
O15   O     O_R   0.228760 0.302920 0.702760 -0.539362
O16   O     O_R   0.771240 0.697080 0.297240 -0.540267
C1    C     C_R   0.439214 0.815426 0.312549 0.683425
C2    C     C_R   0.560778 0.184679 0.687358 0.683800
C3    C     C_R   0.560081 0.184480 0.812444 0.683134
C4    C     C_R   0.440187 0.815291 0.187216 0.684198
C5    C     C_R   0.940018 0.684475 0.187570 0.683652
C6    C     C_R   0.059718 0.315279 0.812785 0.685474
C7    C     C_R   0.060683 0.315319 0.687319 0.684522
C8    C     C_R   0.939400 0.684740 0.312700 0.683126
O17   O     O_3   0.434470 0.717290 0.250000 -0.374800
O18   O     O_3   0.565530 0.282710 0.750000 -0.374986
O19   O     O_3   0.934470 0.782710 0.250000 -0.375051
O20   O     O_3   0.065530 0.217290 0.750000 -0.374825
V1    V     V_3+5 0.159620 0.756070 0.250000 1.387680
V2    V     V_3+5 0.840380 0.243930 0.750000 1.387989
V3    V     V_3+5 0.659620 0.743930 0.250000 1.387854
V4    V     V_3+5 0.340380 0.256070 0.750000 1.388246
C9    C     C_R   0.111569 0.620053 0.361572 -0.165120
C10   C     C_R   0.896856 0.359778 0.621102 -0.167683
C11   C     C_R   0.878534 0.362944 0.874356 -0.154393
C12   C     C_R   0.092999 0.643478 0.117576 -0.167756
C13   C     C_R   0.621248 0.862932 0.125681 -0.154384
C14   C     C_R   0.407010 0.143534 0.882404 -0.167619
C15   C     C_R   0.393110 0.117083 0.640889 -0.163271
C16   C     C_R   0.594737 0.856739 0.381224 -0.173491
H1    H     H_    0.234460 0.626740 0.340909 0.130913
H2    H     H_    0.775663 0.336603 0.627764 0.126650
H3    H     H_    0.755766 0.342181 0.864337 0.130715
H4    H     H_    0.203559 0.671350 0.119683 0.125826
H5    H     H_    0.744095 0.842140 0.135709 0.130677
H6    H     H_    0.296291 0.171423 0.880258 0.125812
H7    H     H_    0.272622 0.122358 0.662797 0.131152
H8    H     H_    0.707773 0.829726 0.377655 0.125273
C17   C     C_R   0.119344 0.584459 0.398262 -0.173676
C18   C     C_R   0.894487 0.394731 0.583821 -0.179523
C19   C     C_R   0.865362 0.398415 0.911009 -0.189967
C20   C     C_R   0.095175 0.607164 0.081333 -0.156655
C21   C     C_R   0.634368 0.898400 0.089040 -0.189880
C22   C     C_R   0.404754 0.107221 0.918637 -0.156678
C23   C     C_R   0.386485 0.080762 0.604725 -0.177834
C24   C     C_R   0.598938 0.892804 0.417494 -0.156517
H9    H     H_    0.247246 0.564274 0.404601 0.127952
H10   H     H_    0.771317 0.396970 0.562994 0.141094
H11   H     H_    0.736213 0.403757 0.928285 0.131750
H12   H     H_    0.208997 0.607634 0.056740 0.137155
H13   H     H_    0.763570 0.903701 0.071798 0.131612
H14   H     H_    0.290747 0.107727 0.943174 0.137161
H15   H     H_    0.261865 0.058660 0.599847 0.126185
H16   H     H_    0.717294 0.892336 0.440269 0.148087
C25   C     C_R   0.964306 0.574163 0.426204 0.015438
C26   C     C_R   0.047167 0.426152 0.573090 -0.005020
C27   C     C_R   0.017043 0.426948 0.925588 0.020107
C28   C     C_R   0.955054 0.570062 0.076986 -0.008423
C29   C     C_R   0.482599 0.926976 0.074434 0.019870
C30   C     C_R   0.545002 0.070076 0.923040 -0.008493
C31   C     C_R   0.538617 0.072315 0.575284 0.005234
C32   C     C_R   0.456455 0.929181 0.424177 -0.019961
C33   C     C_R   0.797985 0.601015 0.416978 0.092239
C34   C     C_R   0.209532 0.419551 0.600297 0.095305
C35   C     C_R   0.189284 0.417273 0.904144 0.105368
C36   C     C_R   0.807662 0.570218 0.110055 0.099302
C37   C     C_R   0.310366 0.917350 0.095870 0.105662
C38   C     C_R   0.692623 0.070206 0.890026 0.099522
C39   C     C_R   0.701372 0.101329 0.582723 0.137377
C40   C     C_R   0.304210 0.928233 0.392538 0.088703
C41   C     C_R   0.791348 0.636041 0.379197 -0.176036
C42   C     C_R   0.208957 0.384171 0.637846 -0.181591
C43   C     C_R   0.202909 0.381235 0.867122 -0.177013
C44   C     C_R   0.807041 0.607858 0.146006 -0.154690
C45   C     C_R   0.296803 0.881314 0.132880 -0.177655
C46   C     C_R   0.693344 0.107859 0.854092 -0.154680
C47   C     C_R   0.706936 0.137265 0.619796 -0.181364
C48   C     C_R   0.302132 0.890458 0.356559 -0.154322
H17   H     H_    0.664964 0.656856 0.372442 0.119831
H18   H     H_    0.332577 0.379725 0.658444 0.127258
H19   H     H_    0.335531 0.374078 0.850956 0.121793
H20   H     H_    0.697264 0.608988 0.171548 0.118760
H21   H     H_    0.164182 0.874195 0.149025 0.121344
H22   H     H_    0.803301 0.108969 0.828603 0.118653
H23   H     H_    0.830981 0.159622 0.625079 0.120503
H24   H     H_    0.189493 0.888602 0.332227 0.118529
C49   C     C_R   0.947285 0.646141 0.351357 -0.067239
C50   C     C_R   0.054153 0.354039 0.648689 -0.065413
C51   C     C_R   0.047344 0.353928 0.851559 -0.070163
C52   C     C_R   0.948020 0.644588 0.150027 -0.074007
C53   C     C_R   0.452423 0.853951 0.148453 -0.070084
C54   C     C_R   0.552208 0.144619 0.850011 -0.074043
C55   C     C_R   0.553597 0.145701 0.649028 -0.071057
C56   C     C_R   0.445991 0.854824 0.350546 -0.070859
N1    N     N_R   0.862813 0.496411 0.469856 -0.294096
N2    N     N_R   0.147165 0.504661 0.528830 -0.317740
N3    N     N_R   0.035844 0.515395 0.958568 -0.291264
N4    N     N_R   0.927237 0.481740 0.043218 -0.316768
N5    N     N_R   0.463411 0.015430 0.041422 -0.291264
N6    N     N_R   0.572954 0.981729 0.956820 -0.316827
N7    N     N_R   0.631380 0.993666 0.531691 -0.294494
N8    N     N_R   0.361427 0.008056 0.469437 -0.316545
N9    N     N_R   0.884571 0.461649 0.503823 -0.298225
N10   N     N_R   0.126508 0.539232 0.494719 -0.312786
N11   N     N_R   0.022357 0.548652 0.994107 -0.286100
N12   N     N_R   0.940570 0.448455 0.007705 -0.300507
N13   N     N_R   0.477051 0.048675 0.005896 -0.286016
N14   N     N_R   0.559459 0.948454 0.992320 -0.300376
N15   N     N_R   0.610461 0.960360 0.496508 -0.295481
N16   N     N_R   0.381523 0.041332 0.504611 -0.298701
C57   C     C_R   0.028026 0.464711 0.534086 0.514292
C58   C     C_R   0.983244 0.536041 0.464710 0.511667
C59   C     C_R   0.966375 0.532655 0.037179 0.481081
C60   C     C_R   0.994556 0.464644 0.964591 0.501266
C61   C     C_R   0.533537 0.032662 0.962847 0.480947
C62   C     C_R   0.505017 0.964662 0.035415 0.501263
C63   C     C_R   0.475036 0.966701 0.464304 0.499547
C64   C     C_R   0.518277 0.035134 0.536155 0.517201
C65   C     C_3   0.629378 0.595953 0.448011 -0.374137
C66   C     C_3   0.658743 0.622520 0.495365 -0.317924
C67   C     C_3   0.482705 0.622539 0.524604 -0.718195
H25   H     H_    0.372055 0.643956 0.506271 0.234382
H26   H     H_    0.436745 0.582367 0.531187 0.266104
H27   H     H_    0.508563 0.641535 0.558749 0.212739
H28   H     H_    0.768051 0.602409 0.515300 0.204294
H29   H     H_    0.702460 0.663189 0.489629 0.201042
H30   H     H_    0.509304 0.614398 0.430857 0.172980
H31   H     H_    0.592396 0.554746 0.452900 0.207793
C68   C     C_3   0.391397 0.445207 0.589095 -0.353102
C69   C     C_3   0.417640 0.495153 0.617106 -0.292757
C70   C     C_3   0.610179 0.517173 0.609457 -0.748681
H32   H     H_    0.714970 0.490596 0.624148 0.232083
H33   H     H_    0.638564 0.522646 0.571596 0.250169
H34   H     H_    0.621678 0.555096 0.627338 0.217850
H35   H     H_    0.314243 0.524421 0.606593 0.219147
H36   H     H_    0.398429 0.487208 0.655028 0.191261
H37   H     H_    0.503517 0.418137 0.598510 0.162689
H38   H     H_    0.408947 0.451814 0.551028 0.204052
C71   C     C_3   0.360035 0.442778 0.922459 -0.382129
C72   C     C_3   0.405042 0.423009 0.972039 -0.302743
C73   C     C_3   0.498504 0.464735 0.000748 -0.714928
H39   H     H_    0.614600 0.481838 0.980875 0.245328
H40   H     H_    0.398493 0.495885 0.009095 0.230516
H41   H     H_    0.549470 0.447827 0.033903 0.238607
H42   H     H_    0.280738 0.410608 0.991589 0.214336
H43   H     H_    0.492719 0.388033 0.970003 0.186040
H44   H     H_    0.478038 0.435439 0.898673 0.154917
H45   H     H_    0.339821 0.485300 0.922085 0.210157
C74   C     C_3   0.650736 0.531678 0.105275 -0.369317
C75   C     C_3   0.487224 0.538593 0.139027 -0.349734
C76   C     C_3   0.337130 0.498896 0.129357 -0.713217
H46   H     H_    0.288804 0.502258 0.092767 0.234436
H47   H     H_    0.390100 0.459174 0.135198 0.230314
H48   H     H_    0.218641 0.505713 0.153232 0.224002
H49   H     H_    0.533602 0.533405 0.175696 0.199125
H50   H     H_    0.427969 0.577896 0.134915 0.206156
H51   H     H_    0.597555 0.535080 0.069134 0.186088
H52   H     H_    0.706265 0.492145 0.110520 0.207262
C77   C     C_3   0.139529 0.942881 0.077538 -0.382206
C78   C     C_3   0.094732 0.923061 0.027965 -0.302615
C79   C     C_3   0.001222 0.964784 0.999227 -0.715032
H53   H     H_    0.884981 0.981943 0.019070 0.245506
H54   H     H_    0.101154 0.995892 0.990907 0.230515
H55   H     H_    0.950477 0.947857 0.966064 0.238670
H56   H     H_    0.219142 0.910594 0.008441 0.214197
H57   H     H_    0.007155 0.888124 0.029999 0.186119
H58   H     H_    0.021509 0.935598 0.101311 0.154800
H59   H     H_    0.159549 0.985397 0.077901 0.210094
C80   C     C_3   0.849715 0.031639 0.894856 -0.369499
C81   C     C_3   0.013223 0.038437 0.861105 -0.349845
C82   C     C_3   0.163423 0.998689 0.870797 -0.713185
H60   H     H_    0.211759 0.002090 0.907382 0.234554
H61   H     H_    0.110554 0.958980 0.864988 0.230355
H62   H     H_    0.281881 0.005415 0.846913 0.223961
H63   H     H_    0.966866 0.033223 0.824436 0.199154
H64   H     H_    0.072386 0.077718 0.865199 0.206083
H65   H     H_    0.902822 0.035117 0.930995 0.186041
H66   H     H_    0.794387 0.992109 0.889653 0.207286
C83   C     C_3   0.868659 0.097166 0.551084 -0.360614
C84   C     C_3   0.878859 0.141587 0.515631 -0.321481
C85   C     C_3   0.729634 0.137806 0.478412 -0.685599
H67   H     H_    0.736933 0.099860 0.460315 0.231849
H68   H     H_    0.591415 0.142689 0.494473 0.233128
H69   H     H_    0.749800 0.168856 0.452114 0.207711
H70   H     H_    0.867887 0.179395 0.533892 0.192478
H71   H     H_    0.015171 0.140199 0.497904 0.202703
H72   H     H_    0.993600 0.098549 0.573099 0.146998
H73   H     H_    0.875993 0.059834 0.532314 0.206026
C86   C     C_3   0.146677 0.966985 0.397294 -0.346643
C87   C     C_3   0.987549 0.961730 0.362442 -0.350851
C88   C     C_3   0.840055 0.002613 0.371518 -0.724576
H74   H     H_    0.789131 0.000143 0.408105 0.236058
H75   H     H_    0.896732 0.041863 0.365341 0.227773
H76   H     H_    0.722636 0.996367 0.347533 0.221468
H77   H     H_    0.039604 0.966803 0.326111 0.198139
H78   H     H_    0.923946 0.922935 0.365883 0.204722
H79   H     H_    0.087379 0.963179 0.433049 0.206568
H80   H     H_    0.204275 0.006416 0.392745 0.204495

loop_
_geom_bond_atom_site_label_1
_geom_bond_atom_site_label_2
_ccdc_geom_bond_type
C83   H73   S    
O17   V3    S    
C79   H53   S    
C48   H24   S    
C36   C74   S    
O18   V4    S    
C84   C85   S    
O12   V1    S    
C30   C38   A    
C42   C50   A    
C77   C78   S    
O7    C6    A    
C29   C37   A    
C66   H28   S    
C10   H2    S    
C35   C71   S    
C67   H27   S    
C21   C29   A    
C27   C60   S    
C36   C44   A    
C31   C39   A    
C76   H46   S    
N5    N13   A    
O15   V4    S    
C78   H57   S    
C82   H60   S    
C74   H52   S    
O16   V3    S    
C79   H54   S    
C68   H37   S    
C87   H77   S    
C17   C25   A    
N2    N10   A    
C14   C22   A    
O8    V1    S    
N1    N9    A    
C1    C56   S    
C46   H22   S    
C70   H33   S    
C3    C54   S    
C80   H65   S    
C78   C79   S    
C9    C17   A    
C26   C34   A    
O1    V3    S    
C32   C40   A    
C17   H9    S    
O19   V1    S    
O3    C2    A    
O2    V4    S    
C88   H74   S    
C73   H41   S    
C77   H58   S    
N8    C63   A    
C20   H12   S    
C48   C56   A    
C45   H21   S    
C35   C43   A    
C15   C23   A    
C65   H31   S    
O11   V2    S    
C87   C88   S    
C16   C24   A    
C47   H23   S    
C73   H39   S    
C24   H16   S    
C75   H50   S    
C11   H3    S    
C71   H45   S    
C12   C20   A    
O9    V1    S    
C41   H17   S    
C38   C46   A    
O15   C7    A    
C37   C45   A    
C86   C87   S    
O16   C8    A    
O7    V2    S    
C43   C51   A    
C39   C47   A    
C40   C48   A    
C88   H75   S    
N6    N14   A    
C83   C84   S    
C21   H13   S    
N3    C60   A    
C34   C42   A    
C11   C51   A    
C28   C59   S    
C33   C41   A    
C76   H47   S    
C19   H11   S    
O5    V1    S    
C78   H56   S    
C82   H61   S    
C79   H55   S    
C33   C65   S    
C68   H38   S    
C10   C18   A    
N11   C59   A    
C32   C63   S    
C38   C80   S    
C44   C52   A    
C69   C70   S    
C25   C33   A    
C69   H36   S    
N8    N16   A    
C5    C52   S    
C4    C53   S    
C22   H14   S    
C24   C32   A    
C75   H49   S    
C40   C86   S    
C8    C49   S    
C23   H15   S    
C18   H10   S    
C85   H68   S    
C16   C56   A    
O10   V2    S    
C74   C75   S    
C22   C30   A    
O11   C3    A    
O12   C4    A    
C86   H79   S    
O8    C5    A    
C26   C57   S    
O13   C5    A    
C12   C52   A    
C19   C27   A    
C25   C58   S    
C18   C26   A    
N3    N11   A    
C81   H64   S    
C84   H70   S    
C47   C55   A    
O4    C1    A    
N7    N15   A    
O9    C1    A    
O6    V2    S    
C29   C62   S    
C72   H42   S    
C11   C19   A    
C88   H76   S    
C31   C64   S    
C70   H34   S    
C27   C35   A    
N4    C59   A    
C13   H5    S    
C67   H25   S    
C46   C54   A    
C77   H59   S    
C76   H48   S    
C45   C53   A    
C81   C82   S    
C30   C61   S    
C15   H7    S    
C65   C66   S    
C82   H62   S    
C83   H72   S    
C85   H67   S    
C16   H8    S    
O1    C4    A    
C87   H78   S    
C6    C51   S    
N12   C60   A    
O2    C3    A    
O13   V3    S    
C66   H29   S    
O14   V4    S    
C67   H26   S    
C20   C28   A    
C69   H35   S    
C68   C69   S    
N16   C64   A    
C15   C55   A    
C80   H66   S    
C84   H71   S    
C28   C36   A    
N9    C57   A    
C43   H19   S    
C34   C68   S    
C42   H18   S    
C9    H1    S    
C75   C76   S    
N4    N12   A    
O20   V2    S    
C66   C67   S    
C85   H69   S    
C13   C21   A    
C14   C54   A    
C70   H32   S    
C13   C53   A    
O14   C6    A    
O5    C8    A    
C41   C49   A    
O10   C2    A    
O6    C7    A    
N2    C57   A    
C86   H80   S    
C10   C50   A    
C74   H51   S    
N1    C58   A    
C9    C49   A    
C2    C55   S    
C73   H40   S    
O3    V4    S    
N14   C62   A    
C14   H6    S    
O4    V3    S    
C12   H4    S    
C81   H63   S    
N6    C61   A    
C80   C81   S    
N10   C58   A    
N5    C62   A    
C7    C50   S    
C65   H30   S    
C37   C77   S    
C39   C83   S    
N7    C64   A    
C72   C73   S    
C72   H43   S    
C44   H20   S    
C71   C72   S    
N13   C61   A    
C71   H44   S    
C23   C31   A    
N15   C63   A    
