data_mof_unit_56893.cif
_audit_creation_date              2012-12-10T19:44:57-0500
_audit_creation_method            fapswitch 2.2
_symmetry_space_group_name_H-M    P1
_symmetry_Int_Tables_number       1
_space_group_crystal_system       triclinic
_cell_length_a                    15.018257
_cell_length_b                    10.88364
_cell_length_c                    13.766005
_cell_angle_alpha                 90.597878
_cell_angle_beta                  91.68896
_cell_angle_gamma                 89.227572
_cell_volume                      2248.80364815

loop_
_atom_site_label
_atom_site_type_symbol
_atom_type_description
_atom_site_fract_x
_atom_site_fract_y
_atom_site_fract_z
_atom_type_partial_charge
C1    C     C_R   0.498613 0.262090 0.498972 0.771937
C2    C     C_R   0.502833 0.737626 0.500932 0.777082
C3    C     C_R   0.047592 0.324369 0.609405 -0.152263
C4    C     C_R   0.952386 0.681526 0.395138 -0.148290
C5    C     C_R   0.403497 0.186972 0.171396 0.366647
C6    C     C_R   0.641191 0.773096 0.791441 0.389489
C7    C     C_R   0.408894 0.149625 0.268421 -0.122480
C8    C     C_R   0.617890 0.822523 0.700842 -0.101018
C9    C     C_R   0.490675 0.111880 0.310644 -0.015797
C10   C     C_R   0.536860 0.886325 0.686382 -0.011029
C11   C     C_R   0.567316 0.110305 0.254906 -0.217840
C12   C     C_R   0.480285 0.904375 0.764778 -0.296836
C13   C     C_R   0.562943 0.144038 0.157123 0.519110
C14   C     C_R   0.504311 0.858939 0.858191 0.510312
C15   C     C_R   0.480941 0.185588 0.116136 -0.318063
C16   C     C_R   0.584088 0.791734 0.869611 -0.317475
C17   C     C_R   0.496940 0.931641 0.413586 -0.221781
C18   C     C_R   0.504900 0.067199 0.585883 -0.252165
C19   C     C_R   0.505732 0.871363 0.502603 -0.096373
C20   C     C_R   0.497968 0.127957 0.496834 -0.086127
C21   C     C_R   0.513665 0.940353 0.590106 0.061042
C22   C     C_R   0.494768 0.058721 0.409118 0.045337
C23   C     C_R   0.328952 0.497597 0.498933 0.805304
C24   C     C_R   0.671007 0.503292 0.501295 0.797081
C25   C     C_R   0.570540 0.447300 0.795482 0.661969
C26   C     C_R   0.427155 0.544679 0.202748 0.625441
C27   C     C_R   0.431778 0.555614 0.791636 -0.079641
C28   C     C_R   0.573508 0.458530 0.208366 -0.065220
C29   C     C_R   0.431035 0.558286 0.894016 0.001362
C30   C     C_R   0.576490 0.460873 0.105706 -0.012956
C31   C     C_R   0.503301 0.507250 0.947996 0.027699
C32   C     C_R   0.503493 0.508633 0.051349 0.040223
C33   C     C_R   0.575445 0.455362 0.898840 -0.120278
C34   C     C_R   0.430166 0.556742 0.100121 -0.088240
C35   C     C_R   0.360642 0.613577 0.943498 -0.117409
C36   C     C_R   0.650958 0.417063 0.056174 -0.121362
C37   C     C_R   0.360574 0.613953 0.045218 -0.144546
C38   C     C_R   0.650589 0.414476 0.954165 -0.184513
C39   C     C_R   0.812032 0.599971 0.450342 0.340097
C40   C     C_R   0.187714 0.402771 0.550927 0.341904
C41   C     C_R   0.767381 0.510794 0.504381 -0.154997
C42   C     C_R   0.232483 0.492241 0.497265 -0.169447
C43   C     C_R   0.815058 0.423803 0.559514 -0.246377
C44   C     C_R   0.184974 0.583216 0.446308 -0.304702
C45   C     C_R   0.907585 0.419878 0.558811 0.105708
C46   C     C_R   0.092448 0.587157 0.446933 0.106632
C47   C     C_R   0.953198 0.505512 0.503150 0.005707
C48   C     C_R   0.046772 0.500601 0.501625 0.011501
C49   C     C_R   0.905465 0.595998 0.449036 0.081471
C50   C     C_R   0.094443 0.409011 0.554589 0.081267
C51   C     C_R   0.955037 0.330182 0.611761 -0.216727
C52   C     C_R   0.045036 0.677216 0.394345 -0.226420
Cu1   Cu    Cu3+1 0.500010 0.499980 0.597420 0.992186
Cu2   Cu    Cu3+1 0.499990 0.500020 0.402580 0.982052
H1    H     H_    0.492038 0.879682 0.345987 0.181595
H2    H     H_    0.506993 0.118789 0.653297 0.158205
H3    H     H_    0.377786 0.598536 0.750134 0.163654
H4    H     H_    0.629748 0.421141 0.249585 0.169140
H5    H     H_    0.305469 0.656410 0.903585 0.135189
H6    H     H_    0.709232 0.383255 0.096299 0.166660
H7    H     H_    0.305045 0.658065 0.080644 0.170111
H8    H     H_    0.709878 0.381237 0.919275 0.177092
H9    H     H_    0.779633 0.356477 0.600669 0.178164
H10   H     H_    0.220567 0.652247 0.407080 0.185815
H11   H     H_    0.920462 0.263830 0.654539 0.149267
H12   H     H_    0.079668 0.744226 0.352262 0.153677
H13   H     H_    0.082168 0.253331 0.650787 0.195852
H14   H     H_    0.917798 0.752134 0.353304 0.197936
H15   H     H_    0.477267 0.217500 0.041962 0.132954
H16   H     H_    0.601715 0.754114 0.940257 0.158438
H17   H     H_    0.349104 0.148231 0.310542 0.147348
H18   H     H_    0.662497 0.809670 0.640990 0.142694
H19   H     H_    0.630347 0.079220 0.286888 0.165364
H20   H     H_    0.417908 0.953006 0.751549 0.150723
N1    N     N_R   0.499960 0.499900 0.743810 -0.225063
N2    N     N_R   0.500040 0.500100 0.256190 -0.224071
O1    O     O_R   0.500000 0.319630 0.582270 -0.576897
O2    O     O_R   0.500000 0.680370 0.417730 -0.569251
O3    O     O_R   0.499990 0.319660 0.417730 -0.580839
O4    O     O_R   0.500010 0.680340 0.582270 -0.577837
O5    O     O_R   0.370260 0.499960 0.582280 -0.584951
O6    O     O_R   0.629740 0.500040 0.417720 -0.593290
O7    O     O_R   0.370250 0.499990 0.417740 -0.536376
O8    O     O_R   0.629750 0.500010 0.582260 -0.509799
O9    O     O_3   0.767052 0.691917 0.399420 -0.743067
H21   H     H_    0.706647 0.703539 0.425093 0.321022
O10   O     O_3   0.232433 0.308595 0.599495 -0.747068
H22   H     H_    0.292341 0.296530 0.572643 0.320555
O11   O     O_3   0.638772 0.391068 0.745645 -0.549710
C53   C     C_3   0.635487 0.261994 0.755843 -0.338018
H23   H     H_    0.648047 0.218754 0.684165 0.189377
H24   H     H_    0.570855 0.227330 0.781828 0.124357
H25   H     H_    0.689834 0.230149 0.806080 0.158126
O12   O     O_3   0.350070 0.579156 0.248619 -0.580833
C54   C     C_3   0.285541 0.486721 0.231714 -0.278891
H26   H     H_    0.305212 0.400299 0.269389 0.208597
H27   H     H_    0.272604 0.465972 0.153486 0.161328
H28   H     H_    0.221234 0.518952 0.260566 0.182641
O13   O     O_3   0.321646 0.221986 0.132148 -0.760791
H29   H     H_    0.329096 0.246332 0.063661 0.317291
O14   O     O_3   0.719913 0.707106 0.801329 -0.710677
H30   H     H_    0.726022 0.676785 0.868925 0.324997
O15   O     O_3   0.641232 0.142672 0.106112 -0.586072
C55   C     C_3   0.629990 0.077475 0.017545 -0.308737
H31   H     H_    0.594206 0.134482 0.962120 0.155034
H32   H     H_    0.595630 0.988664 0.027425 0.195744
H33   H     H_    0.696760 0.055617 0.989114 0.188255
O16   O     O_3   0.451713 0.870398 0.939693 -0.576586
C56   C     C_3   0.392110 0.971542 0.935342 -0.336653
H34   H     H_    0.333751 0.950372 0.886882 0.172085
H35   H     H_    0.425487 0.056997 0.912855 0.142071
H36   H     H_    0.366580 0.988459 0.009131 0.215931

loop_
_geom_bond_atom_site_label_1
_geom_bond_atom_site_label_2
_ccdc_geom_bond_type
C26   O12   S    
O10   H22   S    
O14   H30   S    
C12   H20   S    
C27   C29   A    
C34   C37   A    
C1    O1    A    
C54   H26   S    
C55   H32   S    
C54   H28   S    
C43   H9    S    
C47   C49   A    
Cu1   Cu2   S    
C44   H10   S    
C23   C42   S    
C23   O7    A    
C4    C52   A    
Cu1   O8    S    
C40   O10   S    
Cu1   O5    S    
C35   C37   A    
C56   H35   S    
C7    H17   S    
C9    C22   S    
C45   C51   A    
C18   C21   A    
C46   C52   A    
O16   C56   S    
C35   H5    S    
C51   H11   S    
C6    O14   S    
C24   O6    A    
C55   H31   S    
C26   C34   A    
C5    O13   S    
C26   N2    A    
C31   C33   A    
C13   O15   S    
C17   H1    S    
C18   H2    S    
C48   C50   A    
C24   C41   S    
C41   C43   A    
Cu1   N1    S    
C42   C44   A    
C27   N1    A    
Cu2   O7    S    
C3    C50   A    
C44   C46   A    
C45   C47   A    
C10   C21   S    
C15   H15   S    
C46   C48   A    
C14   O16   S    
C8    H18   S    
Cu1   O4    S    
C16   H16   S    
C39   C41   A    
C27   H3    S    
C56   H36   S    
C4    H14   S    
C3    C51   A    
C6    C8    A    
O9    H21   S    
C25   N1    A    
C32   C34   A    
Cu1   O1    S    
C2    O2    A    
C43   C45   A    
C53   H24   S    
C47   C48   A    
C9    C11   A    
C10   C12   A    
Cu2   N2    S    
C39   C49   A    
C12   C14   A    
C13   C15   A    
C11   H19   S    
C1    O3    A    
C14   C16   A    
C39   O9    S    
C28   N2    A    
Cu2   O6    S    
C52   H12   S    
C53   H25   S    
C5    C7    A    
Cu2   O3    S    
C7    C9    A    
C1    C20   S    
C23   O5    A    
C19   C21   A    
C2    C19   S    
C31   C32   A    
C3    H13   S    
C33   C38   A    
C20   C22   A    
C36   H6    S    
C37   H7    S    
C54   H27   S    
C28   H4    S    
C29   C35   A    
C25   O11   S    
C17   C22   A    
O13   H29   S    
C30   C36   A    
C4    C49   A    
C36   C38   A    
C24   O8    A    
C28   C30   A    
C29   C31   A    
C56   H34   S    
C30   C32   A    
C11   C13   A    
C53   H23   S    
C40   C50   A    
C40   C42   A    
C17   C19   A    
C18   C20   A    
O12   C54   S    
C5    C15   A    
C2    O4    A    
C6    C16   A    
C8    C10   A    
O15   C55   S    
Cu2   O2    S    
O11   C53   S    
C55   H33   S    
C25   C33   A    
C38   H8    S    
