data_mof_unit_39361.cif
_audit_creation_date              2012-12-11T14:46:05-0500
_audit_creation_method            fapswitch 2.2
_symmetry_space_group_name_H-M    P1
_symmetry_Int_Tables_number       1
_space_group_crystal_system       triclinic
_cell_length_a                    10.97232
_cell_length_b                    11.011314
_cell_length_c                    18.71907
_cell_angle_alpha                 90.735937
_cell_angle_beta                  89.773595
_cell_angle_gamma                 120.296873
_cell_volume                      1952.57555576

loop_
_atom_site_label
_atom_site_type_symbol
_atom_type_description
_atom_site_fract_x
_atom_site_fract_y
_atom_site_fract_z
_atom_type_partial_charge
C1    C     C_R   0.872901 0.634398 0.607383 0.595087
C2    C     C_R   0.413681 0.610127 0.776330 -0.104984
C3    C     C_R   0.404580 0.608969 0.702735 0.223635
C4    C     C_R   0.345823 0.681846 0.670764 0.023629
C5    C     C_R   0.844508 0.162036 0.820110 -0.029972
C6    C     C_R   0.089587 0.220666 0.821523 -0.107316
C7    C     C_R   0.211454 0.245678 0.786878 -0.142271
C8    C     C_R   0.209493 0.218062 0.714227 -0.021441
C9    C     C_R   0.087029 0.170470 0.673087 0.301342
C10   C     C_R   0.963036 0.161538 0.706714 -0.016333
C11   C     C_R   0.964316 0.177268 0.783248 -0.048926
C12   C     C_R   0.276890 0.636166 0.601653 0.561704
C13   C     C_R   0.720073 0.118957 0.707511 0.004607
C14   C     C_R   0.734965 0.159512 0.779558 0.022936
C15   C     C_R   0.589721 0.075944 0.673288 -0.073967
C16   C     C_R   0.491449 0.104470 0.704511 -0.119691
C17   C     C_R   0.517546 0.167695 0.771568 -0.132360
C18   C     C_R   0.638682 0.196411 0.808767 -0.079135
C19   C     C_R   0.841378 0.144950 0.668810 -0.009556
C20   C     C_R   0.730599 0.543557 0.717355 -0.115060
C21   C     C_R   0.703064 0.565007 0.787430 -0.134370
C22   C     C_R   0.772913 0.702059 0.816450 -0.014230
C23   C     C_R   0.860453 0.220505 0.600680 0.571295
C24   C     C_R   0.865537 0.814773 0.776028 -0.094757
C25   C     C_R   0.911024 0.789192 0.712912 0.255268
C26   C     C_R   0.832959 0.657416 0.678359 0.065229
C27   C     C_R   0.403685 0.603982 0.298092 -0.122745
C28   C     C_R   0.440567 0.622088 0.226904 -0.129761
C29   C     C_R   0.432963 0.724824 0.187354 0.026621
C30   C     C_R   0.397347 0.817014 0.221461 -0.127137
C31   C     C_R   0.355641 0.796038 0.292911 -0.128473
C32   C     C_R   0.352741 0.684995 0.330539 0.031540
C33   C     C_R   0.785564 0.272509 0.270865 -0.135392
C34   C     C_R   0.863395 0.639884 0.398745 0.554610
C35   C     C_R   0.775062 0.240582 0.199036 -0.123935
C36   C     C_R   0.857850 0.189198 0.168609 0.033610
C37   C     C_R   0.965017 0.189258 0.208972 -0.138510
C38   C     C_R   0.979892 0.228234 0.280903 -0.125966
C39   C     C_R   0.884695 0.262997 0.312757 0.027380
C40   C     C_R   0.904922 0.789648 0.296049 -0.124192
C41   C     C_R   0.900428 0.797633 0.223089 -0.128730
C42   C     C_R   0.806335 0.679096 0.182301 0.034251
C43   C     C_R   0.710235 0.554582 0.216374 -0.157489
C44   C     C_R   0.713732 0.547358 0.290464 -0.148172
C45   C     C_R   0.275096 0.635787 0.397528 0.529604
C46   C     C_R   0.818477 0.661685 0.329658 0.037856
C47   C     C_R   0.808584 0.105113 0.894652 0.524619
C48   C     C_R   0.403936 0.703084 0.894107 0.553221
C49   C     C_R   0.770831 0.730619 0.891184 0.565308
C50   C     C_R   0.810108 0.111168 0.101296 0.541953
C51   C     C_R   0.459885 0.729411 0.110754 0.565833
C52   C     C_R   0.795520 0.699239 0.106678 0.553177
C53   C     C_R   0.888290 0.292739 0.388920 0.552388
C54   C     C_R   0.320849 0.773486 0.711767 -0.157109
C55   C     C_R   0.335591 0.779939 0.785413 -0.121315
C56   C     C_R   0.375371 0.692419 0.818214 -0.015213
Cr1   Cr    Cr6+3 0.791660 0.390250 0.499930 1.039043
Cr2   Cr    Cr6+3 0.098520 0.708290 0.500540 1.099140
Cr3   Cr    Cr6+3 0.109770 0.401430 0.499480 1.143131
Cr4   Cr    Cr6+3 0.874790 0.925890 0.000070 1.010210
Cr5   Cr    Cr6+3 0.574120 0.948670 0.999300 1.012797
Cr6   Cr    Cr6+3 0.551420 0.625320 0.000920 0.998765
H1    H     H_    0.285906 0.836248 0.685937 0.213167
H2    H     H_    0.396519 0.079908 0.675971 0.162365
H3    H     H_    0.568261 0.029327 0.620166 0.140615
H4    H     H_    0.443263 0.192465 0.795435 0.114711
H5    H     H_    0.676780 0.437992 0.694932 0.175112
H6    H     H_    0.631096 0.475302 0.818958 0.128068
H7    H     H_    0.926015 0.917749 0.800888 0.165525
H8    H     H_    0.404941 0.518979 0.325950 0.140123
H9    H     H_    0.467906 0.550370 0.201626 0.132490
H10   H     H_    0.393901 0.899434 0.192204 0.132973
H11   H     H_    0.313896 0.850620 0.816422 0.171924
H12   H     H_    0.317854 0.860723 0.317135 0.133385
H13   H     H_    0.711802 0.298542 0.294379 0.123182
H14   H     H_    0.693067 0.244683 0.168969 0.132717
H15   H     H_    0.031165 0.151768 0.186323 0.118218
H16   H     H_    0.060546 0.223917 0.312053 0.140706
H17   H     H_    0.983488 0.881304 0.325379 0.145989
H18   H     H_    0.971292 0.897876 0.198866 0.132944
H19   H     H_    0.632690 0.464175 0.185987 0.110583
H20   H     H_    0.640029 0.450704 0.316664 0.119221
H21   H     H_    0.453075 0.548298 0.800669 0.149150
H22   H     H_    0.307892 0.285503 0.817275 0.108162
H23   H     H_    0.304436 0.230413 0.689925 0.167031
H24   H     H_    0.096494 0.244166 0.878194 0.144073
H25   H     H_    0.657620 0.249986 0.859916 0.138984
O1    O     O_R   0.766500 0.250040 0.579790 -0.529061
O2    O     O_R   0.218690 0.701900 0.425960 -0.511673
O3    O     O_R   0.249490 0.516440 0.419420 -0.515010
O4    O     O_R   0.982880 0.281910 0.424890 -0.467816
O5    O     O_3   0.999980 0.499990 0.499980 -0.308718
O6    O     O_R   0.895110 0.806860 0.920430 -0.494179
O7    O     O_R   0.872260 0.046970 0.925000 -0.521507
O8    O     O_R   0.691430 0.085060 0.918550 -0.517715
O9    O     O_R   0.451490 0.822460 0.925250 -0.489899
O10   O     O_R   0.413330 0.603360 0.920440 -0.532708
O11   O     O_R   0.676110 0.626250 0.926750 -0.511584
O12   O     O_R   0.798570 0.516780 0.574780 -0.501924
O13   O     O_R   0.895350 0.809870 0.080950 -0.516459
O14   O     O_R   0.872490 0.049760 0.073800 -0.508619
O15   O     O_R   0.691680 0.088070 0.079070 -0.531719
O16   O     O_R   0.451720 0.825250 0.074050 -0.496467
O17   O     O_R   0.413580 0.606370 0.080960 -0.512745
O18   O     O_R   0.676340 0.629040 0.075550 -0.519315
O19   O     O_3   0.666780 0.833290 0.000090 -0.292717
O20   O     O_R   0.984000 0.732950 0.581090 -0.390842
O21   O     O_R   0.218600 0.700890 0.574760 -0.509019
O22   O     O_R   0.249390 0.515350 0.579940 -0.424963
O23   O     O_R   0.982790 0.280900 0.573700 -0.433879
O24   O     O_R   0.766600 0.251130 0.419260 -0.513932
O25   O     O_R   0.798660 0.517790 0.425980 -0.523650
O26   O     O_R   0.984100 0.734040 0.420570 -0.498029
Cl1   Cl    Cl    0.092787 0.890047 0.706820 -0.650638
Cl2   Cl    Cl    0.465829 0.514907 0.651986 -0.650082
S1    S     S_3+6 0.097272 0.109988 0.584115 0.063441
O27   O     O_2   0.952046 0.010212 0.555446 -0.257535
O28   O     O_2   0.171758 0.232439 0.534698 -0.257855
O29   O     O_3   0.193035 0.029569 0.580754 -0.471633
H26   H     H_    0.290365 0.103592 0.568589 0.325756

loop_
_geom_bond_atom_site_label_1
_geom_bond_atom_site_label_2
_ccdc_geom_bond_type
C55   C56   A    
Cr1   O5    S    
C34   O25   A    
C41   C42   A    
C14   C18   A    
C20   H5    S    
C35   C36   A    
C1    O12   A    
C41   H18   S    
Cr5   O9    S    
C36   C50   S    
C7    C8    A    
Cr6   O18   S    
C39   C53   S    
C34   O26   A    
C40   C46   A    
C48   O10   A    
C5    C47   S    
C17   H4    S    
C29   C30   A    
C28   C29   A    
Cr5   O16   S    
C5    C11   A    
C44   H20   S    
C30   C31   A    
Cr1   O25   S    
C54   H1    S    
C51   O16   A    
C15   C16   A    
Cr1   O12   S    
Cr3   O23   S    
S1    O27   D    
C8    H23   S    
C32   C45   S    
C33   C35   A    
C49   O11   A    
Cr6   O11   S    
C33   H13   S    
C8    C9    A    
C53   O4    A    
Cr2   O26   S    
C34   C46   S    
C4    C12   S    
C45   O2    A    
C9    C10   A    
Cr4   O6    S    
C53   O24   A    
C7    H22   S    
C21   C22   A    
C2    H21   S    
C12   O22   A    
C44   C46   A    
C24   H7    S    
Cr6   O17   S    
C38   C39   A    
C35   H14   S    
C13   C19   A    
C24   C25   A    
C6    C11   A    
C12   O21   A    
C16   C17   A    
C31   H12   S    
Cr3   O4    S    
C38   H16   S    
C51   O17   A    
C37   H15   S    
C52   O13   A    
Cr3   O3    S    
C19   C23   S    
C43   C44   A    
Cr4   O7    S    
C37   C38   A    
C45   O3    A    
Cr6   O10   S    
C31   C32   A    
C10   C19   A    
C17   C18   A    
C40   H17   S    
C33   C39   A    
Cr5   O19   S    
C5    C14   A    
C27   H8    S    
C1    O20   A    
C22   C49   S    
C40   C41   A    
C52   O18   A    
C50   O15   A    
C23   O1    A    
C13   C15   A    
C21   H6    S    
C1    C26   S    
C43   H19   S    
C22   C24   A    
C28   H9    S    
C42   C43   A    
Cr4   O14   S    
Cr2   O20   S    
Cr4   O19   S    
Cr1   O1    S    
C29   C51   S    
C48   C56   S    
C23   O23   A    
C54   C55   A    
C36   C37   A    
C48   O9    A    
C4    C54   A    
C27   C32   A    
C9    S1    S    
Cr4   O13   S    
C30   H10   S    
O29   H26   S    
Cr5   O8    S    
C6    C7    A    
Cr6   O19   S    
C18   H25   S    
C6    H24   S    
S1    O29   S    
C2    C3    A    
C25   C26   A    
C2    C56   A    
C25   Cl1   S    
Cr1   O24   S    
C20   C26   A    
Cr3   O22   S    
C47   O7    A    
S1    O28   D    
Cr5   O15   S    
Cr2   O21   S    
Cr3   O5    S    
Cr2   O2    S    
C10   C11   A    
C55   H11   S    
C20   C21   A    
C50   O14   A    
C27   C28   A    
C47   O8    A    
C3    Cl2   S    
C16   H2    S    
C49   O6    A    
C13   C14   A    
Cr2   O5    S    
C3    C4    A    
C42   C52   S    
C15   H3    S    
