data_mof_unit_59735.cif
_audit_creation_date              2013-03-05T16:12:12-0500
_audit_creation_method            fapswitch 2.2
_symmetry_space_group_name_H-M    P1
_symmetry_Int_Tables_number       1
_space_group_crystal_system       triclinic
_cell_length_a                    10.744825
_cell_length_b                    9.405092
_cell_length_c                    27.738844
_cell_angle_alpha                 90.046082
_cell_angle_beta                  89.875921
_cell_angle_gamma                 90.128184
_cell_volume                      2803.16401165

loop_
_atom_site_label
_atom_site_type_symbol
_atom_site_description
_atom_site_fract_x
_atom_site_fract_y
_atom_site_fract_z
_atom_type_partial_charge
O1    O     O_R   0.317570 0.620260 0.500030 -0.603329
O2    O     O_R   0.317570 0.379740 0.500030 -0.580167
C1    C     C_R   0.259756 0.500058 0.498856 0.810976
O3    O     O_R   0.499900 0.620250 0.430280 -0.604409
O4    O     O_R   0.499900 0.379750 0.430280 -0.551374
C2    C     C_R   0.500599 0.500067 0.407423 0.823896
Cu1   Cu    Cu3+1 0.499860 0.642410 0.500020 0.901372
Cu2   Cu    Cu3+1 0.499860 0.357590 0.500020 0.948969
O5    O     O_R   0.682190 0.620260 0.500010 -0.610604
O6    O     O_R   0.682190 0.379740 0.500010 -0.591189
O7    O     O_R   0.499860 0.620280 0.569750 -0.607544
O8    O     O_R   0.499860 0.379720 0.569750 -0.545934
C3    C     C_R   0.739935 0.500273 0.498752 0.762714
C4    C     C_R   0.499830 0.500111 0.592530 0.912736
C5    C     C_R   0.486268 0.620508 0.177377 0.540014
O9    O     O_2   0.417769 0.717399 0.201568 -0.541540
N1    N     N_R   0.547215 0.515888 0.202098 -0.455141
C6    C     C_R   0.616377 0.415573 0.178440 0.545480
C7    C     C_R   0.582350 0.621272 0.282035 -0.089862
C8    C     C_R   0.569186 0.617180 0.331951 -0.301532
C9    C     C_R   0.459629 0.391028 0.325951 0.411373
C10   C     C_R   0.476425 0.394601 0.275721 -0.200324
C11   C     C_R   0.536257 0.510026 0.253692 0.289600
C12   C     C_R   0.561819 0.522908 0.101675 -0.044702
C13   C     C_R   0.493122 0.626466 0.126870 -0.022999
C14   C     C_R   0.431197 0.732402 0.101249 -0.144162
C15   C     C_R   0.624380 0.416787 0.127873 -0.026090
C16   C     C_R   0.509288 0.501871 0.354447 -0.136502
H1    H     H_    0.441539 0.308337 0.253641 0.158007
H2    H     H_    0.377029 0.812803 0.119756 0.187565
C17   C     C_R   0.512104 0.501640 0.645305 -0.030012
C18   C     C_R   0.511184 0.636802 0.973456 0.040803
C19   C     C_R   0.632527 0.413821 0.974240 0.040729
C20   C     C_R   0.572055 0.524522 0.948527 0.070950
C21   C     C_R   0.457696 0.747764 0.945992 -0.203025
C22   C     C_R   0.457974 0.744511 0.895965 -0.136870
C23   C     C_R   0.512717 0.631595 0.871184 -0.020068
C24   C     C_R   0.571409 0.522285 0.897232 -0.041828
C25   C     C_R   0.628219 0.409976 0.871849 -0.029793
C26   C     C_R   0.624041 0.408251 0.821226 0.584761
N2    N     N_R   0.565010 0.514695 0.796796 -0.443379
C27   C     C_R   0.509564 0.625107 0.820656 0.593780
C28   C     C_R   0.468406 0.411617 0.725485 -0.221782
C29   C     C_R   0.445035 0.408223 0.675890 -0.017465
C30   C     C_R   0.599501 0.595975 0.665230 -0.307297
C31   C     C_R   0.622854 0.598932 0.714812 0.042747
C32   C     C_R   0.554768 0.506775 0.745252 0.349024
O10   O     O_2   0.450732 0.727650 0.795504 -0.539488
C33   C     C_R   0.505069 0.634319 0.024664 0.041377
C34   C     C_R   0.567115 0.524844 0.050409 0.069038
C35   C     C_R   0.633523 0.416625 0.025534 0.040847
C36   C     C_R   0.436818 0.736498 0.051273 -0.204024
H3    H     H_    0.415837 0.343183 0.749534 0.140431
H4    H     H_    0.414412 0.831358 0.876739 0.188479
H5    H     H_    0.415290 0.840158 0.961890 0.141269
H6    H     H_    0.383846 0.820096 0.034697 0.141464
O11   O     O_2   0.677499 0.315239 0.203779 -0.537018
C37   C     C_R   0.693485 0.314371 0.103188 -0.144910
H7    H     H_    0.607553 0.703648 0.353097 0.179820
H8    H     H_    0.629065 0.710737 0.265319 0.165746
H9    H     H_    0.744029 0.232817 0.122501 0.187539
C38   C     C_R   0.688331 0.302475 0.947476 -0.201663
C39   C     C_R   0.686280 0.301044 0.897403 -0.138100
O12   O     O_2   0.678102 0.301033 0.796583 -0.519137
C40   C     C_R   0.698337 0.314183 0.053139 -0.203350
H10   H     H_    0.732625 0.212394 0.963987 0.142461
H11   H     H_    0.652398 0.665535 0.641618 0.135919
H12   H     H_    0.729819 0.212867 0.878758 0.192672
H13   H     H_    0.755206 0.232400 0.037337 0.141844
C41   C     C_3   0.072876 0.648830 0.482425 -0.369773
C42   C     C_3   0.072363 0.466432 0.549338 -0.396301
H14   H     H_    0.112557 0.675926 0.446419 0.181754
H15   H     H_    0.106237 0.359339 0.560151 0.207089
H16   H     H_    0.105562 0.732209 0.508010 0.158067
H17   H     H_    0.110573 0.543950 0.575849 0.177344
C43   C     C_3   0.929308 0.650057 0.481626 -0.124063
C44   C     C_3   0.928347 0.472748 0.550271 -0.167064
H18   H     H_    0.897773 0.731528 0.508138 0.132734
H19   H     H_    0.900631 0.564395 0.573436 0.149522
H20   H     H_    0.105261 0.412482 0.425349 0.162549
H21   H     H_    0.107138 0.280409 0.472100 0.172442
H22   H     H_    0.892783 0.401024 0.426068 0.157330
H23   H     H_    0.896575 0.277566 0.474409 0.171408
C45   C     C_3   0.071987 0.387817 0.462410 -0.390120
C46   C     C_3   0.121941 0.500826 0.498256 0.077319
C47   C     C_3   0.878080 0.501066 0.498146 -0.008781
C48   C     C_3   0.928749 0.384973 0.463180 -0.392528
C49   C     C_3   0.623025 0.083974 0.486619 -0.182133
C50   C     C_3   0.622847 0.916571 0.486425 -0.167048
H24   H     H_    0.696235 0.121028 0.511987 0.142609
H25   H     H_    0.696437 0.879315 0.511489 0.142385
H26   H     H_    0.649496 0.124216 0.450299 0.158529
H27   H     H_    0.648353 0.877055 0.449917 0.166717
H28   H     H_    0.539677 0.121802 0.576291 0.164877
H29   H     H_    0.540976 0.879267 0.576129 0.149369
C51   C     C_3   0.470524 0.083721 0.549414 -0.179483
C52   C     C_3   0.471006 0.916213 0.549459 -0.194119
C53   C     C_3   0.406957 0.083409 0.467083 -0.199380
C54   C     C_3   0.406597 0.915947 0.467154 -0.193299
N3    N     N_3   0.500250 0.143650 0.501060 -0.132745
N4    N     N_3   0.500250 0.856350 0.501060 -0.128051
H30   H     H_    0.312425 0.121633 0.476783 0.140067
H31   H     H_    0.311921 0.877855 0.476964 0.148530
H32   H     H_    0.426345 0.121619 0.429956 0.203879
H33   H     H_    0.424892 0.876995 0.429972 0.159195
H34   H     H_    0.377943 0.122593 0.561551 0.178559
H35   H     H_    0.378978 0.875930 0.561939 0.150534
O13   O     O_3   0.398816 0.277373 0.347314 -0.581535
C55   C     C_3   0.270671 0.284651 0.336158 0.052917
H36   H     H_    0.254598 0.273734 0.296700 0.155971
H37   H     H_    0.230134 0.387005 0.348932 0.130178
C56   C     C_3   0.202334 0.163244 0.360996 -0.770663
H38   H     H_    0.210516 0.173981 0.400622 0.221697
H39   H     H_    0.102188 0.165784 0.351222 0.221023
H40   H     H_    0.242341 0.059617 0.349675 0.258225
C57   C     C_2   0.719930 0.698031 0.732850 0.431614
H41   H     H_    0.760427 0.776037 0.708583 0.059394
O14   O     O_2   0.758000 0.692639 0.774231 -0.521700
C58   C     C_2   0.881566 0.697522 0.432831 0.352412
H42   H     H_    0.824625 0.627949 0.410767 0.065691
O15   O     O_2   0.905677 0.816612 0.417956 -0.569553
C59   C     C_2   0.875545 0.339543 0.573193 0.397535
H43   H     H_    0.896398 0.235734 0.558168 0.059008
O16   O     O_2   0.809568 0.347543 0.608978 -0.547041
C60   C     C_2   0.345720 0.310860 0.658788 0.327715
H44   H     H_    0.317876 0.221118 0.680948 0.090621
O17   O     O_2   0.289926 0.332541 0.621286 -0.589213

loop_
_geom_bond_atom_site_label_1
_geom_bond_atom_site_label_2
_geom_bond_distance
_ccdc_geom_bond_type
C54   H31   1.111116 S    
C10   H1    1.082910 S    
C1    C46   1.480960 S    
N2    C27   1.367945 A    
H23   C48   1.111521 S    
C7    C8    1.392056 A    
C12   C15   1.407988 A    
C4    C17   1.470178 S    
H20   C45   1.112166 S    
C56   H39   1.110568 S    
Cu1   Cu2   2.678757 S    
C30   C31   1.398840 A    
C57   H41   1.085722 S    
Cu1   O7    1.945562 S    
N1    C11   1.436821 S    
C22   C23   1.395066 A    
C43   H18   1.114415 S    
C55   H37   1.114725 S    
O4    C2    1.297555 A    
O7    C4    1.295297 A    
C40   H13   1.075890 S    
C5    C13   1.403927 A    
H22   C48   1.110891 S    
C53   C54   1.574997 S    
O13   C55   1.413707 S    
C5    N1    1.368641 A    
C35   C40   1.416380 A    
C23   C27   1.403338 A    
O5    C3    1.289438 A    
C44   C59   1.514007 S    
C6    O11   1.349685 S    
C42   C46   1.546889 S    
C28   H3    1.084331 S    
C2    C16   1.472352 S    
C21   C22   1.388009 A    
C57   O14   1.220539 D    
C19   C38   1.416674 A    
C3    C47   1.484396 S    
C30   H11   1.085093 S    
C45   C48   1.539338 S    
C50   H25   1.111483 S    
C37   H9    1.083536 S    
C58   O15   1.221011 D    
O1    Cu1   1.969258 S    
C9    C10   1.404993 A    
O3    Cu1   1.945534 S    
C56   H38   1.107389 S    
C34   C35   1.421670 A    
C44   H19   1.115333 S    
C12   C34   1.423204 A    
C54   H33   1.111518 S    
C29   C60   1.483051 S    
C43   C58   1.516388 S    
C17   C29   1.416594 A    
C38   H10   1.075831 S    
C21   H5    1.075866 S    
C9    O13   1.384542 S    
C18   C21   1.416195 A    
C49   H26   1.112679 S    
C12   C13   1.407777 A    
O3    C2    1.295589 A    
C55   C56   1.520848 S    
C25   C26   1.405129 A    
C42   H15   1.113347 S    
C47   C48   1.558199 S    
C8    C16   1.405697 A    
C13   C14   1.395226 A    
C53   H30   1.110695 S    
O6    C3    1.291559 A    
O1    C1    1.289144 A    
C18   C20   1.421629 A    
C7    C11   1.398625 A    
C28   C29   1.399299 A    
C41   H16   1.113950 S    
C23   C24   1.408104 A    
C14   C36   1.388028 A    
C37   C40   1.389178 A    
Cu2   O8    1.945229 S    
C33   C36   1.416263 A    
C51   C52   1.575447 S    
C38   C39   1.389246 A    
N1    C6    1.368600 A    
N2    C32   1.436092 S    
C27   O10   1.349886 S    
C45   C46   1.550649 S    
C8    H7    1.083592 S    
H28   C51   1.112194 S    
C49   N3    1.488764 S    
C26   N2    1.367323 A    
C54   N4    1.489565 S    
C9    C16   1.412207 A    
C49   H24   1.111820 S    
C44   C47   1.567777 S    
C14   H2    1.083575 S    
C53   N3    1.488218 S    
C41   C43   1.542894 S    
C60   H44   1.085653 S    
C59   O16   1.220914 D    
C43   C47   1.572585 S    
C42   C44   1.548857 S    
H21   C45   1.112631 S    
Cu1   O5    1.970612 S    
C51   H34   1.111992 S    
C39   H12   1.083565 S    
C50   N4    1.488467 S    
C20   C24   1.423057 A    
O2    Cu2   1.970185 S    
C6    C15   1.405183 A    
O8    C4    1.296236 A    
C15   C37   1.395687 A    
O4    Cu2   1.945867 S    
C58   H42   1.084548 S    
H29   C52   1.112308 S    
C17   C30   1.404351 A    
C7    H8    1.082905 S    
C19   C35   1.423123 A    
C25   C39   1.395423 A    
C26   O12   1.349562 S    
C31   C57   1.484648 S    
O2    C1    1.292578 A    
Cu2   N3    2.012369 S    
C55   H36   1.113079 S    
C42   H17   1.113555 S    
C24   C25   1.408506 A    
C53   H32   1.110184 S    
C51   N3    1.489062 S    
C19   C20   1.421661 A    
C50   H27   1.112402 S    
C18   C33   1.422044 A    
C31   C32   1.412468 A    
C22   H4    1.083586 S    
C52   H35   1.112746 S    
C36   H6    1.075761 S    
C49   C50   1.574447 S    
Cu2   O6    1.969685 S    
C33   C34   1.421573 A    
Cu1   N4    2.012304 S    
C60   O17   1.219309 D    
C10   C11   1.400507 A    
C41   H14   1.114617 S    
C59   H43   1.084913 S    
C41   C46   1.553607 S    
C28   C32   1.400143 A    
C56   H40   1.110896 S    
C52   N4    1.488590 S    
C5    O9    1.349918 S    
