data_mof_unit_11310.cif
_audit_creation_date              2012-12-10T18:35:45-0500
_audit_creation_method            fapswitch 2.2
_symmetry_space_group_name_H-M    P1
_symmetry_Int_Tables_number       1
_space_group_crystal_system       triclinic
_cell_length_a                    13.418313
_cell_length_b                    13.868066
_cell_length_c                    15.108773
_cell_angle_alpha                 90.152339
_cell_angle_beta                  90.461713
_cell_angle_gamma                 72.116713
_cell_volume                      2675.60304237

loop_
_atom_site_label
_atom_site_type_symbol
_atom_type_description
_atom_site_fract_x
_atom_site_fract_y
_atom_site_fract_z
_atom_type_partial_charge
C1    C     C_R   0.500221 0.500081 0.670131 0.833048
C2    C     C_R   0.980600 0.451481 0.481353 0.006261
C3    C     C_R   0.872241 0.476456 0.461704 0.013355
C4    C     C_R   0.031300 0.526964 0.469780 0.038944
C5    C     C_R   0.975913 0.621358 0.430655 0.028515
C6    C     C_R   0.874226 0.637350 0.397477 0.467527
C7    C     C_R   0.823390 0.565479 0.413433 -0.245689
C8    C     C_R   0.134644 0.512403 0.498298 -0.225087
C9    C     C_R   0.124825 0.684079 0.456449 -0.018634
C10   C     C_R   0.815659 0.411383 0.490710 -0.143459
C11   C     C_R   0.544142 0.410167 0.905242 -0.264165
C12   C     C_R   0.700372 0.445605 0.495483 0.819719
C13   C     C_R   0.541900 0.409548 0.813302 -0.184670
C14   C     C_R   0.500675 0.500416 0.766653 -0.100010
C15   C     C_R   0.459767 0.591718 0.812683 -0.296341
C16   C     C_R   0.458340 0.592404 0.905016 0.570083
C17   C     C_R   0.503595 0.501325 0.951610 0.020922
C18   C     C_R   0.552343 0.562829 0.096571 0.581732
C19   C     C_R   0.547887 0.564034 0.188801 -0.287848
C20   C     C_R   0.503496 0.498995 0.233484 -0.089243
C21   C     C_R   0.462456 0.433121 0.185628 -0.186289
C22   C     C_R   0.463052 0.434259 0.093694 -0.266843
C23   C     C_R   0.500700 0.499722 0.329904 0.799400
C24   C     C_R   0.506455 0.499845 0.048631 0.017011
C25   C     C_R   0.428482 0.912476 0.446174 -0.281830
C26   C     C_R   0.431668 0.810141 0.446578 -0.000923
C27   C     C_R   0.567426 0.770923 0.554204 0.716229
C28   C     C_R   0.570157 0.872142 0.551682 -0.339874
C29   C     C_R   0.498776 0.945618 0.498962 0.075785
C30   C     C_R   0.535491 0.097167 0.573033 -0.273233
C31   C     C_R   0.536692 0.198157 0.571606 0.079173
C32   C     C_R   0.462250 0.220651 0.428196 0.079520
C33   C     C_R   0.461711 0.119403 0.426157 -0.271804
C34   C     C_R   0.299068 0.554807 0.499241 0.807843
C35   C     C_R   0.498489 0.055057 0.499317 0.164392
C36   C     C_R   0.022687 0.698844 0.425553 -0.205008
C37   C     C_R   0.183892 0.587155 0.488013 -0.124567
C38   C     C_R   0.870170 0.314743 0.523107 -0.282199
C39   C     C_R   0.979190 0.283468 0.529993 0.538122
C40   C     C_R   0.033271 0.352556 0.512873 -0.238551
Cu1   Cu    Cu3+1 0.500000 0.403570 0.500010 0.938276
Cu2   Cu    Cu3+1 0.500000 0.596430 0.499990 0.998611
H1    H     H_    0.574151 0.338380 0.778689 0.152217
H2    H     H_    0.426534 0.662255 0.777225 0.168004
H3    H     H_    0.581172 0.614298 0.225301 0.160793
H4    H     H_    0.427815 0.382482 0.219258 0.151360
H5    H     H_    0.428297 0.384928 0.057536 0.160556
H6    H     H_    0.370384 0.964908 0.405055 0.153266
H7    H     H_    0.378295 0.785911 0.404515 0.173644
H8    H     H_    0.629473 0.892045 0.589732 0.143568
H9    H     H_    0.562453 0.053316 0.632439 0.127804
H10   H     H_    0.566833 0.227872 0.628517 0.118299
H11   H     H_    0.432246 0.268611 0.371646 0.120256
H12   H     H_    0.433718 0.092062 0.366817 0.131799
H13   H     H_    0.978705 0.772438 0.399287 0.201338
H14   H     H_    0.179448 0.442721 0.529340 0.160779
H15   H     H_    0.828168 0.263949 0.545235 0.168027
H16   H     H_    0.116813 0.324935 0.522784 0.150153
H17   H     H_    0.745402 0.580472 0.386314 0.169024
H18   H     H_    0.578300 0.339565 0.940381 0.159955
N1    N     N_R   0.500000 0.741310 0.499980 -0.211833
N2    N     N_R   0.500060 0.258650 0.499980 -0.171449
O1    O     O_R   0.499990 0.418570 0.628550 -0.600059
O2    O     O_R   0.499990 0.581440 0.628540 -0.547104
O3    O     O_R   0.650980 0.378820 0.499990 -0.588954
O4    O     O_R   0.650980 0.541690 0.499970 -0.533578
O5    O     O_R   0.500010 0.418560 0.371460 -0.597260
O6    O     O_R   0.500010 0.581430 0.371450 -0.595869
O7    O     O_R   0.349020 0.458310 0.500030 -0.587299
O8    O     O_R   0.349020 0.621180 0.500010 -0.555283
C41   C     C_2   0.164195 0.772707 0.457595 0.827583
O9    O     O_2   0.154038 0.826477 0.392015 -0.630664
O10   O     O_R   0.206900 0.798408 0.535559 -0.746922
H19   H     H_    0.227252 0.862642 0.529303 0.320434
O11   O     O_3   0.415356 0.682769 0.949332 -0.548153
C42   C     C_3   0.307257 0.697948 0.959213 -0.318257
H20   H     H_    0.292506 0.635859 0.998388 0.157083
H21   H     H_    0.266804 0.705465 0.893800 0.158416
H22   H     H_    0.272761 0.769672 0.995961 0.203604
O12   O     O_3   0.598245 0.626053 0.053681 -0.545118
C43   C     C_3   0.705964 0.574501 0.044791 -0.355395
H23   H     H_    0.719275 0.504886 0.003820 0.164622
H24   H     H_    0.745039 0.555297 0.110527 0.143414
H25   H     H_    0.743145 0.625033 0.010431 0.198784
O13   O     O_3   0.637622 0.698805 0.606209 -0.552454
C44   C     C_3   0.628752 0.729072 0.695862 -0.311972
H26   H     H_    0.663521 0.661097 0.737532 0.200746
H27   H     H_    0.545699 0.762400 0.716640 0.153999
H28   H     H_    0.673658 0.782849 0.709164 0.154497
O14   O     O_3   0.820591 0.727667 0.356359 -0.576684
C45   C     C_3   0.816474 0.710215 0.264606 -0.324029
H29   H     H_    0.896319 0.677013 0.236689 0.155198
H30   H     H_    0.766998 0.660897 0.249427 0.153835
H31   H     H_    0.780124 0.783904 0.231155 0.205871
O15   O     O_3   0.033318 0.189074 0.563513 -0.579720
C46   C     C_3   0.032663 0.114789 0.499763 -0.283897
H32   H     H_    0.065630 0.129811 0.435671 0.157854
H33   H     H_    0.952559 0.108853 0.489676 0.162402
H34   H     H_    0.082976 0.040232 0.524178 0.204569

loop_
_geom_bond_atom_site_label_1
_geom_bond_atom_site_label_2
_ccdc_geom_bond_type
C30   H9    S    
C46   H34   S    
C34   C37   S    
O10   H19   S    
C19   C20   A    
C42   H22   S    
C31   H10   S    
C4    C8    A    
C8    H14   S    
C43   H23   S    
Cu1   O5    S    
O13   C44   S    
C30   C35   A    
C18   C24   A    
C28   C29   A    
C26   N1    A    
C42   H21   S    
C15   H2    S    
C3    C7    A    
C30   C31   A    
C44   H27   S    
C15   C16   A    
C16   O11   S    
C5    C36   A    
Cu2   O8    S    
C18   C19   A    
Cu1   Cu2   S    
C23   O5    A    
C27   O13   S    
C27   N1    A    
C28   H8    S    
O15   C46   S    
C16   C17   A    
C46   H33   S    
C9    C36   A    
C34   O8    A    
C45   H29   S    
C22   H5    S    
C21   C22   A    
Cu2   O6    S    
C31   N2    A    
Cu1   N2    S    
C1    O1    A    
C7    H17   S    
C43   H24   S    
C25   C29   A    
C38   C39   A    
C17   C24   S    
C40   H16   S    
C42   H20   S    
C26   H7    S    
C39   C40   A    
C41   O10   S    
C44   H26   S    
O12   C43   S    
Cu1   O3    S    
C25   C26   A    
C6    O14   S    
C12   O4    A    
C23   O6    A    
C2    C4    A    
O11   C42   S    
C45   H30   S    
C38   H15   S    
Cu2   N1    S    
C20   C23   S    
C46   H32   S    
C9    C37   A    
C34   O7    A    
C39   O15   S    
C10   C12   S    
C22   C24   A    
C8    C37   A    
Cu1   O1    S    
C11   H18   S    
C1    O2    A    
Cu2   O2    S    
C32   H11   S    
C13   H1    S    
C43   H25   S    
Cu1   O7    S    
C21   H4    S    
C33   H12   S    
C11   C17   A    
C9    C41   S    
C4    C5    A    
C44   H28   S    
C19   H3    S    
C6    C7    A    
C12   O3    A    
C29   C35   S    
C10   C38   A    
C32   C33   A    
C2    C3    A    
C32   N2    A    
C41   O9    D    
C36   H13   S    
C45   H31   S    
C11   C13   A    
O14   C45   S    
C5    C6    A    
C3    C10   A    
C33   C35   A    
C2    C40   A    
C20   C21   A    
C18   O12   S    
C27   C28   A    
Cu2   O4    S    
C14   C15   A    
C1    C14   S    
C13   C14   A    
C25   H6    S    
