data_mof_unit_23174.cif
_audit_creation_date              2012-12-10T17:46:59-0500
_audit_creation_method            fapswitch 2.2
_symmetry_space_group_name_H-M    P1
_symmetry_Int_Tables_number       1
_space_group_crystal_system       triclinic
_cell_length_a                    9.959304
_cell_length_b                    10.6903
_cell_length_c                    13.594016
_cell_angle_alpha                 94.319578
_cell_angle_beta                  83.314162
_cell_angle_gamma                 89.180254
_cell_volume                      1433.01199012

loop_
_atom_site_label
_atom_site_type_symbol
_atom_type_description
_atom_site_fract_x
_atom_site_fract_y
_atom_site_fract_z
_atom_type_partial_charge
C1    C     C_R   0.500598 0.737817 0.487318 0.942221
C2    C     C_R   0.620130 0.929855 0.434948 0.379359
C3    C     C_R   0.611553 0.060236 0.432964 0.414752
C4    C     C_R   0.476588 0.495401 0.684976 0.902197
C5    C     C_R   0.498101 0.124535 0.487518 -0.305686
C6    C     C_R   0.829953 0.676095 0.621492 -0.076533
C7    C     C_R   0.879892 0.778038 0.670923 -0.270079
C8    C     C_R   0.016159 0.786827 0.672287 -0.311679
C9    C     C_R   0.106438 0.688348 0.630201 0.518980
C10   C     C_R   0.059073 0.590681 0.562559 0.036340
C11   C     C_R   0.914464 0.588043 0.560874 0.106191
C12   C     C_1   0.460662 0.480433 0.787184 -0.223455
C13   C     C_R   0.939574 0.415713 0.441773 -0.109836
C14   C     C_R   0.082133 0.415603 0.441847 -0.107569
C15   C     C_R   0.499597 0.259505 0.501731 0.884957
C16   C     C_R   0.523906 0.498807 0.314480 0.850229
C17   C     C_1   0.541421 0.488385 0.210422 -0.197990
C18   C     C_2   0.557006 0.460506 0.017754 0.392827
C19   C     C_2   0.439978 0.457878 0.978350 0.371039
C20   C     C_1   0.448478 0.468506 0.873781 -0.077288
C21   C     C_1   0.552662 0.476196 0.122390 -0.026089
C22   C     C_3   0.207192 0.421101 0.988703 0.103699
C23   C     C_R   0.247705 0.882181 0.456812 -0.086305
C24   C     C_3   0.137523 0.535188 0.951802 -0.357881
C25   C     C_3   0.076291 0.500923 0.855652 -0.932250
C26   C     C_3   0.259740 0.749605 0.746414 0.074914
C27   C     C_3   0.328113 0.875784 0.734289 -0.351166
C28   C     C_3   0.351117 0.940774 0.834561 -0.989826
C29   C     C_3   0.735385 0.338061 0.942803 0.081760
C30   C     C_3   0.829311 0.312668 0.021104 -0.359671
C31   C     C_3   0.907199 0.188273 0.995744 -0.996933
C32   C     C_3   0.816806 0.854394 0.336198 0.100754
C33   C     C_3   0.771790 0.738726 0.276621 -0.359623
C34   C     C_R   0.127126 0.945918 0.493802 -0.152647
C35   C     C_3   0.841115 0.728401 0.170022 -0.975948
C36   C     C_3   0.659628 0.171484 0.294593 0.093337
C37   C     C_3   0.637013 0.069824 0.211697 -0.433541
C38   C     C_3   0.536727 0.114381 0.144199 -0.923110
C39   C     C_R   0.130600 0.059502 0.550159 -0.167133
C40   C     C_R   0.254293 0.115885 0.559375 -0.134463
C41   C     C_R   0.375929 0.060054 0.508958 0.036273
C42   C     C_R   0.373726 0.934869 0.472944 0.029351
C43   C     C_R   0.498532 0.867128 0.460959 -0.350742
H1    H     H_    0.723356 0.671586 0.631930 0.214451
H2    H     H_    0.133178 0.376618 0.041893 0.152278
H3    H     H_    0.236582 0.346116 0.928058 0.137149
H4    H     H_    0.056640 0.573317 0.010016 0.212332
H5    H     H_    0.210821 0.611132 0.938481 0.226812
H6    H     H_    0.157671 0.480340 0.793263 0.276041
H7    H     H_    0.012471 0.580324 0.838041 0.272043
H8    H     H_    0.012993 0.417126 0.862762 0.265044
H9    H     H_    0.329877 0.690048 0.780311 0.157634
H10   H     H_    0.168274 0.757636 0.802049 0.125747
H11   H     H_    0.427208 0.860333 0.687840 0.221380
H12   H     H_    0.811883 0.849506 0.710836 0.174985
H13   H     H_    0.264939 0.938197 0.696356 0.233430
H14   H     H_    0.252991 0.959832 0.881576 0.267425
H15   H     H_    0.401465 0.031416 0.823025 0.264413
H16   H     H_    0.416800 0.881169 0.873538 0.269432
H17   H     H_    0.794953 0.329914 0.868231 0.173410
H18   H     H_    0.657034 0.264462 0.940237 0.109468
H19   H     H_    0.901284 0.390161 0.026492 0.234659
H20   H     H_    0.770061 0.310320 0.095059 0.211414
H21   H     H_    0.835905 0.109777 0.990277 0.275496
H22   H     H_    0.971701 0.171595 0.055027 0.262836
H23   H     H_    0.049596 0.869964 0.711626 0.165914
H24   H     H_    0.973112 0.190459 0.924141 0.260522
H25   H     H_    0.925325 0.839710 0.344371 0.145047
H26   H     H_    0.813441 0.938352 0.294384 0.176474
H27   H     H_    0.799968 0.654366 0.312981 0.263749
H28   H     H_    0.660538 0.742891 0.275235 0.207528
H29   H     H_    0.812303 0.810102 0.130492 0.265971
H30   H     H_    0.809383 0.641385 0.129995 0.288938
H31   H     H_    0.952741 0.724349 0.169377 0.261684
H32   H     H_    0.733927 0.238397 0.262916 0.151371
H33   H     H_    0.564935 0.227724 0.316368 0.143260
H34   H     H_    0.144076 0.346306 0.394206 0.154232
H35   H     H_    0.735009 0.044816 0.166164 0.218729
H36   H     H_    0.595766 0.983782 0.243405 0.220957
H37   H     H_    0.435026 0.130389 0.186808 0.267948
H38   H     H_    0.529175 0.041783 0.082348 0.264231
H39   H     H_    0.569768 0.202685 0.112410 0.257939
H40   H     H_    0.241166 0.793066 0.414574 0.151790
H41   H     H_    0.031168 0.903985 0.483620 0.170890
H42   H     H_    0.037530 0.104920 0.585271 0.153119
H43   H     H_    0.252536 0.202545 0.605904 0.159994
H44   H     H_    0.895086 0.346553 0.393925 0.165099
N1    N     N_R   0.857120 0.501200 0.500900 -0.116369
N2    N     N_R   0.142720 0.501280 0.500940 -0.107538
O1    O     O_R   0.385310 0.683220 0.500000 -0.570004
O2    O     O_3   0.238803 0.690508 0.651929 -0.582450
O3    O     O_3   0.680569 0.461806 0.959183 -0.654368
O4    O     O_3   0.745279 0.869146 0.432866 -0.613010
O5    O     O_3   0.712145 0.122368 0.377582 -0.645882
O6    O     O_R   0.614640 0.683250 0.500010 -0.597746
O7    O     O_R   0.368830 0.499960 0.640340 -0.567593
O8    O     O_R   0.598160 0.499980 0.640350 -0.634001
O9    O     O_R   0.385360 0.316750 0.499990 -0.634921
O10   O     O_R   0.614690 0.316780 0.500000 -0.572537
O11   O     O_R   0.401840 0.500020 0.359650 -0.603556
O12   O     O_R   0.631170 0.500040 0.359660 -0.642902
O13   O     O_3   0.317254 0.458909 0.040309 -0.661862
Zn1   Zn    Zn3+2 0.346870 0.499980 0.499990 0.963876
Zn2   Zn    Zn3+2 0.653130 0.500020 0.500010 0.945861

loop_
_geom_bond_atom_site_label_1
_geom_bond_atom_site_label_2
_ccdc_geom_bond_type
C8    C9    A    
C35   H31   S    
C8    H23   S    
C1    O1    A    
C18   C21   S    
C41   C42   A    
C19   C20   S    
C7    H12   S    
C9    O2    S    
C27   H11   S    
C7    C8    A    
C28   H14   S    
C31   H24   S    
C37   H36   S    
C26   C27   S    
C29   C30   S    
C23   C42   A    
C23   H40   S    
C36   C37   S    
C30   C31   S    
C19   O13   S    
O9    Zn1   S    
C18   C19   D    
C14   H34   S    
C40   H43   S    
C25   H7    S    
C36   H33   S    
C4    O7    A    
C1    C43   S    
C10   N2    A    
C16   C17   S    
C4    C12   S    
C9    C10   A    
C2    C43   A    
C32   H25   S    
C32   O4    S    
C6    H1    S    
C13   C14   A    
N2    Zn1   S    
C12   C20   T    
C34   H41   S    
N1    Zn2   S    
C29   H18   S    
C34   C39   A    
C24   H5    S    
C24   C25   S    
C39   C40   A    
C27   H13   S    
C16   O11   A    
C26   O2    S    
O11   Zn1   S    
C17   C21   T    
C25   H8    S    
C14   N2    A    
C37   C38   S    
C36   H32   S    
C26   H9    S    
C29   H17   S    
C11   N1    A    
C1    O6    A    
C23   C34   A    
C13   H44   S    
C6    C7    A    
C33   H27   S    
C40   C41   A    
C22   H3    S    
C35   H29   S    
O12   Zn2   S    
C30   H19   S    
C38   H38   S    
C22   C24   S    
C42   C43   A    
C39   H42   S    
C15   O9    A    
C26   H10   S    
C6    C11   A    
O6    Zn2   S    
C28   H16   S    
C31   H22   S    
C5    C41   A    
C35   H30   S    
C24   H4    S    
C31   H21   S    
C2    O4    S    
C15   O10   A    
C3    C5    A    
C32   H26   S    
C28   H15   S    
C37   H35   S    
C22   O13   S    
C18   O3    S    
C32   C33   S    
C2    C3    A    
C38   H37   S    
C13   N1    A    
C30   H20   S    
C33   C35   S    
O10   Zn2   S    
C3    O5    S    
C25   H6    S    
O1    Zn1   S    
C5    C15   S    
O8    Zn2   S    
C10   C11   A    
C33   H28   S    
C36   O5    S    
C16   O12   A    
C22   H2    S    
O7    Zn1   S    
C27   C28   S    
C4    O8    A    
C29   O3    S    
C38   H39   S    
