data_mof_unit_49431.cif
_audit_creation_date              2012-12-10T17:03:44-0500
_audit_creation_method            fapswitch 2.2
_symmetry_space_group_name_H-M    P1
_symmetry_Int_Tables_number       1
_space_group_crystal_system       triclinic
_cell_length_a                    10.093575
_cell_length_b                    10.821046
_cell_length_c                    13.067815
_cell_angle_alpha                 90.641863
_cell_angle_beta                  69.939013
_cell_angle_gamma                 91.423237
_cell_volume                      1340.28990333

loop_
_atom_site_label
_atom_site_type_symbol
_atom_type_description
_atom_site_fract_x
_atom_site_fract_y
_atom_site_fract_z
_atom_type_partial_charge
C1    C     C_R   0.501212 0.736355 0.501599 0.921256
C2    C     C_R   0.366982 0.513738 0.823376 -0.162458
C3    C     C_2   0.618906 0.064936 0.476064 0.328402
C4    C     C_R   0.420739 0.503089 0.704426 0.959737
C5    C     C_2   0.513732 0.133331 0.466249 0.053310
C6    C     C_2   0.616086 0.934157 0.454024 -0.128260
C7    C     C_2   0.503274 0.866299 0.516376 -0.239160
C8    C     C_2   0.091929 0.414941 0.452981 0.019468
C9    C     C_2   0.951811 0.429763 0.438552 -0.138877
C10   C     C_R   0.501989 0.262771 0.493814 0.974638
C11   C     C_R   0.578758 0.500636 0.295795 0.931274
C12   C     C_R   0.424287 0.501906 0.989574 0.006314
C13   C     C_R   0.721384 0.332838 0.034709 0.429161
C14   C     C_R   0.626177 0.480594 0.179147 -0.121872
C15   C     C_R   0.262345 0.600564 0.873312 0.354279
C16   C     C_R   0.230929 0.629528 0.982360 -0.186840
C17   C     C_R   0.308270 0.581006 0.042248 -0.058342
C18   C     C_2   0.728354 0.886887 0.354597 1.008068
C19   C     C_2   0.391880 0.914369 0.614982 0.981351
C20   C     C_2   0.166667 0.302078 0.404491 1.075520
C21   C     C_2   0.851355 0.533829 0.604715 1.058707
C22   C     C_2   0.246997 0.600127 0.161418 0.885304
C23   C     C_R   0.436681 0.454107 0.885452 -0.070779
C24   C     C_R   0.528722 0.467915 0.034353 0.065920
C25   C     C_R   0.622414 0.370045 0.986972 -0.048390
C26   C     C_R   0.610966 0.308150 0.896251 -0.139434
C27   C     C_R   0.518238 0.347749 0.846808 0.395064
C28   C     C_R   0.545881 0.530584 0.123118 -0.116146
C29   C     C_R   0.719228 0.385859 0.132799 -0.232285
Cl1   Cl    Cl    0.393501 0.070527 0.406232 -0.541902
Cl2   Cl    Cl    0.841723 0.213622 0.980057 -0.506985
Cl3   Cl    Cl    0.166079 0.676593 0.803708 -0.514691
Cl4   Cl    Cl    0.489173 0.246612 0.750156 -0.532277
Cl5   Cl    Cl    0.751099 0.116219 0.528635 -0.380112
H1    H     H_    0.782733 0.347457 0.176282 0.188389
H2    H     H_    0.875198 0.484152 0.745795 0.358878
H3    H     H_    0.152331 0.715761 0.285836 0.364935
H4    H     H_    0.101795 0.583579 0.513305 0.188699
H5    H     H_    0.932387 0.378476 0.373007 0.175816
H6    H     H_    0.672396 0.227186 0.863593 0.252625
H7    H     H_    0.490304 0.614017 0.155459 0.163284
H8    H     H_    0.143767 0.690155 0.021082 0.216469
H9    H     H_    0.784106 0.766760 0.228329 0.354601
H10   H     H_    0.344339 0.002565 0.759096 0.392417
H11   H     H_    0.320539 0.228757 0.276726 0.374578
N1    N     N_2   0.148270 0.498670 0.498870 -0.203640
N2    N     N_2   0.852610 0.498640 0.498840 -0.181855
O1    O     O_R   0.386950 0.680940 0.500020 -0.570996
O2    O     O_R   0.699441 0.788983 0.294070 -0.809239
O3    O     O_2   0.267501 0.893959 0.627877 -0.478044
O4    O     O_R   0.429537 0.978596 0.694464 -0.716727
O5    O     O_2   0.110336 0.201296 0.434785 -0.494473
O6    O     O_R   0.292565 0.310262 0.316070 -0.731731
O7    O     O_2   0.813998 0.637448 0.638887 -0.571900
O8    O     O_R   0.883497 0.448269 0.671896 -0.765969
O9    O     O_2   0.238150 0.514080 0.222953 -0.607132
O10   O     O_R   0.193361 0.715132 0.203296 -0.752336
O11   O     O_R   0.613110 0.680900 0.499980 -0.595607
O12   O     O_R   0.330780 0.500000 0.653640 -0.556969
O13   O     O_R   0.556930 0.499960 0.653610 -0.599785
O14   O     O_R   0.386890 0.319100 0.500020 -0.580467
O15   O     O_R   0.613050 0.319060 0.499980 -0.580369
O16   O     O_R   0.443070 0.500040 0.346390 -0.550688
O17   O     O_R   0.669220 0.500000 0.346360 -0.631581
O18   O     O_2   0.845021 0.937461 0.323279 -0.528505
Zn1   Zn    Zn3+2 0.349000 0.500030 0.500020 1.094708
Zn2   Zn    Zn3+2 0.651000 0.499970 0.499980 1.053653

loop_
_geom_bond_atom_site_label_1
_geom_bond_atom_site_label_2
_ccdc_geom_bond_type
C12   C17   A    
C8    C9    S    
C2    C4    S    
C1    O1    A    
N1    Zn1   S    
C6    C7    D    
C23   C27   A    
C12   C24   A    
C7    C19   S    
C17   C22   S    
C12   C23   A    
C3    C6    S    
C13   C25   A    
C4    O13   A    
C22   O10   S    
O16   Zn1   S    
H11   O6    S    
C5    C10   S    
C20   O5    D    
H2    O8    S    
C8    C20   S    
C1    O11   A    
C27   Cl4   S    
C18   O18   D    
C2    C15   A    
C19   O3    D    
C26   H6    S    
C26   C27   A    
C10   O15   A    
O15   Zn2   S    
C4    O12   A    
N2    Zn2   S    
C9    N2    D    
C11   O16   A    
O12   Zn1   S    
C21   O7    D    
C6    C18   S    
C11   C14   S    
C8    N1    D    
H4    N1    S    
C10   O14   A    
C16   C17   A    
C14   C29   A    
C15   C16   A    
O17   Zn2   S    
C19   O4    S    
O11   Zn2   S    
C9    H5    S    
C24   C25   A    
H10   O4    S    
O13   Zn2   S    
C5    Cl1   S    
C13   C29   A    
C2    C23   A    
C21   O8    S    
O1    Zn1   S    
C29   H1    S    
H9    O2    S    
C22   O9    D    
C3    Cl5   S    
C14   C28   A    
C25   C26   A    
C1    C7    S    
C16   H8    S    
C11   O17   A    
O14   Zn1   S    
C13   Cl2   S    
H3    O10   S    
C28   H7    S    
C24   C28   A    
C18   O2    S    
C21   N2    S    
C20   O6    S    
C3    C5    D    
C15   Cl3   S    
