data_mof_unit_11538.cif
_audit_creation_date              2012-12-11T16:26:10-0500
_audit_creation_method            fapswitch 2.2
_symmetry_space_group_name_H-M    P1
_symmetry_Int_Tables_number       1
_space_group_crystal_system       triclinic
_cell_length_a                    13.902212
_cell_length_b                    13.993006
_cell_length_c                    31.918123
_cell_angle_alpha                 89.735518
_cell_angle_beta                  90.446578
_cell_angle_gamma                 119.788788
_cell_volume                      5388.5254312

loop_
_atom_site_label
_atom_site_type_symbol
_atom_type_description
_atom_site_fract_x
_atom_site_fract_y
_atom_site_fract_z
_atom_type_partial_charge
C1    C     C_R   0.568073 0.443600 0.810610 0.533515
C2    C     C_R   0.875808 0.431947 0.689396 0.543867
C3    C     C_R   0.555909 0.123093 0.810488 0.543281
C4    C     C_R   0.567092 0.444277 0.689600 0.538229
C5    C     C_R   0.830058 0.403767 0.814791 0.559511
C6    C     C_R   0.573295 0.169395 0.685021 0.564410
C7    C     C_R   0.426377 0.595892 0.314821 0.563743
C8    C     C_R   0.403451 0.829923 0.185076 0.561678
C9    C     C_R   0.124293 0.556249 0.310613 0.535187
C10   C     C_R   0.443847 0.568145 0.189422 0.542278
C11   C     C_R   0.432880 0.876978 0.310436 0.546630
C12   C     C_R   0.122939 0.555832 0.189579 0.536292
C13   C     C_1   0.925753 0.483184 0.027887 0.050858
C14   C     C_1   0.555520 0.069981 0.472346 0.041417
C15   C     C_1   0.485984 0.488810 0.018895 0.038215
C16   C     C_1   0.004373 0.517348 0.481338 0.066489
C17   C     C_1   0.469205 0.904281 0.008689 0.016806
C18   C     C_1   0.433481 0.531007 0.491423 0.046393
C19   C     C_1   0.563958 0.092331 0.508922 0.043773
C20   C     C_1   0.903218 0.468822 0.991282 0.020837
C21   C     C_1   0.441487 0.517194 0.528102 0.044162
C22   C     C_1   0.483758 0.927380 0.972158 0.042870
C23   C     C_1   0.996310 0.513305 0.518723 0.065814
C24   C     C_1   0.490682 0.484116 0.981593 0.039146
C25   C     C_R   0.852624 0.422610 0.860095 -0.037579
C26   C     C_R   0.569069 0.145193 0.639891 -0.027175
C27   C     C_R   0.531637 0.458173 0.852018 -0.024256
C28   C     C_R   0.928893 0.469160 0.648259 -0.024053
C29   C     C_R   0.534740 0.058560 0.849399 -0.026413
C30   C     C_R   0.522766 0.465899 0.650839 -0.023042
C31   C     C_R   0.476213 0.941307 0.349328 -0.023190
C32   C     C_R   0.057504 0.534600 0.150725 -0.024350
C33   C     C_R   0.430162 0.576512 0.360103 -0.026167
C34   C     C_R   0.422483 0.852737 0.139814 -0.037161
C35   C     C_R   0.071497 0.540615 0.351793 -0.023298
C36   C     C_R   0.459325 0.531362 0.148228 -0.025283
C37   C     C_R   0.837767 0.503183 0.880456 -0.125524
C38   C     C_R   0.664049 0.157437 0.619698 -0.125385
C39   C     C_R   0.458210 0.364782 0.875121 -0.119745
C40   C     C_R   0.917681 0.550092 0.626138 -0.117638
C41   C     C_R   0.621746 0.055607 0.870859 -0.125263
C42   C     C_R   0.433627 0.379452 0.629435 -0.120660
C43   C     C_R   0.566401 0.944439 0.370671 -0.121529
C44   C     C_R   0.057482 0.621739 0.128769 -0.123147
C45   C     C_R   0.335387 0.494338 0.380318 -0.122420
C46   C     C_R   0.504168 0.838978 0.119502 -0.123822
C47   C     C_R   0.082970 0.632502 0.373745 -0.117462
C48   C     C_R   0.366137 0.455399 0.125245 -0.119795
C49   C     C_R   0.852197 0.517813 0.923921 0.096557
C50   C     C_R   0.663683 0.141016 0.576400 0.082003
C51   C     C_R   0.441679 0.373186 0.917776 0.089581
C52   C     C_R   0.944661 0.568931 0.583609 0.084278
C53   C     C_R   0.604870 0.007808 0.910843 0.089931
C54   C     C_R   0.402003 0.396593 0.589506 0.087534
C55   C     C_R   0.596918 0.991421 0.410752 0.088108
C56   C     C_R   0.008874 0.604629 0.088826 0.089478
C57   C     C_R   0.335141 0.479085 0.423742 0.083683
C58   C     C_R   0.518960 0.853692 0.076067 0.097258
C59   C     C_R   0.056230 0.624442 0.416272 0.084616
C60   C     C_R   0.375117 0.437470 0.082749 0.085798
C61   C     C_R   0.881760 0.450684 0.947172 0.065648
C62   C     C_R   0.567193 0.113270 0.553040 0.094148
C63   C     C_R   0.497399 0.476998 0.937121 0.094987
C64   C     C_R   0.984480 0.506629 0.563340 0.093804
C65   C     C_R   0.499125 0.961521 0.929075 0.096551
C66   C     C_R   0.459784 0.502000 0.571298 0.091254
C67   C     C_R   0.536647 0.036401 0.429248 0.095387
C68   C     C_R   0.959164 0.498677 0.071082 0.095753
C69   C     C_R   0.430758 0.548096 0.447185 0.094221
C70   C     C_R   0.450735 0.882248 0.052756 0.067729
C71   C     C_R   0.016228 0.522641 0.436724 0.095981
C72   C     C_R   0.479104 0.495468 0.063381 0.090847
C73   C     C_R   0.895083 0.368489 0.927097 0.073865
C74   C     C_R   0.471875 0.102134 0.572764 0.088780
C75   C     C_R   0.564593 0.572508 0.913648 0.079452
C76   C     C_R   0.004519 0.431634 0.585917 0.084528
C77   C     C_R   0.410048 0.958867 0.906895 0.079614
C78   C     C_R   0.544840 0.590632 0.593512 0.087473
C79   C     C_R   0.449914 0.038837 0.407203 0.088371
C80   C     C_R   0.953201 0.409550 0.093782 0.085339
C81   C     C_R   0.525931 0.631532 0.427427 0.085951
C82   C     C_R   0.367229 0.894189 0.072777 0.078887
C83   C     C_R   0.995960 0.427986 0.414335 0.086477
C84   C     C_R   0.574654 0.565483 0.086771 0.081482
C85   C     C_R   0.879792 0.354624 0.883851 -0.085440
C86   C     C_R   0.473841 0.118941 0.616098 -0.121026
C87   C     C_R   0.581870 0.562181 0.871081 -0.126519
C88   C     C_R   0.975960 0.413029 0.628370 -0.127377
C89   C     C_R   0.428617 0.007478 0.867171 -0.118727
C90   C     C_R   0.575749 0.571804 0.633195 -0.117437
C91   C     C_R   0.420725 0.991668 0.367267 -0.118648
C92   C     C_R   0.002595 0.428296 0.133522 -0.115775
C93   C     C_R   0.524582 0.645594 0.383965 -0.120768
C94   C     C_R   0.353475 0.878973 0.116009 -0.083904
C95   C     C_R   0.024435 0.437871 0.371873 -0.127028
C96   C     C_R   0.563864 0.583315 0.129225 -0.125215
Cr1   Cr    Cr6+3 0.504240 0.249200 0.750000 1.005174
Cr2   Cr    Cr6+3 0.744960 0.495760 0.750000 1.008305
Cr3   Cr    Cr6+3 0.750800 0.255040 0.750000 1.010130
Cr4   Cr    Cr6+3 0.249200 0.504240 0.250000 1.007768
Cr5   Cr    Cr6+3 0.495760 0.744960 0.250000 1.008812
Cr6   Cr    Cr6+3 0.255040 0.750800 0.250000 1.003720
H1    H     H_    0.813676 0.554076 0.862643 0.141724
H2    H     H_    0.739040 0.180622 0.637548 0.139059
H3    H     H_    0.419121 0.284017 0.860743 0.137345
H4    H     H_    0.881758 0.594163 0.641210 0.135461
H5    H     H_    0.703845 0.094560 0.857345 0.125724
H6    H     H_    0.391958 0.297514 0.642863 0.123170
H7    H     H_    0.609984 0.906143 0.357013 0.121967
H8    H     H_    0.099326 0.703972 0.141871 0.124582
H9    H     H_    0.261018 0.442342 0.362391 0.139921
H10   H     H_    0.555847 0.815576 0.137335 0.140205
H11   H     H_    0.118912 0.712185 0.358541 0.134498
H12   H     H_    0.285051 0.414748 0.139633 0.137511
H13   H     H_    0.001218 0.360299 0.150407 0.131941
H14   H     H_    0.351592 0.990560 0.350925 0.131467
H15   H     H_    0.636264 0.641228 0.146918 0.129185
H16   H     H_    0.014482 0.366397 0.355066 0.127136
H17   H     H_    0.288204 0.887261 0.130868 0.150237
H18   H     H_    0.597208 0.710877 0.368872 0.125799
H19   H     H_    0.401050 0.111947 0.631148 0.125528
H20   H     H_    0.888941 0.290217 0.868943 0.153973
H21   H     H_    0.643808 0.639358 0.649668 0.130807
H22   H     H_    0.360642 0.008438 0.850729 0.134331
H23   H     H_    0.985780 0.351129 0.645317 0.127826
H24   H     H_    0.637865 0.634652 0.853301 0.130231
O1    O     O_R   0.480350 0.140770 0.796330 -0.514214
O2    O     O_R   0.660420 0.519650 0.703670 -0.515545
O3    O     O_R   0.859230 0.339580 0.796330 -0.511960
O4    O     O_R   0.480350 0.140770 0.703670 -0.512607
O5    O     O_R   0.660420 0.519650 0.796330 -0.525496
O6    O     O_R   0.859230 0.339580 0.703670 -0.522085
O7    O     O_R   0.140770 0.480350 0.296330 -0.525130
O8    O     O_R   0.519650 0.660420 0.203670 -0.523498
O9    O     O_R   0.339580 0.859230 0.296330 -0.513547
O10   O     O_R   0.140770 0.480350 0.203670 -0.515919
O11   O     O_R   0.519650 0.660420 0.296330 -0.513024
O12   O     O_R   0.339580 0.859230 0.203670 -0.512931
O13   O     O_R   0.514930 0.348530 0.793250 -0.499662
O14   O     O_R   0.833600 0.485070 0.706750 -0.494256
O15   O     O_R   0.651470 0.166400 0.793250 -0.509640
O16   O     O_R   0.514930 0.348530 0.706750 -0.512803
O17   O     O_R   0.833600 0.485070 0.793250 -0.491385
O18   O     O_R   0.651470 0.166400 0.706750 -0.496310
O19   O     O_R   0.348530 0.514930 0.293250 -0.493724
O20   O     O_R   0.485070 0.833600 0.206750 -0.494009
O21   O     O_R   0.166400 0.651470 0.293250 -0.500518
O22   O     O_R   0.348530 0.514930 0.206750 -0.493864
O23   O     O_R   0.485070 0.833600 0.293250 -0.509622
O24   O     O_R   0.166400 0.651470 0.206750 -0.514125
O25   O     O_3   0.666667 0.333333 0.750000 -0.264742
O26   O     O_3   0.333333 0.666667 0.250000 -0.264289
N1    N     N_3   0.014460 0.695105 0.065290 -0.608663
H25   H     H_    0.058264 0.768615 0.082072 0.237224
H26   H     H_    0.933514 0.680759 0.061797 0.241572
N2    N     N_3   0.686461 0.990726 0.433328 -0.625435
H27   H     H_    0.727210 0.961725 0.414229 0.221025
H28   H     H_    0.651909 0.934548 0.457988 0.248188
N3    N     N_3   0.278382 0.364843 0.058580 -0.604602
H29   H     H_    0.207156 0.333392 0.077004 0.231933
H30   H     H_    0.286838 0.297608 0.049644 0.241592
N4    N     N_3   0.074989 0.720243 0.439411 -0.634823
H31   H     H_    0.110814 0.790177 0.420276 0.221941
H32   H     H_    0.997572 0.708369 0.448305 0.234846
N5    N     N_3   0.603324 0.840584 0.055506 -0.613843
H33   H     H_    0.650535 0.825725 0.077485 0.221077
H34   H     H_    0.563298 0.770210 0.036753 0.244299
N6    N     N_3   0.238147 0.394494 0.444252 -0.596144
H35   H     H_    0.173403 0.353822 0.422687 0.239312
H36   H     H_    0.257413 0.335725 0.455575 0.236660
N7    N     N_3   0.760973 0.153259 0.555921 -0.594040
H37   H     H_    0.826482 0.178778 0.577321 0.239474
H38   H     H_    0.742987 0.075416 0.545400 0.232714
N8    N     N_3   0.837898 0.600962 0.944574 -0.612930
H39   H     H_    0.822760 0.647701 0.922622 0.223292
H40   H     H_    0.766874 0.560595 0.963047 0.232136
N9    N     N_3   0.314235 0.306843 0.566712 -0.627763
H41   H     H_    0.274793 0.236835 0.585693 0.220868
H42   H     H_    0.350381 0.286966 0.542115 0.251197
N10   N     N_3   0.695082 0.008722 0.933537 -0.605515
H43   H     H_    0.766338 0.042067 0.915077 0.236833
H44   H     H_    0.713544 0.061506 0.959130 0.240299
N11   N     N_3   0.926312 0.646702 0.560282 -0.623245
H45   H     H_    0.890824 0.681389 0.579321 0.230622
H46   H     H_    0.003852 0.711097 0.551315 0.230615
N12   N     N_3   0.371648 0.276350 0.941942 -0.611749
H47   H     H_    0.331188 0.207446 0.922465 0.233577
H48   H     H_    0.422859 0.261609 0.961914 0.228165
N13   N     N_3   0.901770 0.301501 0.075384 -0.633802
H49   H     H_    0.816989 0.273963 0.072567 0.231312
H50   H     H_    0.909342 0.246040 0.095309 0.230574
N14   N     N_3   0.389394 0.085885 0.426165 -0.614230
H51   H     H_    0.341537 0.032949 0.450209 0.239435
H52   H     H_    0.333863 0.088865 0.404634 0.222455
N15   N     N_3   0.681534 0.619736 0.067042 -0.640499
H53   H     H_    0.681949 0.676081 0.045334 0.229904
H54   H     H_    0.743698 0.665431 0.089018 0.221626
N16   N     N_3   0.951801 0.323628 0.435426 -0.593599
H55   H     H_    0.870563 0.299721 0.444137 0.253521
H56   H     H_    0.946597 0.263155 0.414914 0.227507
N17   N     N_3   0.295399 0.921830 0.049796 -0.629995
H57   H     H_    0.344093 0.997232 0.034736 0.243435
H58   H     H_    0.253956 0.861607 0.026887 0.265328
N18   N     N_3   0.623235 0.701919 0.451745 -0.621205
H59   H     H_    0.655966 0.653648 0.463011 0.245536
H60   H     H_    0.684179 0.762469 0.432756 0.215951
N19   N     N_3   0.373812 0.074512 0.548529 -0.632849
H61   H     H_    0.341488 0.993497 0.538085 0.228291
H62   H     H_    0.313015 0.075284 0.567368 0.218372
N20   N     N_3   0.924511 0.298340 0.950034 -0.632803
H63   H     H_    0.864866 0.257488 0.973142 0.239500
H64   H     H_    0.000733 0.347708 0.964903 0.260698
N21   N     N_3   0.602974 0.698168 0.574678 -0.614737
H65   H     H_    0.547138 0.727492 0.572034 0.232664
H66   H     H_    0.667273 0.753148 0.594244 0.221861
N22   N     N_3   0.302281 0.911266 0.925764 -0.635726
H67   H     H_    0.271762 0.826509 0.928366 0.242779
H68   H     H_    0.247079 0.921167 0.906252 0.231615
N23   N     N_3   0.048518 0.370900 0.565024 -0.594147
H69   H     H_    0.129824 0.427144 0.556307 0.250311
H70   H     H_    0.053519 0.315254 0.585662 0.227403
N24   N     N_3   0.616466 0.678961 0.933387 -0.611715
H71   H     H_    0.675116 0.682075 0.954850 0.226221
H72   H     H_    0.659883 0.741063 0.911362 0.241134

loop_
_geom_bond_atom_site_label_1
_geom_bond_atom_site_label_2
_ccdc_geom_bond_type
C68   C80   A    
C44   H8    S    
C39   C51   A    
N7    H37   S    
N5    H33   S    
C82   C94   A    
C46   H10   S    
Cr2   O17   S    
C18   C21   T    
C33   C45   A    
C80   N13   S    
C3    O15   A    
C52   N11   S    
C64   C76   A    
Cr1   O1    S    
C35   C47   A    
C29   C89   A    
C4    C30   S    
C84   N15   S    
C57   N6    S    
C32   C92   A    
Cr5   O8    S    
C78   C90   A    
C7    O19   A    
C15   C72   S    
N7    H38   S    
C45   C57   A    
C31   C43   A    
Cr3   O6    S    
C40   H4    S    
N2    H27   S    
N22   H68   S    
Cr1   O4    S    
N11   H46   S    
C4    O16   A    
C21   C66   S    
C3    O1    A    
C5    O17   A    
C60   C72   A    
C76   N23   S    
Cr6   O12   S    
C37   C49   A    
C91   H14   S    
C8    O12   A    
C84   C96   A    
Cr5   O23   S    
C20   C61   S    
C3    C29   S    
C58   N5    S    
C44   C56   A    
N8    H39   S    
C38   H2    S    
C25   C37   A    
Cr6   O9    S    
C11   O23   A    
C75   N24   S    
C27   C39   A    
N9    H42   S    
Cr2   O5    S    
C28   C88   A    
C2    O6    A    
C14   C67   S    
N3    H30   S    
N16   H56   S    
N16   H55   S    
C34   C46   A    
C93   H18   S    
N1    H26   S    
C53   C65   A    
C76   C88   A    
N4    H32   S    
C42   H6    S    
C1    O13   A    
C6    O4    A    
Cr2   O25   S    
C96   H15   S    
C18   C69   S    
N6    H36   S    
C11   C31   S    
C17   C70   S    
N5    H34   S    
C12   C32   S    
N18   H59   S    
N17   H58   S    
N24   H71   S    
C16   C71   S    
C78   N21   S    
C49   N8    S    
N10   H44   S    
C48   C60   A    
C81   N18   S    
C71   C83   A    
C74   N19   S    
N21   H66   S    
C95   H16   S    
C32   C44   A    
C55   N2    S    
C66   C78   A    
C8    O20   A    
Cr5   O20   S    
C49   C61   A    
C38   C50   A    
C7    C33   S    
C9    C35   S    
N19   H61   S    
C12   O24   A    
C73   N20   S    
C67   C79   A    
N22   H67   S    
C52   C64   A    
N23   H69   S    
C7    O11   A    
Cr3   O3    S    
C58   C70   A    
C82   N17   S    
C61   C73   A    
C40   C52   A    
Cr3   O25   S    
C9    O21   A    
Cr4   O26   S    
Cr2   O14   S    
Cr3   O18   S    
N14   H52   S    
C80   C92   A    
C60   N3    S    
N24   H72   S    
N11   H45   S    
C22   C65   S    
C88   H23   S    
C90   H21   S    
C11   O9    A    
Cr6   O21   S    
N23   H70   S    
C65   C77   A    
C81   C93   A    
C94   H17   S    
C36   C96   A    
N3    H29   S    
N21   H65   S    
Cr4   O19   S    
C26   C86   A    
C62   C74   A    
C83   C95   A    
C86   H19   S    
C25   C85   A    
Cr1   O25   S    
C51   C63   A    
C85   H20   S    
C8    C34   S    
C74   C86   A    
C83   N16   S    
C27   C87   A    
C41   C53   A    
C72   C84   A    
Cr6   O26   S    
Cr6   O24   S    
C5    C25   S    
C75   C87   A    
N6    H35   S    
N18   H60   S    
N20   H63   S    
C24   C63   S    
N20   H64   S    
C79   N14   S    
C50   C62   A    
C5    O3    A    
N12   H48   S    
C53   N10   S    
Cr4   O7    S    
C48   H12   S    
N4    H31   S    
C73   C85   A    
C43   C55   A    
C47   H11   S    
C15   C24   T    
C4    O2    A    
Cr5   O11   S    
C41   H5    S    
C13   C20   T    
C29   C41   A    
C77   C89   A    
C79   C91   A    
C14   C19   T    
Cr3   O15   S    
C26   C38   A    
C34   C94   A    
N19   H62   S    
C56   N1    S    
C1    O5    A    
C33   C93   A    
C39   H3    S    
C55   C67   A    
C45   H9    S    
C54   C66   A    
C89   H22   S    
C35   C95   A    
C16   C23   T    
C43   H7    S    
Cr5   O26   S    
C31   C91   A    
C17   C22   T    
C54   N9    S    
C2    O14   A    
N14   H51   S    
N2    H28   S    
N12   H47   S    
C23   C64   S    
C59   N4    S    
C56   C68   A    
C42   C54   A    
C6    C26   S    
C63   C75   A    
Cr4   O22   S    
C50   N7    S    
Cr2   O2    S    
C10   C36   S    
C36   C48   A    
C37   H1    S    
N13   H49   S    
C70   C82   A    
C92   H13   S    
N8    H40   S    
Cr1   O16   S    
C69   C81   A    
C47   C59   A    
N15   H53   S    
C51   N12   S    
C10   O8    A    
N17   H57   S    
N9    H41   S    
C12   O10   A    
C59   C71   A    
Cr4   O10   S    
C1    C27   S    
C28   C40   A    
C30   C42   A    
C2    C28   S    
C19   C62   S    
C57   C69   A    
N1    H25   S    
C6    O18   A    
Cr1   O13   S    
C30   C90   A    
C46   C58   A    
N10   H43   S    
C87   H24   S    
C77   N22   S    
C10   O22   A    
N13   H50   S    
N15   H54   S    
C13   C68   S    
C9    O7    A    
