data_mof_unit_44538.cif
_audit_creation_date              2012-12-11T14:56:00-0500
_audit_creation_method            fapswitch 2.2
_symmetry_space_group_name_H-M    P1
_symmetry_Int_Tables_number       1
_space_group_crystal_system       triclinic
_cell_length_a                    27.979758
_cell_length_b                    17.281629
_cell_length_c                    18.021926
_cell_angle_alpha                 90.135105
_cell_angle_beta                  138.090872
_cell_angle_gamma                 89.929976
_cell_volume                      5820.67263261

loop_
_atom_site_label
_atom_site_type_symbol
_atom_type_description
_atom_site_fract_x
_atom_site_fract_y
_atom_site_fract_z
_atom_type_partial_charge
C1    C     C_R   0.668180 0.922654 0.817594 -0.125045
C2    C     C_3   0.254669 0.652567 0.047872 -0.169824
C3    C     C_3   0.665787 0.777840 0.980542 -0.150362
C4    C     C_3   0.164026 0.726167 0.977066 -0.152898
C5    C     C_3   0.836292 0.272716 0.024082 -0.153651
C6    C     C_3   0.791586 0.772134 0.053900 -0.151360
C7    C     C_3   0.208476 0.228060 0.946262 -0.151233
C8    C     C_3   0.235814 0.700597 0.096166 -0.143734
C9    C     C_3   0.765087 0.298548 0.904608 -0.143480
C10   C     C_3   0.719404 0.746751 0.938291 -0.137155
C11   C     C_3   0.280754 0.253390 0.061796 -0.137219
C12   C     C_3   0.778058 0.251140 0.060458 -0.134673
C13   C     C_3   0.300065 0.296225 0.012270 -0.170087
C14   C     C_3   0.221062 0.749701 0.939002 -0.135121
C15   C     C_3   0.260601 0.197347 0.901251 -0.144566
C16   C     C_3   0.739235 0.802501 0.098613 -0.144518
C17   C     C_3   0.271977 0.770609 0.101894 0.183451
C18   C     C_3   0.727966 0.229377 0.898239 0.183471
C19   C     C_3   0.685867 0.820275 0.932260 0.184372
C20   C     C_3   0.314119 0.179723 0.067721 0.184363
C21   C     C_3   0.815827 0.320734 0.068657 0.184250
C22   C     C_3   0.184248 0.679264 0.931434 0.184220
C23   C     C_3   0.227853 0.270628 0.897109 0.183462
C24   C     C_3   0.700042 0.703712 0.987625 -0.170085
C25   C     C_3   0.772156 0.729363 0.102861 0.183464
C26   C     C_3   0.201511 0.797139 0.985608 -0.169481
C27   C     C_3   0.797857 0.202599 0.014919 -0.169218
C28   C     C_3   0.757940 0.846059 0.047686 -0.170568
C29   C     C_3   0.241947 0.153996 0.952366 -0.170604
C30   C     C_R   0.612119 0.851737 0.356720 0.131160
C31   C     C_R   0.387861 0.148279 0.643248 0.131166
C32   C     C_R   0.284123 0.755375 0.380207 0.124110
C33   C     C_R   0.331813 0.077345 0.182405 -0.125039
C34   C     C_R   0.715867 0.244625 0.619753 0.123881
C35   C     C_R   0.216052 0.255468 0.620283 0.125185
C36   C     C_R   0.783951 0.744529 0.379742 0.125140
C37   C     C_R   0.887660 0.352100 0.642888 0.131268
C38   C     C_R   0.112359 0.647917 0.357147 0.131267
C39   C     C_R   0.394763 0.251147 0.742472 -0.235235
C40   C     C_R   0.605229 0.748858 0.257522 -0.235206
C41   C     C_R   0.737856 0.374187 0.599137 -0.230829
C42   C     C_R   0.262141 0.625819 0.400846 -0.230782
C43   C     C_R   0.761716 0.874187 0.400141 -0.230806
C44   C     C_R   0.312313 0.898989 0.196563 -0.137706
C45   C     C_R   0.238281 0.125813 0.599867 -0.230799
C46   C     C_R   0.105451 0.750662 0.258244 -0.235049
C47   C     C_R   0.894555 0.249347 0.741765 -0.234999
C48   C     C_R   0.423321 0.213141 0.714304 -0.173368
C49   C     C_R   0.576662 0.786872 0.285670 -0.173418
C50   C     C_R   0.693998 0.322057 0.585247 -0.191027
C51   C     C_R   0.305990 0.677945 0.414708 -0.191286
C52   C     C_R   0.805712 0.822059 0.414226 -0.191827
C53   C     C_R   0.194289 0.177938 0.585796 -0.191867
C54   C     C_R   0.076833 0.712597 0.286138 -0.173740
C55   C     C_R   0.687663 0.101000 0.803513 -0.138072
C56   C     C_R   0.923183 0.287418 0.713893 -0.173774
C57   C     C_R   0.334292 0.111933 0.622840 -0.281961
C58   C     C_R   0.665692 0.888079 0.377135 -0.281953
C59   C     C_R   0.787095 0.224615 0.687619 -0.291397
C60   C     C_R   0.212897 0.775386 0.312349 -0.290986
C61   C     C_R   0.712703 0.724368 0.311622 -0.289645
C62   C     C_R   0.287300 0.275628 0.688403 -0.289587
C63   C     C_R   0.166131 0.611780 0.377823 -0.281979
C64   C     C_R   0.833886 0.388238 0.622207 -0.281984
C65   C     C_R   0.303085 0.151728 0.645585 0.192233
C66   C     C_R   0.187845 0.398816 0.802710 -0.137426
C67   C     C_R   0.696908 0.848276 0.354411 0.192230
C68   C     C_R   0.830008 0.275334 0.697094 0.193716
C69   C     C_R   0.169992 0.724673 0.302898 0.193620
C70   C     C_R   0.669693 0.775045 0.302091 0.193254
C71   C     C_R   0.330304 0.224956 0.697915 0.193244
C72   C     C_R   0.197322 0.651593 0.355200 0.192259
C73   C     C_R   0.802682 0.348418 0.644803 0.192241
C74   C     C_R   0.360568 0.070837 0.492787 -0.130704
C75   C     C_R   0.639423 0.929168 0.507198 -0.130688
C76   C     C_R   0.674677 0.104634 0.595115 -0.147307
C77   C     C_R   0.812159 0.601178 0.197273 -0.137509
C78   C     C_R   0.325321 0.895367 0.404879 -0.147287
C79   C     C_R   0.825306 0.604556 0.404875 -0.146077
C80   C     C_R   0.174695 0.395443 0.595132 -0.146061
C81   C     C_R   0.139427 0.570654 0.507189 -0.131593
C82   C     C_R   0.860584 0.429354 0.492830 -0.131612
C83   C     C_R   0.408651 0.803271 0.495832 -0.141639
C84   C     C_R   0.591344 0.196728 0.504156 -0.141652
C85   C     C_R   0.557245 0.834529 0.420638 -0.134781
C86   C     C_R   0.442738 0.165485 0.579337 -0.134735
C87   C     C_R   0.942763 0.334772 0.579314 -0.136404
C88   C     C_R   0.833295 0.423438 0.182854 -0.126743
C89   C     C_R   0.057248 0.665236 0.420703 -0.136398
C90   C     C_R   0.091420 0.303219 0.504269 -0.140458
C91   C     C_R   0.908583 0.696779 0.495743 -0.140397
C92   C     C_R   0.604992 0.193513 0.714307 -0.158369
C93   C     C_R   0.394973 0.806467 0.285744 -0.158666
C94   C     C_R   0.416704 0.168643 0.272650 -0.143982
C95   C     C_R   0.583287 0.831363 0.727344 -0.143936
C96   C     C_R   0.082163 0.668282 0.726601 -0.142507
C97   C     C_R   0.917880 0.331751 0.273425 -0.142127
C98   C     C_R   0.894913 0.693623 0.286453 -0.159003
C99   C     C_R   0.166760 0.576590 0.817158 -0.126362
C100  C     C_R   0.105092 0.306372 0.713535 -0.159040
C101  C     C_R   0.641884 0.863276 0.830247 0.031031
C102  C     C_R   0.358097 0.136736 0.169746 0.031064
C103  C     C_R   0.324440 0.823447 0.192170 0.043032
C104  C     C_R   0.675504 0.176521 0.807963 0.043083
C105  C     C_R   0.175774 0.323186 0.806575 0.043172
C106  C     C_R   0.824235 0.676805 0.193397 0.043184
C107  C     C_R   0.860205 0.364313 0.170590 0.030816
C108  C     C_R   0.139904 0.635764 0.829443 0.030944
C109  C     C_R   0.397168 0.127959 0.575322 0.062105
C110  C     C_3   0.745985 0.347697 0.951851 -0.169538
C111  C     C_R   0.602813 0.872055 0.424650 0.062098
C112  C     C_R   0.662516 0.183676 0.571621 0.074275
C113  C     C_R   0.337478 0.816323 0.428358 0.074201
C114  C     C_R   0.837402 0.683660 0.428216 0.074166
C115  C     C_R   0.162602 0.316338 0.571801 0.074171
C116  C     C_R   0.102877 0.627644 0.424778 0.062209
C117  C     C_R   0.897140 0.372370 0.575252 0.062205
C118  C     C_3   0.708091 0.277655 0.943436 -0.154268
C119  C     C_3   0.291594 0.723434 0.055632 -0.153594
C120  C     C_3   0.334148 0.221953 0.019249 -0.150232
H1    H     H_    0.716761 0.955135 0.882643 0.091556
H2    H     H_    0.217799 0.068758 0.562830 0.126754
H3    H     H_    0.082117 0.805068 0.213851 0.124290
H4    H     H_    0.917886 0.194939 0.786151 0.124286
H5    H     H_    0.418007 0.305686 0.786872 0.124258
H6    H     H_    0.581989 0.694317 0.213129 0.124259
H7    H     H_    0.717289 0.431139 0.562132 0.126743
H8    H     H_    0.282709 0.568868 0.437855 0.126739
H9    H     H_    0.321339 0.030850 0.468662 0.099733
H10   H     H_    0.678652 0.969154 0.531323 0.099736
H11   H     H_    0.726387 0.077051 0.658695 0.087206
H12   H     H_    0.283241 0.044850 0.117365 0.091568
H13   H     H_    0.273612 0.922951 0.341297 0.087190
H14   H     H_    0.773628 0.576809 0.341284 0.086873
H15   H     H_    0.226373 0.423191 0.658722 0.086864
H16   H     H_    0.178639 0.530645 0.531227 0.099889
H17   H     H_    0.821374 0.469363 0.468796 0.099899
H18   H     H_    0.434197 0.748075 0.516240 0.081822
H19   H     H_    0.565796 0.251922 0.483741 0.081842
H20   H     H_    0.520851 0.787942 0.366321 0.092739
H21   H     H_    0.479114 0.212087 0.633632 0.092697
H22   H     H_    0.979155 0.288291 0.633565 0.092430
H23   H     H_    0.260828 0.926599 0.143808 0.083617
H24   H     H_    0.020857 0.711718 0.366454 0.092416
H25   H     H_    0.065932 0.247998 0.483962 0.081937
H26   H     H_    0.934072 0.752000 0.516056 0.081930
H27   H     H_    0.581022 0.250470 0.686414 0.091774
H28   H     H_    0.418946 0.749512 0.313628 0.091915
H29   H     H_    0.446761 0.219265 0.290935 0.102616
H30   H     H_    0.553229 0.780740 0.709055 0.102613
H31   H     H_    0.052573 0.719447 0.708284 0.102537
H32   H     H_    0.947466 0.280578 0.291752 0.102458
H33   H     H_    0.919307 0.750405 0.314050 0.091956
H34   H     H_    0.739166 0.073421 0.856308 0.083796
H35   H     H_    0.080698 0.249591 0.685938 0.091981
H36   H     H_    0.243508 0.682558 0.163602 0.123921
H37   H     H_    0.758115 0.315900 0.837711 0.124135
H38   H     H_    0.710801 0.724512 0.871154 0.113130
H39   H     H_    0.289487 0.275752 0.129022 0.113109
H40   H     H_    0.783890 0.232321 0.125793 0.113561
H41   H     H_    0.214516 0.769235 0.873146 0.113474
H42   H     H_    0.250778 0.176492 0.832473 0.122976
H43   H     H_    0.748928 0.823237 0.167298 0.123028
H44   H     H_    0.654805 0.278483 0.909152 0.108113
H45   H     H_    0.239277 0.426634 0.855524 0.083346
H46   H     H_    0.344617 0.723510 0.089064 0.108350
H47   H     H_    0.386706 0.217712 0.051583 0.114862
H48   H     H_    0.613177 0.781916 0.948057 0.114849
H49   H     H_    0.110689 0.725550 0.942515 0.114487
H50   H     H_    0.889893 0.272428 0.059486 0.114345
H51   H     H_    0.843875 0.768616 0.085219 0.109014
H52   H     H_    0.156239 0.231743 0.915095 0.109048
H53   H     H_    0.725986 0.408158 0.927930 0.107008
H54   H     H_    0.275247 0.592332 0.071568 0.106785
H55   H     H_    0.323185 0.355312 0.035856 0.103891
H56   H     H_    0.760726 0.573361 0.144448 0.083390
H57   H     H_    0.677016 0.644578 0.963977 0.103919
H58   H     H_    0.180484 0.857192 0.961020 0.104031
H59   H     H_    0.818330 0.142330 0.039812 0.104091
H60   H     H_    0.780610 0.905342 0.070715 0.105893
H61   H     H_    0.219177 0.094762 0.929381 0.105885
H62   H     H_    0.690478 0.940936 0.425298 0.118982
H63   H     H_    0.309504 0.059079 0.574672 0.118983
H64   H     H_    0.193751 0.833437 0.279980 0.116629
H65   H     H_    0.806241 0.166563 0.719987 0.116724
H66   H     H_    0.306376 0.333764 0.720820 0.116207
H67   H     H_    0.784967 0.456044 0.117420 0.093205
H68   H     H_    0.693630 0.666231 0.279213 0.116225
H69   H     H_    0.809007 0.440943 0.574032 0.118972
H70   H     H_    0.191012 0.559077 0.426004 0.118969
H71   H     H_    0.531313 0.760557 0.260485 0.111770
H72   H     H_    0.468669 0.239458 0.739485 0.111778
H73   H     H_    0.359049 0.658598 0.461407 0.114203
H74   H     H_    0.640936 0.341402 0.538534 0.114215
H75   H     H_    0.141206 0.158508 0.538901 0.114119
H76   H     H_    0.858797 0.841488 0.461124 0.114128
H77   H     H_    0.968675 0.261278 0.739293 0.111725
H78   H     H_    0.215077 0.543961 0.882552 0.092969
H79   H     H_    0.031345 0.738737 0.260745 0.111721
H80   H     H_    0.782196 0.931244 0.437172 0.126759
N1    N     N_R   0.625380 0.928280 0.709340 -0.040563
N2    N     N_R   0.613900 0.929750 0.547530 -0.042451
N3    N     N_R   0.613900 0.070250 0.547530 -0.036817
N4    N     N_R   0.386100 0.929750 0.452470 -0.036809
N5    N     N_R   0.886100 0.570250 0.452470 -0.036414
N6    N     N_R   0.113900 0.429750 0.547530 -0.036413
N7    N     N_R   0.113900 0.570250 0.547530 -0.042716
N8    N     N_R   0.886100 0.429750 0.452470 -0.042725
N9    N     N_R   0.437800 0.869550 0.507970 -0.035784
N10   N     N_R   0.562200 0.130450 0.492030 -0.035800
N11   N     N_R   0.562200 0.869550 0.492030 -0.042934
N12   N     N_R   0.374620 0.071720 0.290660 -0.040570
N13   N     N_R   0.437800 0.130450 0.507970 -0.042938
N14   N     N_R   0.937800 0.369550 0.507970 -0.042969
N15   N     N_R   0.062200 0.630450 0.492030 -0.042962
N16   N     N_R   0.062200 0.369550 0.492030 -0.035557
N17   N     N_R   0.937800 0.630450 0.507970 -0.035559
N18   N     N_R   0.573690 0.128980 0.653840 -0.033313
N19   N     N_R   0.426310 0.871020 0.346160 -0.033317
N20   N     N_R   0.426310 0.128980 0.346160 -0.041422
N21   N     N_R   0.573690 0.871020 0.653840 -0.041427
N22   N     N_R   0.073690 0.628980 0.653840 -0.041780
N23   N     N_R   0.374620 0.928280 0.290660 -0.032394
N24   N     N_R   0.926310 0.371020 0.346160 -0.041818
N25   N     N_R   0.926310 0.628980 0.346160 -0.033238
N26   N     N_R   0.073690 0.371020 0.653840 -0.033243
N27   N     N_R   0.625380 0.071720 0.709340 -0.032358
N28   N     N_R   0.125380 0.428280 0.709340 -0.032290
N29   N     N_R   0.874620 0.571720 0.290660 -0.032262
N30   N     N_R   0.874620 0.428280 0.290660 -0.041178
N31   N     N_R   0.125380 0.571720 0.709340 -0.041169
N32   N     N_R   0.386100 0.070250 0.452470 -0.042449
Ni1   Ni    Ni4+2 0.616560 0.000000 0.627280 0.212497
Ni2   Ni    Ni4+2 0.383440 0.000000 0.372720 0.212490
Ni3   Ni    Ni4+2 0.116560 0.500000 0.627280 0.212349
Ni4   Ni    Ni4+2 0.883440 0.500000 0.372720 0.212317
Ni5   Ni    Ni4+2 0.497990 0.870580 0.500000 0.206993
Ni6   Ni    Ni4+2 0.502010 0.129420 0.500000 0.207008
Ni7   Ni    Ni4+2 0.997990 0.370580 0.500000 0.206826
Ni8   Ni    Ni4+2 0.002010 0.629420 0.500000 0.206835

loop_
_geom_bond_atom_site_label_1
_geom_bond_atom_site_label_2
_ccdc_geom_bond_type
C61   C70   A    
C60   H64   S    
C55   H34   S    
C80   N6    A    
C16   C28   S    
C39   H5    S    
C15   C29   S    
C35   C53   A    
C34   C112  S    
C83   C113  A    
C15   H42   S    
C88   N30   A    
C52   H76   S    
N1    N21   A    
N2    N11   A    
C4    C8    S    
C36   C114  S    
C93   C103  A    
C74   C109  A    
C82   N8    A    
C21   C110  S    
C76   N3    A    
N7    Ni3   S    
C22   C108  S    
C94   H29   S    
C7    C11   S    
C99   C108  A    
N5    N17   A    
C100  C105  A    
C95   N21   A    
C80   H15   S    
C29   H61   S    
C20   C29   S    
C7    C29   S    
C17   C26   S    
N10   Ni6   S    
C77   C106  A    
N9    Ni5   S    
C87   C117  A    
C90   H25   S    
C33   N12   A    
C84   N10   A    
C43   C52   A    
C6    C25   S    
C20   C102  S    
C40   C49   A    
C23   C105  S    
N17   Ni8   S    
C16   C25   S    
C4    C22   S    
C15   C120  S    
C13   C23   S    
C93   H28   S    
C55   N27   A    
C41   H7    S    
C46   C69   A    
N4    Ni2   S    
C5    C27   S    
C37   C56   A    
N1    Ni1   S    
C75   N2    A    
C88   H67   S    
C6    C28   S    
C84   H19   S    
N28   Ni3   S    
N4    N9    A    
C3    H48   S    
C64   C73   A    
N11   Ni5   S    
N3    N10   A    
C35   C115  S    
C43   H80   S    
C32   C113  S    
C10   H38   S    
C36   C52   A    
C75   H10   S    
C42   H8    S    
C42   C51   A    
C62   H66   S    
C98   N25   A    
C89   N15   A    
C15   C23   S    
C96   C108  A    
C89   C116  A    
C1    N1    A    
C7    H52   S    
C92   H27   S    
C76   C112  A    
C110  C118  S    
C3    C24   S    
C85   N11   A    
N7    N15   A    
N24   Ni7   S    
C44   C103  A    
C25   C106  S    
C64   H69   S    
C6    H51   S    
C26   H58   S    
C16   H43   S    
C4    C26   S    
N27   Ni1   S    
N15   Ni8   S    
C11   C20   S    
C34   C50   A    
N18   Ni6   S    
C4    H49   S    
C12   C27   S    
C11   H39   S    
C33   C102  A    
C86   C109  A    
C24   C25   S    
C74   N32   A    
N13   Ni6   S    
C51   H73   S    
C19   C101  S    
C57   C65   A    
C44   N23   A    
C88   C107  A    
C92   C104  A    
C18   C104  S    
N12   N20   A    
C10   C24   S    
C68   C73   A    
C65   C71   A    
C96   H31   S    
C41   C73   A    
C55   C104  A    
C45   C53   A    
C61   H68   S    
C12   H40   S    
C54   H79   S    
C50   H74   S    
N21   Ni5   S    
N6    Ni3   S    
C97   C107  A    
C41   C50   A    
C91   N17   A    
C69   C72   A    
C92   N18   A    
C77   N29   A    
C32   C51   A    
C5    C9    S    
N23   Ni2   S    
N24   N30   A    
C59   C68   A    
C38   C116  S    
C9    C18   S    
N12   Ni2   S    
C38   C54   A    
C80   C115  A    
C9    H37   S    
C10   C19   S    
C5    H50   S    
C40   H6    S    
C3    C19   S    
C46   C54   A    
N32   Ni2   S    
C31   C109  S    
C37   C117  S    
C95   H30   S    
C84   C112  A    
C90   N16   A    
C14   C26   S    
C100  N26   A    
C19   C28   S    
C28   H60   S    
C119  H46   S    
C83   N9    A    
N13   N32   A    
C40   C70   A    
C12   C118  S    
C100  H35   S    
C21   C107  S    
C30   C49   A    
N22   N31   A    
C14   C119  S    
C77   H56   S    
C96   N22   A    
C31   C48   A    
C45   C65   A    
C34   C59   A    
C53   H75   S    
C46   H3    S    
C74   H9    S    
C78   C113  A    
C94   N20   A    
C32   C60   A    
C66   C105  A    
C36   C61   A    
C63   H70   S    
C1    C101  A    
N18   N27   A    
C20   C120  S    
C37   C64   A    
C47   C68   A    
C33   H12   S    
C81   H16   S    
C56   H77   S    
C110  H53   S    
N6    N16   A    
C9    C110  S    
C13   H55   S    
C79   H14   S    
N8    Ni4   S    
N8    N14   A    
N26   Ni7   S    
C66   H45   S    
N16   Ni7   S    
C75   C111  A    
N5    Ni4   S    
C2    C8    S    
C18   C27   S    
C27   H59   S    
C85   C111  A    
C6    C10   S    
C99   N31   A    
C2    C119  S    
C97   N24   A    
N3    Ni1   S    
C18   C118  S    
C49   H71   S    
C45   H2    S    
N20   Ni6   S    
C89   H24   S    
C30   C111  S    
N26   N28   A    
C8    C17   S    
C98   C106  A    
C91   C114  A    
C81   N7    A    
C82   H17   S    
C58   H62   S    
C67   C70   A    
C93   N19   A    
N30   Ni4   S    
C14   C22   S    
C14   H41   S    
C90   C115  A    
N14   Ni7   S    
C17   C103  S    
C86   N13   A    
C81   C116  A    
C79   N5    A    
C2    C22   S    
C2    H54   S    
N2    Ni1   S    
C11   C13   S    
C57   H63   S    
C31   C57   A    
C47   H4    S    
C60   C69   A    
N29   Ni4   S    
C44   H23   S    
C7    C23   S    
N19   Ni5   S    
C30   C58   A    
C99   H78   S    
N22   Ni8   S    
C85   H20   S    
C76   H11   S    
C87   N14   A    
C62   C71   A    
C59   H65   S    
C35   C62   A    
C91   H26   S    
C87   H22   S    
C8    H36   S    
C78   H13   S    
C1    H1    S    
C48   H72   S    
C17   C119  S    
N19   N23   A    
C12   C21   S    
C58   C67   A    
C78   N4    A    
C5    C21   S    
C63   C72   A    
C94   C102  A    
C43   C67   A    
C118  H44   S    
C79   C114  A    
C66   N28   A    
C24   H57   S    
C38   C63   A    
N25   Ni8   S    
C39   C71   A    
C47   C56   A    
C97   H32   S    
N31   Ni3   S    
C13   C120  S    
C82   C117  A    
C120  H47   S    
C42   C72   A    
N25   N29   A    
C83   H18   S    
C3    C16   S    
C95   C101  A    
C86   H21   S    
C39   C48   A    
C98   H33   S    
