data_mof_unit_28051.cif
_audit_creation_date              2012-12-10T17:15:13-0500
_audit_creation_method            fapswitch 2.2
_symmetry_space_group_name_H-M    P1
_symmetry_Int_Tables_number       1
_space_group_crystal_system       triclinic
_cell_length_a                    15.843053
_cell_length_b                    13.006882
_cell_length_c                    11.67266
_cell_angle_alpha                 99.781393
_cell_angle_beta                  93.709528
_cell_angle_gamma                 90.386789
_cell_volume                      2365.05223645

loop_
_atom_site_label
_atom_site_type_symbol
_atom_type_description
_atom_site_fract_x
_atom_site_fract_y
_atom_site_fract_z
_atom_type_partial_charge
C1    C     C_R   0.508504 0.299612 0.478716 0.877984
C2    C     C_R   0.499107 0.701075 0.521686 0.956924
C3    C     C_R   0.530447 0.012919 0.348994 0.429650
C4    C     C_R   0.457160 0.986243 0.635196 0.431548
C5    C     C_R   0.533678 0.121863 0.357152 0.231751
C6    C     C_R   0.452998 0.876710 0.624053 0.289025
C7    C     C_R   0.517458 0.138246 0.567174 0.383891
C8    C     C_R   0.536643 0.863719 0.452421 0.360780
C9    C     C_R   0.498160 0.031756 0.551600 -0.251666
C10   C     C_R   0.521210 0.968826 0.449699 -0.222208
C11   C     C_R   0.398080 0.441439 0.029033 0.375725
C12   C     C_R   0.599321 0.566420 0.973089 0.352938
C13   C     C_R   0.412037 0.439921 0.149030 0.057527
C14   C     C_R   0.587151 0.562248 0.851179 0.004144
C15   C     C_R   0.547032 0.519453 0.152944 0.152380
C16   C     C_R   0.452816 0.480831 0.846961 0.132809
C17   C     C_R   0.536936 0.522298 0.031832 -0.095994
C18   C     C_R   0.461784 0.481518 0.968750 -0.115028
C19   C     C_R   0.339779 0.499075 0.500210 0.830723
C20   C     C_R   0.660212 0.499120 0.499566 0.887445
C21   C     C_3   0.973500 0.421704 0.550364 0.546951
C22   C     C_3   0.026350 0.572729 0.447026 0.538308
C23   C     C_3   0.024162 0.403840 0.440227 -0.320730
C24   C     C_3   0.975852 0.590536 0.557052 -0.289115
C25   C     C_1   0.250138 0.497579 0.500587 -0.141679
C26   C     C_1   0.749845 0.498989 0.498715 -0.091389
C27   C     C_3   0.033030 0.511685 0.610474 -0.274950
C28   C     C_3   0.966809 0.482535 0.386813 -0.296177
C29   C     C_3   0.082909 0.495540 0.499558 0.070267
C30   C     C_3   0.917011 0.498995 0.497932 0.060446
C31   C     C_1   0.174568 0.496338 0.500206 0.006817
C32   C     C_1   0.825380 0.499057 0.498208 0.025716
C33   C     C_R   0.497043 0.815225 0.534573 -0.398892
C34   C     C_R   0.522236 0.185970 0.467140 -0.358636
Cu1   Cu    Cu3+1 0.506200 0.507730 0.615930 1.037176
Cu2   Cu    Cu3+1 0.493800 0.492270 0.384070 1.043450
H1    H     H_    0.046013 0.328185 0.393578 0.151701
H2    H     H_    0.954840 0.666937 0.602989 0.157633
H3    H     H_    0.938300 0.471495 0.296070 0.162072
H4    H     H_    0.061310 0.521111 0.701277 0.153547
H5    H     H_    0.396713 0.446662 0.796810 0.157014
H6    H     H_    0.604614 0.549392 0.202242 0.215700
H7    H     H_    0.635974 0.592359 0.805015 0.135217
H8    H     H_    0.363649 0.407011 0.193803 0.143274
N1    N     N_R   0.515540 0.519350 0.790140 -0.193964
N2    N     N_R   0.484460 0.480650 0.209860 -0.221486
O1    O     O_R   0.504400 0.354460 0.582000 -0.535933
O2    O     O_R   0.495600 0.645540 0.418000 -0.549066
O3    O     O_R   0.493920 0.341410 0.386200 -0.526067
O4    O     O_R   0.506080 0.658590 0.613800 -0.521898
O5    O     O_R   0.384320 0.506520 0.597880 -0.570316
O6    O     O_R   0.615680 0.493480 0.402120 -0.543761
O7    O     O_R   0.373840 0.493460 0.402080 -0.618683
O8    O     O_R   0.626160 0.506540 0.597920 -0.605422
O9    O     O_3   0.938723 0.346110 0.608264 -0.596806
C35   C     C_3   0.996097 0.264638 0.617205 0.045361
H9    H     H_    0.996196 0.247565 0.707294 0.175388
H10   H     H_    0.062987 0.284500 0.603645 0.124934
C36   C     C_3   0.965540 0.166752 0.532013 -0.309530
H11   H     H_    0.901366 0.143937 0.553166 0.250895
H12   H     H_    0.961135 0.183555 0.441664 0.217918
C37   C     C_3   0.025000 0.075851 0.538142 -0.930195
H13   H     H_    0.088177 0.094477 0.510108 0.249694
H14   H     H_    0.998733 0.005385 0.479164 0.268022
H15   H     H_    0.031666 0.058565 0.628233 0.264884
O10   O     O_3   0.060870 0.651841 0.394116 -0.603550
C38   C     C_3   0.994839 0.705660 0.344475 0.057262
H16   H     H_    0.950533 0.738265 0.411223 0.155998
H17   H     H_    0.959362 0.652620 0.272176 0.146308
C39   C     C_3   0.032677 0.795791 0.294930 -0.333932
H18   H     H_    0.067913 0.849923 0.366196 0.227891
H19   H     H_    0.077905 0.764853 0.229143 0.227145
C40   C     C_3   0.964034 0.855660 0.237664 -0.900207
H20   H     H_    0.930192 0.803526 0.163467 0.263558
H21   H     H_    0.993333 0.921562 0.204346 0.257563
H22   H     H_    0.917899 0.887471 0.301713 0.273664
S1    S     S_3+6 0.621847 0.803480 0.375095 0.022864
O11   O     O_2   0.586939 0.741706 0.261637 -0.302319
O12   O     O_2   0.683419 0.884298 0.350677 -0.280079
O13   O     O_3   0.674107 0.723422 0.452575 -0.557114
H23   H     H_    0.693915 0.768457 0.526744 0.330610
S2    S     S_3+6 0.563493 0.198230 0.706530 0.074569
O14   O     O_2   0.497356 0.257234 0.775934 -0.291895
O15   O     O_2   0.599198 0.116514 0.771970 -0.216901
O16   O     O_3   0.642485 0.280570 0.690043 -0.515193
H24   H     H_    0.654421 0.323477 0.768128 0.372531
S3    S     S_3+6 0.394522 0.818459 0.722866 0.013885
O17   O     O_2   0.341486 0.729184 0.656138 -0.285173
O18   O     O_2   0.455826 0.777156 0.807009 -0.325082
O19   O     O_3   0.329287 0.901573 0.798635 -0.522844
H25   H     H_    0.362931 0.933205 0.870549 0.371768
S4    S     S_3+6 0.561462 0.172815 0.231520 0.070347
O20   O     O_2   0.482687 0.207814 0.171547 -0.256856
O21   O     O_2   0.621921 0.264089 0.266041 -0.280253
O22   O     O_3   0.607863 0.082607 0.136063 -0.435243
H26   H     H_    0.662582 0.068867 0.176264 0.362510
O23   O     O_3   0.529811 0.949542 0.240704 -0.517093
C41   C     C_3   0.445854 0.913931 0.206425 0.091973
H27   H     H_    0.403799 0.981166 0.198799 0.131375
H28   H     H_    0.420789 0.868783 0.270233 0.126403
C42   C     C_3   0.444045 0.842449 0.088040 -0.236981
H29   H     H_    0.461254 0.888902 0.021272 0.255792
H30   H     H_    0.491196 0.779972 0.090214 0.245677
C43   C     C_3   0.356678 0.791660 0.054684 -0.910271
H31   H     H_    0.339577 0.743460 0.120010 0.242088
H32   H     H_    0.356960 0.739970 0.968735 0.301672
H33   H     H_    0.308210 0.852249 0.049269 0.260786
O24   O     O_3   0.419987 0.048098 0.726347 -0.527125
C44   C     C_3   0.344836 0.091079 0.683412 0.095045
H34   H     H_    0.300302 0.028184 0.638170 0.150108
H35   H     H_    0.358773 0.144239 0.621533 0.113328
C45   C     C_3   0.301745 0.154186 0.785565 -0.207950
H36   H     H_    0.281760 0.101493 0.844737 0.226883
H37   H     H_    0.347155 0.212871 0.835943 0.286325
C46   C     C_3   0.224433 0.210368 0.743800 -0.966367
H38   H     H_    0.243199 0.266543 0.687766 0.251452
H39   H     H_    0.194069 0.253981 0.820037 0.273449
H40   H     H_    0.177794 0.153025 0.694003 0.255649
O25   O     O_3   0.323520 0.399251 0.971284 -0.626384
C47   C     C_3   0.264865 0.479608 0.961895 0.010363
H41   H     H_    0.225905 0.456503 0.878724 0.175621
H42   H     H_    0.295163 0.556346 0.956892 0.139908
C48   C     C_3   0.206368 0.491463 0.062709 -0.347220
H43   H     H_    0.176961 0.414473 0.066916 0.231116
H44   H     H_    0.243590 0.519143 0.146339 0.212295
C49   C     C_3   0.136712 0.569419 0.047491 -0.886321
H45   H     H_    0.164721 0.647741 0.046287 0.258722
H46   H     H_    0.095124 0.575318 0.121268 0.266228
H47   H     H_    0.097668 0.543318 0.964990 0.252266
O26   O     O_3   0.674469 0.604650 0.033715 -0.610515
C50   C     C_3   0.692142 0.708599 0.019489 0.103902
H48   H     H_    0.699344 0.757325 0.107498 0.238725
H49   H     H_    0.641081 0.744895 0.969989 0.138545
C51   C     C_3   0.775901 0.712956 0.962048 -0.389230
H50   H     H_    0.827086 0.682632 0.016221 0.233600
H51   H     H_    0.771441 0.662912 0.874686 0.219242
C52   C     C_3   0.798722 0.824322 0.948823 -0.863420
H52   H     H_    0.749527 0.855049 0.892011 0.276724
H53   H     H_    0.860255 0.825085 0.908493 0.254810
H54   H     H_    0.804400 0.875811 0.035352 0.268930

loop_
_geom_bond_atom_site_label_1
_geom_bond_atom_site_label_2
_ccdc_geom_bond_type
C25   C31   T    
S3    O17   D    
C11   C18   A    
C26   C32   T    
C49   H45   S    
C22   C29   S    
C27   C29   S    
C40   H20   S    
O22   H26   S    
C24   C27   S    
O9    C35   S    
C50   C51   S    
Cu1   O1    S    
C51   C52   S    
C43   H32   S    
O23   C41   S    
C48   H43   S    
O16   H24   S    
C35   H9    S    
C52   H53   S    
C42   H29   S    
C12   O26   S    
C23   C29   S    
C44   H35   S    
C13   N2    A    
C48   H44   S    
C46   H38   S    
O24   C44   S    
C15   C17   A    
C45   H36   S    
C37   H14   S    
Cu2   O7    S    
C2    O4    A    
C22   O10   S    
Cu1   Cu2   S    
C46   H39   S    
C12   C17   A    
C24   H2    S    
Cu2   N2    S    
C39   H18   S    
C9    C10   A    
Cu2   O6    S    
C47   C48   S    
S1    O11   D    
C19   O7    A    
O10   C38   S    
C21   C27   S    
C11   O25   S    
C36   H11   S    
C42   H30   S    
C22   C28   S    
Cu1   O8    S    
C40   H21   S    
C39   C40   S    
C45   H37   S    
C43   H31   S    
C47   H42   S    
C1    C34   S    
C14   N1    A    
S1    O12   D    
C52   H54   S    
C36   H12   S    
C38   H16   S    
C45   C46   S    
C20   O8    A    
C44   C45   S    
C21   O9    S    
C1    O1    A    
C48   C49   S    
C51   H51   S    
C28   H3    S    
C50   H49   S    
C23   H1    S    
S4    O22   S    
C6    S3    S    
C38   H17   S    
C37   H13   S    
C4    O24   S    
C3    O23   S    
C27   H4    S    
C29   C31   S    
C46   H40   S    
C5    C34   A    
Cu1   O4    S    
S4    O21   D    
C17   C18   A    
C16   C18   A    
C23   C28   S    
C2    C33   S    
C4    C6    A    
C12   C14   A    
S2    O14   D    
C42   C43   S    
C41   H28   S    
C21   C23   S    
Cu1   O5    S    
C8    S1    S    
C7    C34   A    
C22   C24   S    
C50   H48   S    
C41   C42   S    
C47   H41   S    
C21   C30   S    
S1    O13   S    
C7    C9    A    
C36   C37   S    
C49   H46   S    
C37   H15   S    
C15   H6    S    
O13   H23   S    
C3    C5    A    
C16   N1    A    
O25   C47   S    
C35   C36   S    
C51   H50   S    
S2    O16   S    
C52   H52   S    
S2    O15   D    
C49   H47   S    
C6    C33   A    
C38   C39   S    
C2    O2    A    
C28   C30   S    
O26   C50   S    
C20   O6    A    
C3    C10   A    
C44   H34   S    
C30   C32   S    
C11   C13   A    
O19   H25   S    
C20   C26   S    
S4    O20   D    
C40   H22   S    
C35   H10   S    
Cu2   O2    S    
C8    C33   A    
C13   H8    S    
C19   C25   S    
C24   C30   S    
C5    S4    S    
C19   O5    A    
C7    S2    S    
C8    C10   A    
C41   H27   S    
S3    O19   S    
S3    O18   D    
C39   H19   S    
C15   N2    A    
C4    C9    A    
C1    O3    A    
C16   H5    S    
C43   H33   S    
Cu2   O3    S    
C14   H7    S    
Cu1   N1    S    
