data_mof_unit_63846.cif
_audit_creation_date              2012-12-10T18:53:57-0500
_audit_creation_method            fapswitch 2.2
_symmetry_space_group_name_H-M    P1
_symmetry_Int_Tables_number       1
_space_group_crystal_system       triclinic
_cell_length_a                    19.444538
_cell_length_b                    19.465573
_cell_length_c                    19.467494
_cell_angle_alpha                 85.034846
_cell_angle_beta                  95.373548
_cell_angle_gamma                 90.22255
_cell_volume                      7308.45191213

loop_
_atom_site_label
_atom_site_type_symbol
_atom_type_description
_atom_site_fract_x
_atom_site_fract_y
_atom_site_fract_z
_atom_type_partial_charge
C1    C     C_R   0.312052 0.493102 0.492799 0.892057
C2    C     C_2   0.499087 0.983149 0.466599 -0.232789
C3    C     C_2   0.510284 0.017724 0.523104 -0.231741
C4    C     C_R   0.688092 0.507307 0.508125 0.785074
C5    C     C_R   0.511143 0.236798 0.512792 0.004021
C6    C     C_R   0.763461 0.507312 0.513858 0.002896
C7    C     C_R   0.798605 0.451053 0.493173 -0.200842
C8    C     C_R   0.870161 0.450390 0.497514 -0.144154
C9    C     C_R   0.907717 0.506918 0.521110 0.190928
C10   C     C_R   0.872699 0.562162 0.543988 -0.168046
C11   C     C_R   0.800822 0.562386 0.540503 -0.194439
C12   C     C_R   0.497880 0.907658 0.472394 0.199270
C13   C     C_R   0.124920 0.544899 0.483024 -0.258492
C14   C     C_R   0.196578 0.550962 0.487306 0.449923
C15   C     C_R   0.205403 0.425880 0.488120 -0.285572
C16   C     C_R   0.508566 0.492357 0.688806 0.801429
C17   C     C_R   0.133874 0.420271 0.483774 0.207418
C18   C     C_R   0.093440 0.480016 0.482099 0.050185
C19   C     C_2   0.983260 0.509919 0.522141 -0.223667
C20   C     C_2   0.018274 0.475072 0.480131 -0.156353
C21   C     C_R   0.237062 0.490565 0.489572 -0.182865
C22   C     C_R   0.484565 0.506259 0.235750 -0.000293
C23   C     C_R   0.452348 0.873300 0.427138 -0.172479
C24   C     C_R   0.529019 0.464184 0.204898 -0.202845
C25   C     C_R   0.522085 0.460570 0.133854 -0.161235
C26   C     C_R   0.471049 0.499616 0.092250 0.201177
C27   C     C_R   0.425555 0.540591 0.122819 -0.171654
C28   C     C_R   0.491124 0.507266 0.311147 0.781047
C29   C     C_R   0.432505 0.544304 0.194330 -0.191485
C30   C     C_R   0.462512 0.458543 0.871667 -0.153538
C31   C     C_R   0.460033 0.458000 0.800112 -0.196863
C32   C     C_R   0.567968 0.521181 0.800802 -0.191606
C33   C     C_R   0.570863 0.520910 0.872379 -0.174408
C34   C     C_R   0.449263 0.801516 0.433792 -0.167016
C35   C     C_R   0.517577 0.490884 0.907925 0.200617
C36   C     C_2   0.465147 0.498029 0.016836 -0.234993
C37   C     C_2   0.521565 0.492705 0.983099 -0.236843
C38   C     C_R   0.512311 0.490106 0.764215 -0.001431
C39   C     C_R   0.508336 0.311983 0.508653 0.783693
C40   C     C_R   0.492040 0.688278 0.491355 0.821300
C41   C     C_R   0.492492 0.763682 0.485274 -0.007673
C42   C     C_R   0.538931 0.798397 0.529571 -0.202348
C43   C     C_R   0.541885 0.869739 0.522961 -0.157492
C44   C     C_R   0.538607 0.131672 0.463429 -0.155107
C45   C     C_R   0.538529 0.203269 0.460510 -0.205032
C46   C     C_R   0.485528 0.197949 0.568921 -0.188090
C47   C     C_R   0.486460 0.126393 0.572253 -0.171427
C48   C     C_R   0.511632 0.093029 0.518930 0.199790
H1    H     H_    0.573544 0.770511 0.569093 0.167347
H2    H     H_    0.895463 0.405276 0.482790 0.146810
H3    H     H_    0.558928 0.232303 0.416978 0.162416
H4    H     H_    0.568976 0.433486 0.235621 0.167648
H5    H     H_    0.416847 0.433399 0.772865 0.167363
H6    H     H_    0.609285 0.545619 0.774150 0.162486
H7    H     H_    0.572647 0.493775 0.010929 0.153688
H8    H     H_    0.385516 0.570466 0.091266 0.138379
H9    H     H_    0.421844 0.433197 0.898538 0.137782
H10   H     H_    0.397077 0.576503 0.217111 0.170380
H11   H     H_    0.414470 0.505079 0.988474 0.156402
H12   H     H_    0.466287 0.097050 0.615762 0.137425
H13   H     H_    0.556341 0.426684 0.111641 0.136632
H14   H     H_    0.464866 0.222818 0.610271 0.164809
H15   H     H_    0.614055 0.545268 0.899926 0.134775
H16   H     H_    0.514421 0.990183 0.574340 0.154909
H17   H     H_    0.418545 0.902041 0.387494 0.140226
H18   H     H_    0.560211 0.106667 0.422716 0.136247
H19   H     H_    0.413490 0.775752 0.398573 0.180424
H20   H     H_    0.486894 0.010581 0.415915 0.154185
H21   H     H_    0.579146 0.895105 0.557028 0.136791
H22   H     H_    0.197874 0.734801 0.513530 0.388003
H23   H     H_    0.770796 0.407115 0.474216 0.164804
H24   H     H_    0.236477 0.379563 0.489762 0.189777
H25   H     H_    0.992279 0.441782 0.444213 0.171893
H26   H     H_    0.900928 0.605737 0.563230 0.139220
H27   H     H_    0.093263 0.590866 0.480424 0.205258
H28   H     H_    0.774524 0.606030 0.557316 0.159563
H29   H     H_    0.010874 0.543576 0.556951 0.167457
I1    I     I_    0.090518 0.320017 0.483363 -0.382797
O1    O     O_3   0.500000 0.500000 0.500000 -0.496719
O2    O     O_R   0.467830 0.341070 0.546160 -0.649337
O3    O     O_R   0.450560 0.655630 0.450550 -0.614705
O4    O     O_R   0.545840 0.347670 0.467560 -0.648114
O5    O     O_R   0.535760 0.655640 0.535740 -0.653711
O6    O     O_2   0.293247 0.631182 0.547452 -0.322364
O7    O     O_2   0.257632 0.658824 0.423961 -0.282935
O8    O     O_3   0.173805 0.689882 0.512945 -0.568158
O9    O     O_R   0.545870 0.536170 0.656040 -0.645552
O10   O     O_R   0.450550 0.545430 0.340370 -0.649723
O11   O     O_R   0.347960 0.451240 0.536460 -0.645492
O12   O     O_R   0.655630 0.467150 0.467130 -0.645644
O13   O     O_R   0.340780 0.536140 0.450970 -0.582744
O14   O     O_R   0.655640 0.545460 0.545430 -0.650857
O15   O     O_R   0.467850 0.451260 0.656340 -0.643011
O16   O     O_R   0.535740 0.467130 0.347260 -0.649356
S1    S     S_3+6 0.233111 0.634138 0.492772 0.023177
Zn1   Zn    Zn3+2 0.558310 0.558310 0.558290 0.977272
Zn2   Zn    Zn3+2 0.446830 0.436990 0.558720 0.988791
Zn3   Zn    Zn3+2 0.558290 0.446420 0.446420 0.959380
Zn4   Zn    Zn3+2 0.436570 0.558290 0.436570 1.041498

loop_
_geom_bond_atom_site_label_1
_geom_bond_atom_site_label_2
_ccdc_geom_bond_type
C24   H4    S    
C1    C21   S    
C22   C29   A    
O15   Zn2   S    
O2    Zn2   S    
C27   C29   A    
C10   H26   S    
C41   C42   A    
O1    Zn3   S    
C44   H18   S    
C19   C20   D    
C36   H11   S    
C2    C12   S    
C7    C8    A    
C3    H16   S    
C15   H24   S    
C12   C23   A    
C16   O15   A    
C30   C35   A    
C46   H14   S    
C14   C21   A    
O1    Zn4   S    
C36   C37   D    
C35   C37   S    
C12   C43   A    
C2    H20   S    
C11   H28   S    
C7    H23   S    
C30   C31   A    
O16   Zn3   S    
C30   H9    S    
C3    C48   S    
O14   Zn1   S    
C28   O16   A    
C19   H29   S    
C47   H12   S    
C9    C19   S    
C13   H27   S    
C8    C9    A    
C28   O10   A    
C16   O9    A    
C32   C38   A    
C9    C10   A    
C43   H21   S    
C22   C28   S    
C13   C14   A    
O4    Zn3   S    
C40   O5    A    
C34   C41   A    
C32   H6    S    
C4    O12   A    
C24   C25   A    
C4    C6    S    
C10   C11   A    
C6    C11   A    
C27   H8    S    
O3    Zn4   S    
C25   C26   A    
C5    C45   A    
O11   Zn2   S    
O6    S1    D    
C47   C48   A    
C33   H15   S    
C23   C34   A    
O9    Zn1   S    
C17   C18   A    
C26   C27   A    
C25   H13   S    
C31   H5    S    
C13   C18   A    
C26   C36   S    
C40   C41   S    
C5    C39   S    
C22   C24   A    
C42   C43   A    
H22   O8    S    
C8    H2    S    
C14   S1    S    
C44   C45   A    
C15   C17   A    
C46   C47   A    
C1    O11   A    
C40   O3    A    
O1    Zn2   S    
C39   O4    A    
C34   H19   S    
C6    C7    A    
C5    C46   A    
C31   C38   A    
C39   O2    A    
C23   H17   S    
C2    C3    D    
O1    Zn1   S    
C32   C33   A    
O7    S1    D    
O5    Zn1   S    
C17   I1    S    
C33   C35   A    
C20   H25   S    
C18   C20   S    
O10   Zn4   S    
O8    S1    S    
C42   H1    S    
C37   H7    S    
C15   C21   A    
C29   H10   S    
C1    O13   A    
C45   H3    S    
O13   Zn4   S    
O12   Zn3   S    
C44   C48   A    
C16   C38   S    
C4    O14   A    
