data_mof_unit_46234.cif
_audit_creation_date              2012-12-11T16:28:25-0500
_audit_creation_method            fapswitch 2.2
_symmetry_space_group_name_H-M    P1
_symmetry_Int_Tables_number       1
_space_group_crystal_system       monoclinic
_cell_length_a                    17.036595
_cell_length_b                    7.307124
_cell_length_c                    14.590086
_cell_angle_alpha                 90.0
_cell_angle_beta                  94.807015
_cell_angle_gamma                 90.0
_cell_volume                      1809.90946428

loop_
_atom_site_label
_atom_site_type_symbol
_atom_type_description
_atom_site_fract_x
_atom_site_fract_y
_atom_site_fract_z
_atom_type_partial_charge
O1    O     O_R   0.663460 0.361760 0.165970 -0.529968
O2    O     O_R   0.336540 0.638240 0.834030 -0.530851
O3    O     O_R   0.836540 0.861760 0.334030 -0.529968
O4    O     O_R   0.163460 0.138240 0.665970 -0.530851
O5    O     O_R   0.827100 0.689870 0.163730 -0.536625
O6    O     O_R   0.172900 0.310130 0.836270 -0.534234
O7    O     O_R   0.672900 0.189870 0.336270 -0.536625
O8    O     O_R   0.327100 0.810130 0.663730 -0.534234
H1    H     H_    0.203838 0.964697 0.476802 0.113215
H2    H     H_    0.796005 0.037844 0.523492 0.113491
H3    H     H_    0.296162 0.464697 0.023198 0.113215
H4    H     H_    0.703995 0.537842 0.976508 0.113491
C1    C     C_R   0.853020 0.523226 0.143491 0.716507
C2    C     C_R   0.146981 0.476769 0.856512 0.716128
C3    C     C_R   0.646980 0.023226 0.356509 0.716508
C4    C     C_R   0.353019 0.976769 0.643488 0.716128
O9    O     O_R   0.663490 0.691370 0.155500 -0.533749
O10   O     O_R   0.336510 0.308630 0.844500 -0.532405
O11   O     O_R   0.836510 0.191370 0.344500 -0.533749
O12   O     O_R   0.163490 0.808630 0.655500 -0.532406
O13   O     O_R   0.671770 0.863320 0.325740 -0.529103
O14   O     O_R   0.328230 0.136680 0.674260 -0.531250
O15   O     O_R   0.828230 0.363320 0.174260 -0.529103
O16   O     O_R   0.171770 0.636680 0.825740 -0.531250
C5    C     C_R   0.638667 0.522720 0.130678 0.679137
C6    C     C_R   0.361482 0.477251 0.869141 0.679091
C7    C     C_R   0.861333 0.022720 0.369322 0.679137
C8    C     C_R   0.138518 0.977251 0.630859 0.679092
H5    H     H_    0.091478 0.953791 0.202136 0.127508
H6    H     H_    0.907362 0.004647 0.798397 0.126878
H7    H     H_    0.408522 0.453791 0.297864 0.127508
H8    H     H_    0.592638 0.504651 0.701603 0.126879
O17   O     O_3   0.752910 0.528800 0.305860 -0.376039
O18   O     O_3   0.247090 0.471200 0.694140 -0.376218
O19   O     O_3   0.747090 0.028800 0.194140 -0.376039
O20   O     O_3   0.252910 0.971200 0.805860 -0.376218
V1    V     V_3+5 0.749460 0.803010 0.239640 1.400445
V2    V     V_3+5 0.250540 0.196990 0.760360 1.400349
V3    V     V_3+5 0.750540 0.303010 0.260360 1.400445
V4    V     V_3+5 0.249460 0.696990 0.739640 1.400348
C9    C     C_1   0.468751 0.994389 0.530021 0.004879
C10   C     C_1   0.531245 0.005569 0.469970 0.004127
C11   C     C_1   0.031249 0.494389 0.969979 0.004879
C12   C     C_1   0.968755 0.505569 0.030030 0.004127
C13   C     C_R   0.015656 0.983247 0.308998 -0.193015
C14   C     C_R   0.983599 0.000991 0.691346 -0.191034
C15   C     C_R   0.484344 0.483246 0.191002 -0.193015
C16   C     C_R   0.516401 0.500994 0.808654 -0.191033
C17   C     C_R   0.089165 0.966219 0.275651 -0.237759
C18   C     C_R   0.909912 0.012156 0.724803 -0.238482
C19   C     C_R   0.410835 0.466219 0.224349 -0.237759
C20   C     C_R   0.590087 0.512158 0.775197 -0.238483
C21   C     C_R   0.157930 0.966384 0.335969 0.432777
C22   C     C_R   0.841525 0.029051 0.664420 0.432579
C23   C     C_R   0.342070 0.466384 0.164031 0.432777
C24   C     C_R   0.658475 0.529051 0.835580 0.432578
C25   C     C_R   0.150400 0.970596 0.431158 -0.213000
C26   C     C_R   0.849333 0.029401 0.569209 -0.211512
C27   C     C_R   0.349600 0.470596 0.068842 -0.213000
C28   C     C_R   0.650667 0.529401 0.930791 -0.211511
C29   C     C_R   0.075741 0.983507 0.466945 -0.001535
C30   C     C_R   0.924001 0.016279 0.533388 -0.003558
C31   C     C_R   0.424259 0.483507 0.033055 -0.001535
C32   C     C_R   0.575998 0.516279 0.966612 -0.003559
C33   C     C_R   0.007220 0.993686 0.404317 0.077793
C34   C     C_R   0.992401 0.002252 0.596003 0.077786
C35   C     C_R   0.492780 0.493686 0.095683 0.077793
C36   C     C_R   0.507599 0.502252 0.903997 0.077786
C37   C     C_R   0.068176 0.986889 0.563232 -0.134779
C38   C     C_R   0.931589 0.012814 0.437055 -0.134936
C39   C     C_R   0.431824 0.486890 0.936768 -0.134779
C40   C     C_R   0.568411 0.512814 0.062945 -0.134936
C41   C     C_1   0.415809 0.985461 0.581304 -0.187010
C42   C     C_1   0.584187 0.014515 0.418689 -0.187403
C43   C     C_1   0.084191 0.485461 0.918696 -0.187011
C44   C     C_1   0.915813 0.514515 0.081311 -0.187403
H9    H     H_    0.965398 0.986976 0.258517 0.134174
H10   H     H_    0.033625 0.988035 0.741749 0.132278
H11   H     H_    0.534602 0.486975 0.241483 0.134173
H12   H     H_    0.466375 0.488038 0.758251 0.132278
O21   O     O_3   0.765555 0.027469 0.693708 -0.596313
C45   C     C_3   0.759245 0.113628 0.780049 0.042003
H13   H     H_    0.703130 0.190770 0.774227 0.181569
H14   H     H_    0.806755 0.215147 0.798381 0.159629
C46   C     C_3   0.752655 0.973957 0.857394 -0.360212
H15   H     H_    0.697045 0.896111 0.843675 0.209037
H16   H     H_    0.802717 0.876622 0.860797 0.207081
C47   C     C_3   0.751033 0.067325 0.950742 -0.745467
H17   H     H_    0.805236 0.149918 0.966527 0.224509
H18   H     H_    0.747751 0.961649 0.004973 0.236576
H19   H     H_    0.698549 0.157128 0.951360 0.228822
O22   O     O_3   0.233313 0.949527 0.306201 -0.597177
C48   C     C_3   0.242999 0.041630 0.222125 0.042885
H20   H     H_    0.300641 0.112780 0.230517 0.178262
H21   H     H_    0.197762 0.148753 0.204673 0.166564
C49   C     C_3   0.247065 0.907019 0.142204 -0.364652
H22   H     H_    0.301485 0.824421 0.154073 0.207446
H23   H     H_    0.195455 0.813923 0.137659 0.204649
C50   C     C_3   0.249797 0.006327 0.050551 -0.737183
H24   H     H_    0.196644 0.093177 0.036329 0.224735
H25   H     H_    0.251723 0.904102 0.994479 0.233551
H26   H     H_    0.303390 0.092901 0.051460 0.229009
O23   O     O_3   0.734445 0.527468 0.806292 -0.596313
C51   C     C_3   0.740755 0.613629 0.719952 0.042004
H27   H     H_    0.796871 0.690769 0.725773 0.181567
H28   H     H_    0.693246 0.715148 0.701619 0.159630
C52   C     C_3   0.747344 0.473957 0.642606 -0.360211
H29   H     H_    0.802955 0.396115 0.656322 0.209036
H30   H     H_    0.697283 0.376619 0.639205 0.207082
C53   C     C_3   0.748961 0.567326 0.549258 -0.745469
H31   H     H_    0.694756 0.649914 0.533475 0.224508
H32   H     H_    0.752243 0.461650 0.495026 0.236576
H33   H     H_    0.801444 0.657134 0.548637 0.228822
O24   O     O_3   0.266687 0.449527 0.193799 -0.597177
C54   C     C_3   0.257001 0.541630 0.277875 0.042885
H34   H     H_    0.199359 0.612780 0.269483 0.178262
H35   H     H_    0.302239 0.648753 0.295328 0.166564
C55   C     C_3   0.252934 0.407019 0.357796 -0.364652
H36   H     H_    0.198515 0.324421 0.345927 0.207446
H37   H     H_    0.304544 0.313922 0.362341 0.204649
C56   C     C_3   0.250203 0.506327 0.449449 -0.737183
H38   H     H_    0.303355 0.593176 0.463672 0.224734
H39   H     H_    0.248275 0.404102 0.505521 0.233551
H40   H     H_    0.196609 0.592900 0.448539 0.229009

loop_
_geom_bond_atom_site_label_1
_geom_bond_atom_site_label_2
_ccdc_geom_bond_type
C26   C30   A    
C48   H20   S    
C23   C27   A    
C9    C10   S    
C47   H18   S    
C8    C37   S    
O10   C6    A    
C15   H11   S    
C51   H28   S    
O24   C54   S    
H5    C17   S    
C46   H15   S    
C30   C38   A    
C18   C22   A    
O18   V4    S    
C32   C36   A    
H2    C26   S    
C14   C34   A    
C16   C20   A    
O5    V1    S    
O12   V4    S    
C17   C21   A    
C34   C37   A    
C54   H34   S    
O14   V2    S    
C49   C50   S    
C1    O15   A    
C35   C40   A    
C2    O16   A    
C12   C44   T    
C53   H31   S    
H8    C20   S    
C56   H40   S    
C55   H36   S    
C54   H35   S    
C49   H23   S    
C52   H29   S    
O6    V2    S    
O11   C7    A    
O5    C1    A    
O7    C3    A    
H6    C18   S    
C48   H21   S    
O1    C5    A    
C6    C39   S    
C52   H30   S    
C51   C52   S    
H3    C27   S    
C15   C35   A    
C51   H27   S    
O4    C8    A    
O21   C45   S    
C53   H32   S    
C46   H16   S    
C11   C43   T    
C31   C35   A    
C10   C42   T    
C30   C34   A    
C4    C41   S    
C14   H10   S    
C21   C25   A    
C15   C19   A    
O12   C8    A    
C19   C23   A    
C24   C28   A    
C55   C56   S    
C11   C12   S    
O2    V4    S    
O6    C2    A    
C50   H24   S    
C1    C44   S    
C13   C17   A    
C54   C55   S    
C49   H22   S    
C50   H26   S    
C21   O22   S    
O2    C6    A    
C5    C40   S    
O17   V3    S    
C16   C36   A    
C53   H33   S    
C56   H38   S    
C7    C38   S    
O11   V3    S    
C50   H25   S    
C31   C39   A    
C48   C49   S    
C45   H14   S    
C13   C33   A    
C52   C53   S    
O9    V1    S    
C22   C26   A    
C46   C47   S    
C29   C37   A    
C4    O14   A    
O19   V1    S    
C24   O23   S    
H7    C19   S    
C25   C29   A    
C23   O24   S    
C45   C46   S    
C14   C18   A    
C27   C31   A    
C28   C32   A    
O9    C5    A    
C2    C43   S    
C16   H12   S    
O20   V2    S    
O10   V2    S    
C47   H19   S    
C36   C39   A    
O15   V3    S    
O3    C7    A    
O22   C48   S    
O16   V4    S    
H1    C25   S    
C32   C40   A    
C55   H37   S    
C56   H39   S    
O1    V3    S    
C9    C41   T    
H4    C28   S    
C29   C33   A    
C3    O13   A    
C3    C42   S    
O13   V1    S    
C47   H17   S    
O3    V1    S    
O8    C4    A    
C45   H13   S    
O23   C51   S    
O7    V3    S    
C13   H9    S    
O8    V4    S    
C33   C38   A    
O4    V2    S    
C22   O21   S    
C20   C24   A    
