data_mof_unit_45813.cif
_audit_creation_date              2012-12-10T17:48:20-0500
_audit_creation_method            fapswitch 2.2
_symmetry_space_group_name_H-M    P1
_symmetry_Int_Tables_number       1
_space_group_crystal_system       triclinic
_cell_length_a                    13.830363
_cell_length_b                    14.791542
_cell_length_c                    14.674178
_cell_angle_alpha                 114.997258
_cell_angle_beta                  107.237014
_cell_angle_gamma                 71.600703
_cell_volume                      2534.88717609

loop_
_atom_site_label
_atom_site_type_symbol
_atom_type_description
_atom_site_fract_x
_atom_site_fract_y
_atom_site_fract_z
_atom_type_partial_charge
C1    C     C_R   0.514885 0.118661 0.688690 0.851278
C2    C     C_R   0.489888 0.881345 0.312001 0.851516
C3    C     C_R   0.537206 0.357344 0.924725 -0.094004
C4    C     C_R   0.519858 0.637976 0.080044 -0.074720
C5    C     C_R   0.579306 0.315290 0.002508 -0.058652
C6    C     C_R   0.475444 0.677095 0.999913 -0.079796
C7    C     C_R   0.527248 0.463849 0.950587 0.104864
C8    C     C_R   0.541710 0.529816 0.055269 0.114940
C9    C     C_R   0.571226 0.485458 0.130688 -0.212034
C10   C     C_R   0.504603 0.506092 0.874719 -0.219524
C11   C     C_R   0.595400 0.380419 0.104767 -0.192495
C12   C     C_R   0.473472 0.610559 0.898330 -0.171182
C13   C     C_R   0.314860 0.306295 0.337631 0.285831
C14   C     C_R   0.657356 0.707350 0.683944 0.289449
C15   C     C_R   0.343233 0.222939 0.369769 0.549406
C16   C     C_R   0.635968 0.789468 0.651278 0.528205
C17   C     C_R   0.494891 0.278935 0.479756 -0.032032
C18   C     C_R   0.519416 0.710248 0.503033 -0.010021
C19   C     C_R   0.468140 0.368560 0.454755 -0.058279
C20   C     C_R   0.539476 0.624020 0.531650 -0.058273
C21   C     C_R   0.373874 0.382296 0.385483 -0.091386
C22   C     C_R   0.618292 0.620207 0.617133 -0.069350
C23   C     C_R   0.687356 0.986050 0.503862 0.769288
C24   C     C_R   0.312609 0.013901 0.495948 0.789508
C25   C     C_R   0.525588 0.448704 0.502029 -0.022966
C26   C     C_R   0.483921 0.542611 0.480872 -0.030053
C27   C     C_R   0.384708 0.555670 0.416883 0.438159
C28   C     C_R   0.621052 0.440740 0.572891 0.426536
C29   C     C_R   0.332301 0.475925 0.372020 -0.250132
C30   C     C_R   0.660622 0.528266 0.633185 -0.240558
C31   C     C_1   0.206427 0.023368 0.494153 -0.151964
C32   C     C_1   0.793603 0.977409 0.506664 -0.196592
C33   C     C_2   0.011691 0.036582 0.492174 -0.173778
C34   C     C_2   0.988453 0.965818 0.510651 -0.165368
C35   C     C_1   0.882776 0.971226 0.508803 -0.001389
C36   C     C_1   0.117297 0.030440 0.493034 0.001131
C37   C     C_R   0.528038 0.185636 0.798275 -0.327539
C38   C     C_R   0.492957 0.813644 0.203907 -0.330718
C39   C     C_R   0.597490 0.209223 0.977838 0.317391
C40   C     C_R   0.438520 0.782877 0.022160 0.352283
C41   C     C_R   0.568203 0.145201 0.876628 0.293410
C42   C     C_R   0.452709 0.851138 0.123592 0.257209
C43   C     C_R   0.500080 0.292347 0.824845 0.325301
C44   C     C_R   0.540483 0.709066 0.181101 0.337313
Cu1   Cu    Cu3+1 0.526370 0.916390 0.524860 0.965413
Cu2   Cu    Cu3+1 0.473630 0.083610 0.475140 0.974355
H1    H     H_    0.048462 0.903405 0.526747 0.161607
H2    H     H_    0.951704 0.098920 0.475910 0.162608
H3    H     H_    0.621033 0.350726 0.166074 0.187948
H4    H     H_    0.449770 0.639206 0.836379 0.198072
H5    H     H_    0.573449 0.529225 0.210916 0.202102
H6    H     H_    0.509914 0.459483 0.795850 0.193731
H7    H     H_    0.253793 0.489528 0.331152 0.192263
H8    H     H_    0.732147 0.520853 0.686545 0.157735
H9    H     H_    0.469866 0.713421 0.432306 0.208097
H10   H     H_    0.558999 0.265219 0.537484 0.208003
N1    N     N_R   0.433980 0.209250 0.437830 -0.258581
N2    N     N_R   0.566020 0.790750 0.562170 -0.265916
O1    O     O_R   0.534760 0.019630 0.662610 -0.510576
O2    O     O_R   0.465240 0.980370 0.337390 -0.555013
O3    O     O_R   0.490220 0.160840 0.620610 -0.546281
O4    O     O_R   0.509780 0.839160 0.379390 -0.556622
O5    O     O_R   0.663260 0.919400 0.523940 -0.606641
O6    O     O_R   0.336740 0.080600 0.476060 -0.530004
O7    O     O_R   0.618720 0.060610 0.481950 -0.574301
O8    O     O_R   0.381280 0.939390 0.518050 -0.575576
O9    O     O_3   0.219927 0.321384 0.272994 -0.565407
C45   C     C_3   0.235231 0.308496 0.176373 0.030156
H11   H     H_    0.247665 0.226515 0.126639 0.143634
H12   H     H_    0.302579 0.337384 0.181130 0.140010
C46   C     C_3   0.138331 0.365201 0.123917 -0.798728
H13   H     H_    0.124073 0.448313 0.170307 0.236704
H14   H     H_    0.148602 0.353810 0.047246 0.197534
H15   H     H_    0.069977 0.335729 0.114402 0.252246
O10   O     O_3   0.679809 0.727622 0.788714 -0.556762
C47   C     C_3   0.785059 0.689620 0.824843 0.098317
H16   H     H_    0.822098 0.755325 0.872211 0.178390
H17   H     H_    0.830374 0.637113 0.763455 0.100491
C48   C     C_3   0.791675 0.636755 0.896819 -0.829497
H18   H     H_    0.747744 0.575195 0.858550 0.245282
H19   H     H_    0.874041 0.603142 0.922487 0.204104
H20   H     H_    0.758545 0.693139 0.965137 0.249341
O11   O     O_3   0.332374 0.652735 0.415300 -0.628150
C49   C     C_3   0.275106 0.654132 0.317588 0.033722
H21   H     H_    0.245031 0.735856 0.326212 0.177637
H22   H     H_    0.204705 0.622971 0.294226 0.137674
C50   C     C_3   0.340981 0.603452 0.233304 -0.393051
H23   H     H_    0.407184 0.640688 0.257113 0.229253
H24   H     H_    0.371993 0.520842 0.220149 0.214092
C51   C     C_3   0.276779 0.613601 0.132356 -0.915973
H25   H     H_    0.209050 0.577938 0.107178 0.253384
H26   H     H_    0.325074 0.574147 0.072285 0.260027
H27   H     H_    0.249123 0.695470 0.141157 0.246756
O12   O     O_3   0.683565 0.345829 0.571519 -0.627998
C52   C     C_3   0.720535 0.340622 0.670974 0.025416
H28   H     H_    0.697445 0.275031 0.670674 0.160494
H29   H     H_    0.686827 0.408939 0.733073 0.124750
C53   C     C_3   0.839284 0.319930 0.695758 -0.317962
H30   H     H_    0.871008 0.246350 0.637926 0.228862
H31   H     H_    0.866199 0.381382 0.692217 0.212460
C54   C     C_3   0.881769 0.313890 0.802095 -0.933351
H32   H     H_    0.852894 0.387493 0.861490 0.257174
H33   H     H_    0.967863 0.298055 0.817426 0.259219
H34   H     H_    0.857692 0.251378 0.806907 0.254092
O13   O     O_3   0.613925 0.678652 0.256403 -0.617440
C55   C     C_3   0.709187 0.703196 0.268234 0.097218
H35   H     H_    0.752139 0.710871 0.347294 0.167669
H36   H     H_    0.698979 0.778126 0.261383 0.105390
C56   C     C_3   0.775116 0.617683 0.192359 -0.361825
H37   H     H_    0.784972 0.543706 0.200410 0.233608
H38   H     H_    0.735448 0.611187 0.112742 0.218257
C57   C     C_3   0.881803 0.638796 0.211012 -0.930368
H39   H     H_    0.873700 0.711803 0.201840 0.254499
H40   H     H_    0.927251 0.575926 0.154627 0.258036
H41   H     H_    0.924726 0.643296 0.289347 0.260572
O14   O     O_3   0.427694 0.332081 0.755106 -0.597482
C58   C     C_3   0.327635 0.362748 0.779693 0.072869
H42   H     H_    0.286536 0.432835 0.761932 0.162987
H43   H     H_    0.328632 0.383737 0.862542 0.124751
C59   C     C_3   0.266084 0.279359 0.713842 -0.320388
H44   H     H_    0.262745 0.261584 0.631572 0.253935
H45   H     H_    0.305448 0.208747 0.731020 0.185508
C60   C     C_3   0.155706 0.312956 0.734032 -0.942816
H46   H     H_    0.157146 0.329422 0.815580 0.249617
H47   H     H_    0.113388 0.250886 0.685192 0.266552
H48   H     H_    0.113533 0.382445 0.715535 0.257802
O15   O     O_3   0.430716 0.954564 0.142991 -0.585416
C61   C     C_3   0.519441 0.978604 0.137314 0.125638
H49   H     H_    0.532541 0.943995 0.057136 0.170202
H50   H     H_    0.590324 0.951249 0.187778 0.124653
C62   C     C_3   0.503500 0.093828 0.172431 -0.811841
H51   H     H_    0.495906 0.129778 0.253860 0.235947
H52   H     H_    0.571545 0.112836 0.165311 0.259911
H53   H     H_    0.432816 0.124873 0.125188 0.217817
O16   O     O_3   0.572419 0.044155 0.856370 -0.496392
C63   C     C_3   0.477143 0.038664 0.868857 0.092802
H54   H     H_    0.409248 0.077189 0.824380 0.099945
H55   H     H_    0.471151 0.074428 0.951171 0.155606
C64   C     C_3   0.471044 0.927641 0.830541 -0.642607
H56   H     H_    0.398497 0.923818 0.844608 0.218581
H57   H     H_    0.469589 0.891722 0.746960 0.244609
H58   H     H_    0.538130 0.885504 0.871419 0.279920
O17   O     O_3   0.637410 0.168047 0.053706 -0.588668
C65   C     C_3   0.745514 0.131436 0.058343 0.094612
H59   H     H_    0.784102 0.195564 0.081170 0.135285
H60   H     H_    0.763566 0.073225 0.983329 0.169421
C66   C     C_3   0.790080 0.081213 0.137927 -0.813252
H61   H     H_    0.754741 0.015296 0.115820 0.246501
H62   H     H_    0.875383 0.053384 0.143193 0.202465
H63   H     H_    0.773819 0.137286 0.214029 0.252214
O18   O     O_3   0.386725 0.820648 0.944870 -0.579070
C67   C     C_3   0.279400 0.828562 0.932879 0.085833
H64   H     H_    0.250697 0.880350 0.005297 0.150210
H65   H     H_    0.262933 0.751858 0.909149 0.135617
C68   C     C_3   0.218981 0.872444 0.850227 -0.821189
H66   H     H_    0.247863 0.824765 0.777525 0.256054
H67   H     H_    0.135363 0.873495 0.836952 0.201525
H68   H     H_    0.227545 0.952002 0.874757 0.240490
O19   O     O_3   0.674635 0.874879 0.718509 -0.508405
C69   C     C_3   0.768495 0.873029 0.696233 0.166675
H69   H     H_    0.761015 0.949108 0.694238 0.174327
H70   H     H_    0.787098 0.813283 0.621761 0.108685
C70   C     C_3   0.860920 0.861553 0.781197 -0.926789
H71   H     H_    0.894498 0.779520 0.768404 0.215004
H72   H     H_    0.922560 0.893888 0.779622 0.213558
H73   H     H_    0.837947 0.903148 0.857283 0.269394
O20   O     O_3   0.269174 0.169019 0.350610 -0.550108
C71   C     C_3   0.251748 0.101462 0.247756 0.177156
H74   H     H_    0.281497 0.021981 0.246096 0.181059
H75   H     H_    0.290162 0.110272 0.196477 0.150966
C72   C     C_3   0.135590 0.114308 0.205268 -0.839482
H76   H     H_    0.100613 0.192989 0.205602 0.285981
H77   H     H_    0.121846 0.059277 0.125317 0.190829
H78   H     H_    0.097173 0.099264 0.252456 0.247803

loop_
_geom_bond_atom_site_label_1
_geom_bond_atom_site_label_2
_ccdc_geom_bond_type
C7    C10   A    
C72   H76   S    
C54   H32   S    
C27   C29   A    
C52   H28   S    
C9    H5    S    
C47   C48   S    
C4    C8    A    
C62   H53   S    
C10   H6    S    
C61   H49   S    
C58   H43   S    
C57   H40   S    
C52   C53   S    
C7    C8    A    
C39   C41   A    
C44   O13   S    
C25   C28   A    
C72   H77   S    
C3    C43   A    
C26   C27   A    
C20   C26   A    
C66   H62   S    
C47   H17   S    
C5    C11   A    
C3    C7    A    
C1    O1    A    
O19   C69   S    
C6    C12   A    
C64   H58   S    
C2    O2    A    
C23   O5    A    
C60   H47   S    
C68   H67   S    
C55   H35   S    
C1    O3    A    
O17   C65   S    
Cu1   O4    S    
C33   C36   S    
O14   C58   S    
C28   O12   S    
C34   C35   S    
C56   H38   S    
C18   N2    A    
C71   C72   S    
C66   H61   S    
C8    C9    A    
O18   C67   S    
C49   C50   S    
O16   C63   S    
C18   C20   A    
C59   C60   S    
C24   O8    A    
C40   C42   A    
C24   O6    A    
C16   O19   S    
C15   N1    A    
C15   O20   S    
C65   C66   S    
C57   H39   S    
C59   H45   S    
C72   H78   S    
Cu1   N2    S    
C68   H66   S    
Cu2   O3    S    
O9    C45   S    
C69   C70   S    
C60   H46   S    
C70   H73   S    
C47   H16   S    
Cu2   O7    S    
C65   H60   S    
C56   C57   S    
O20   C71   S    
C46   H14   S    
C45   H11   S    
C60   H48   S    
C4    C44   A    
C3    C5    A    
C25   C26   A    
Cu1   Cu2   S    
C21   C29   A    
Cu1   O5    S    
C40   O18   S    
Cu2   O6    S    
C29   H7    S    
C63   C64   S    
C37   C43   A    
O10   C47   S    
C32   C35   T    
C38   C44   A    
C19   C21   A    
C11   H3    S    
C43   O14   S    
C48   H20   S    
C30   H8    S    
C2    C38   S    
C51   H26   S    
O11   C49   S    
C67   C68   S    
C66   H63   S    
C33   C34   D    
C13   C21   A    
C16   N2    A    
C49   H21   S    
C9    C11   A    
C17   H10   S    
C10   C12   A    
C18   H9    S    
C42   O15   S    
C63   H55   S    
C71   H74   S    
C39   O17   S    
C54   H34   S    
C53   H31   S    
C13   C15   A    
Cu2   N1    S    
C14   C16   A    
C58   C59   S    
C4    C6    A    
O15   C61   S    
C61   C62   S    
C41   O16   S    
C59   H44   S    
C51   H27   S    
C48   H19   S    
C67   H65   S    
C33   H2    S    
C5    C39   A    
Cu1   O1    S    
C22   C30   A    
Cu2   O2    S    
C13   O9    S    
C20   C22   A    
C65   H59   S    
C62   H52   S    
C61   H50   S    
C46   H15   S    
C12   H4    S    
C64   H56   S    
C52   H29   S    
C38   C42   A    
C1    C37   S    
C53   C54   S    
O13   C55   S    
C54   H33   S    
C14   O10   S    
C23   O7    A    
C27   O11   S    
C24   C31   S    
C28   C30   A    
C58   H42   S    
C23   C32   S    
C64   H57   S    
C14   C22   A    
C51   H25   S    
C55   H36   S    
C45   C46   S    
C71   H75   S    
C17   C19   A    
C6    C40   A    
C37   C41   A    
O12   C52   S    
C19   C25   A    
C69   H69   S    
C70   H71   S    
C48   H18   S    
C2    O4    A    
C46   H13   S    
C67   H64   S    
C50   H23   S    
C45   H12   S    
C53   H30   S    
C50   C51   S    
C17   N1    A    
Cu1   O8    S    
C50   H24   S    
C31   C36   T    
C49   H22   S    
C70   H72   S    
C34   H1    S    
C56   H37   S    
C57   H41   S    
C63   H54   S    
C62   H51   S    
C69   H70   S    
C68   H68   S    
C55   C56   S    
