data_mof_unit_51353.cif
_audit_creation_date              2012-12-11T17:23:09-0500
_audit_creation_method            fapswitch 2.2
_symmetry_space_group_name_H-M    P1
_symmetry_Int_Tables_number       1
_space_group_crystal_system       triclinic
_cell_length_a                    22.398223
_cell_length_b                    7.090239
_cell_length_c                    19.369595
_cell_angle_alpha                 90.001163
_cell_angle_beta                  99.645569
_cell_angle_gamma                 90.000421
_cell_volume                      3032.57524786

loop_
_atom_site_label
_atom_site_type_symbol
_atom_type_description
_atom_site_fract_x
_atom_site_fract_y
_atom_site_fract_z
_atom_type_partial_charge
O1    O     O_R   0.443980 0.494320 0.557430 -0.532858
O2    O     O_R   0.556020 0.994320 0.442570 -0.532857
O3    O     O_R   0.441210 0.822520 0.414610 -0.537764
O4    O     O_R   0.558790 0.322520 0.585390 -0.537767
C1    C     C_R   0.426804 0.655630 0.388562 0.693153
C2    C     C_R   0.573196 0.155635 0.611438 0.693150
O5    O     O_R   0.436920 0.823940 0.555180 -0.535668
O6    O     O_R   0.563080 0.323940 0.444820 -0.535667
O7    O     O_R   0.551700 0.995760 0.584140 -0.534709
O8    O     O_R   0.448300 0.495760 0.415860 -0.534710
C3    C     C_R   0.421595 0.655388 0.574895 0.724261
C4    C     C_R   0.578404 0.155387 0.425104 0.724266
O9    O     O_3   0.537660 0.661290 0.509340 -0.371684
O10   O     O_3   0.462340 0.161290 0.490660 -0.371681
V1    V     V_3+5 0.493010 0.935560 0.498270 1.412603
V2    V     V_3+5 0.506990 0.435560 0.501730 1.412594
H1    H     H_    0.706103 0.817347 0.291789 0.112879
H2    H     H_    0.293890 0.317349 0.708198 0.112877
C5    C     C_R   0.768111 0.931845 0.228869 -0.164703
C6    C     C_R   0.231884 0.431844 0.771123 -0.164710
H3    H     H_    0.781839 0.793882 0.213278 0.111453
H4    H     H_    0.218154 0.293881 0.786708 0.111449
C7    C     C_R   0.793334 0.095272 0.204559 0.133455
C8    C     C_R   0.206665 0.595270 0.795440 0.133464
C9    C     C_R   0.774607 0.272293 0.225553 -0.155819
C10   C     C_R   0.225397 0.772291 0.774454 -0.155817
H5    H     H_    0.793404 0.400170 0.207332 0.113291
H6    H     H_    0.206602 0.900167 0.792680 0.113290
C11   C     C_R   0.731414 0.285712 0.270302 -0.152493
C12   C     C_R   0.268589 0.785712 0.729705 -0.152498
H7    H     H_    0.717648 0.423702 0.285815 0.111741
H8    H     H_    0.282358 0.923703 0.714197 0.111740
C13   C     C_R   0.706312 0.122270 0.294797 0.137659
C14   C     C_R   0.293687 0.622272 0.705203 0.137663
C15   C     C_R   0.724936 0.945252 0.273641 -0.150275
C16   C     C_R   0.275060 0.445253 0.726351 -0.150268
C17   C     C_1   0.838337 0.081664 0.158434 -0.055923
C18   C     C_1   0.161663 0.581660 0.841565 -0.055918
C19   C     C_1   0.661507 0.135862 0.341229 -0.055556
C20   C     C_1   0.338493 0.635866 0.658770 -0.055556
C21   C     C_1   0.623876 0.145871 0.379718 -0.180511
C22   C     C_1   0.376123 0.645875 0.620282 -0.180509
C23   C     C_1   0.876148 0.071646 0.120215 -0.173627
C24   C     C_1   0.123852 0.571642 0.879784 -0.173646
C25   C     C_R   0.634158 0.201227 0.803746 -0.136728
C26   C     C_R   0.365853 0.701040 0.196245 -0.136700
H9    H     H_    0.546710 0.222613 0.739473 0.109919
H10   H     H_    0.453302 0.722414 0.260519 0.109916
H11   H     H_    0.616022 0.239006 0.850315 0.157067
H12   H     H_    0.383996 0.738730 0.149671 0.157074
C27   C     C_R   0.615505 0.149642 0.678626 -0.064955
C28   C     C_R   0.384496 0.649618 0.321374 -0.064935
C29   C     C_R   0.908744 0.003309 0.761269 0.387813
C30   C     C_R   0.091250 0.503421 0.238737 0.387794
C31   C     C_R   0.869386 0.956240 0.700206 -0.258572
C32   C     C_R   0.130603 0.456389 0.299807 -0.258615
C33   C     C_R   0.806764 0.976492 0.695183 0.359175
C34   C     C_R   0.193227 0.476599 0.304830 0.359186
C35   C     C_R   0.782055 0.065054 0.750282 -0.039646
C36   C     C_R   0.217943 0.565078 0.249721 -0.039655
C37   C     C_R   0.822184 0.098962 0.814880 -0.105894
C38   C     C_R   0.177818 0.598938 0.185117 -0.105892
C39   C     C_R   0.718887 0.111226 0.745187 0.042085
C40   C     C_R   0.281114 0.611210 0.254812 0.042073
C41   C     C_R   0.696373 0.164602 0.806914 0.040298
C42   C     C_R   0.303635 0.664477 0.193079 0.040315
C43   C     C_R   0.736057 0.183171 0.871031 0.383146
C44   C     C_R   0.263955 0.682996 0.128958 0.383153
C45   C     C_R   0.798252 0.159012 0.873638 -0.235796
C46   C     C_R   0.201756 0.658895 0.126351 -0.235811
C47   C     C_R   0.677450 0.113652 0.680729 -0.187288
C48   C     C_R   0.322547 0.613693 0.319272 -0.187266
C49   C     C_R   0.594250 0.192125 0.740457 -0.179638
C50   C     C_R   0.405758 0.691983 0.259537 -0.179657
C51   C     C_R   0.885472 0.064848 0.820369 -0.166946
C52   C     C_R   0.114527 0.564870 0.179631 -0.166917
H13   H     H_    0.692225 0.098969 0.630910 0.165488
H14   H     H_    0.307767 0.599092 0.369092 0.165469
H15   H     H_    0.887528 0.893390 0.657125 0.161562
H16   H     H_    0.112457 0.393600 0.342896 0.161556
H17   H     H_    0.827683 0.186094 0.922927 0.121753
H18   H     H_    0.172328 0.685946 0.077058 0.121706
O11   O     O_R   0.051730 0.724670 0.084120 -0.544689
O12   O     O_R   0.948270 0.224670 0.915880 -0.544699
O13   O     O_R   0.063080 0.393540 0.944820 -0.543236
O14   O     O_R   0.936920 0.893540 0.055180 -0.543220
C53   C     C_R   0.078225 0.562119 0.924907 0.713469
C54   C     C_R   0.921774 0.062120 0.075093 0.713476
O15   O     O_R   0.058800 0.395030 0.085390 -0.528778
O16   O     O_R   0.941200 0.895030 0.914610 -0.528763
O17   O     O_R   0.943980 0.223310 0.057440 -0.524689
O18   O     O_R   0.056020 0.723310 0.942560 -0.524686
C55   C     C_R   0.072867 0.563067 0.111449 0.756338
C56   C     C_R   0.927132 0.063063 0.888551 0.756289
O19   O     O_3   0.962360 0.556290 0.990650 -0.372473
O20   O     O_3   0.037640 0.056290 0.009350 -0.372482
V3    V     V_3+5 0.006980 0.281990 0.001730 1.455361
V4    V     V_3+5 0.993020 0.781990 0.998270 1.455412
O21   O     O_3   0.770923 0.896942 0.637567 -0.561208
C57   C     C_3   0.754078 0.713500 0.655508 0.082176
H19   H     H_    0.731875 0.714868 0.702913 0.128719
H20   H     H_    0.794458 0.619451 0.665154 0.129141
C58   C     C_3   0.709084 0.632403 0.595244 -0.663135
H21   H     H_    0.729902 0.625528 0.547145 0.217637
H22   H     H_    0.695671 0.487984 0.608697 0.173534
H23   H     H_    0.667975 0.722521 0.585069 0.223060
O22   O     O_3   0.229062 0.397076 0.362455 -0.561205
C59   C     C_3   0.245901 0.213612 0.344530 0.082191
H24   H     H_    0.268105 0.214930 0.297125 0.128710
H25   H     H_    0.205518 0.119574 0.334889 0.129136
C60   C     C_3   0.290890 0.132541 0.404802 -0.663156
H26   H     H_    0.270070 0.125713 0.452900 0.217643
H27   H     H_    0.304298 0.988105 0.391361 0.173525
H28   H     H_    0.332002 0.222648 0.414972 0.223057
O23   O     O_3   0.714592 0.244102 0.930233 -0.557800
C61   C     C_3   0.715905 0.091703 0.977424 0.080813
H29   H     H_    0.763229 0.045338 0.996869 0.118946
H30   H     H_    0.689111 0.970107 0.952231 0.121836
C62   C     C_3   0.688126 0.154160 0.040156 -0.682736
H31   H     H_    0.640458 0.198888 0.022770 0.215808
H32   H     H_    0.688944 0.035496 0.077726 0.183039
H33   H     H_    0.714284 0.274087 0.066947 0.226287
O24   O     O_3   0.285429 0.743825 0.069748 -0.557803
C63   C     C_3   0.284079 0.591391 0.022564 0.080825
H34   H     H_    0.236741 0.545185 0.003099 0.118953
H35   H     H_    0.310821 0.469715 0.047769 0.121835
C64   C     C_3   0.311904 0.653687 0.959847 -0.682739
H36   H     H_    0.359588 0.698236 0.977253 0.215799
H37   H     H_    0.311049 0.535003 0.922279 0.183033
H38   H     H_    0.285802 0.773703 0.933047 0.226306
O25   O     O_3   0.969756 0.964610 0.765758 -0.551052
C65   C     C_3   0.998749 0.128975 0.747252 -0.232442
H39   H     H_    0.993993 0.247483 0.783665 0.133310
H40   H     H_    0.981200 0.171195 0.692225 0.138173
H41   H     H_    0.047819 0.099080 0.751129 0.162867
O26   O     O_3   0.030235 0.464760 0.234247 -0.551056
C66   C     C_3   0.001262 0.629099 0.252811 -0.232451
H42   H     H_    0.006013 0.747657 0.216420 0.133330
H43   H     H_    0.018833 0.671236 0.307843 0.138155
H44   H     H_    0.952191 0.599223 0.248953 0.162876

loop_
_geom_bond_atom_site_label_1
_geom_bond_atom_site_label_2
_ccdc_geom_bond_type
C42   C44   A    
C39   C41   A    
C17   C23   T    
C60   H26   S    
O1    C3    A    
C47   H13   S    
O2    C4    A    
C2    O7    A    
O19   V4    S    
O18   V4    S    
O24   C63   S    
C19   C21   T    
C59   H24   S    
O5    C3    A    
C66   H43   S    
C13   C19   S    
C14   C20   S    
O12   V3    S    
C36   C38   A    
C5    H3    S    
C8    C10   A    
C26   C42   A    
C28   C50   A    
O14   C54   A    
C33   C35   A    
C34   C36   A    
O23   C61   S    
C33   O21   S    
C11   C13   A    
C61   H29   S    
C38   C46   A    
C3    C22   S    
C25   C49   A    
C34   O22   S    
C43   O23   S    
C48   H14   S    
C6    C8    A    
C59   H25   S    
C65   H39   S    
C41   C43   A    
O11   V4    S    
O20   V4    S    
C8    C18   S    
O22   C59   S    
C1    C28   S    
C29   O25   S    
C59   C60   S    
C2    C27   S    
C60   H28   S    
C24   C53   S    
C20   C22   T    
O6    V2    S    
C53   O18   A    
C38   C52   A    
C29   C51   A    
C27   C47   A    
O14   V4    S    
C44   O24   S    
O16   C56   A    
C29   C31   A    
C9    C11   A    
C66   H44   S    
C30   C32   A    
C35   C37   A    
C12   C14   A    
O13   C53   A    
H10   C50   S    
C45   H17   S    
H9    C49   S    
C58   H22   S    
C7    C17   S    
C57   C58   S    
C37   C51   A    
O15   V3    S    
C43   C45   A    
C40   C42   A    
O4    V2    S    
C5    C7    A    
C64   H37   S    
C18   C24   T    
C4    C21   S    
C28   C48   A    
C52   C55   S    
C31   H15   S    
O21   C57   S    
C54   O17   A    
C25   H11   S    
O6    C4    A    
C30   O26   S    
O20   V3    S    
C57   H20   S    
C60   H27   S    
O1    V2    S    
O12   C56   A    
O17   V3    S    
O2    V1    S    
C62   H32   S    
C61   H30   S    
C63   C64   S    
C30   C52   A    
O4    C2    A    
C39   C47   A    
C10   C12   A    
C31   C33   A    
C25   C41   A    
C23   C54   S    
O25   C65   S    
C26   C50   A    
O3    V1    S    
C63   H35   S    
C62   H33   S    
C37   C45   A    
C10   H6    S    
C27   C49   A    
C6    H4    S    
O26   C66   S    
O3    C1    A    
C62   H31   S    
O19   V3    S    
C9    H5    S    
C66   H42   S    
C26   H12   S    
C35   C39   A    
C32   H16   S    
C61   C62   S    
C36   C40   A    
O7    V1    S    
C64   H38   S    
C1    O8    A    
C11   H7    S    
O8    V2    S    
C12   H8    S    
C65   H41   S    
C65   H40   S    
O5    V1    S    
C57   H19   S    
C13   C15   A    
C32   C34   A    
C58   H23   S    
C14   C16   A    
C40   C48   A    
O15   C55   A    
C46   H18   S    
O13   V3    S    
C6    C16   A    
C7    C9    A    
C44   C46   A    
O9    V2    S    
C58   H21   S    
O10   V1    S    
C5    C15   A    
H1    C15   S    
H2    C16   S    
O16   V4    S    
C64   H36   S    
C51   C56   S    
C63   H34   S    
O11   C55   A    
