data_mof_unit_35712.cif
_audit_creation_date              2012-12-10T17:42:38-0500
_audit_creation_method            fapswitch 2.2
_symmetry_space_group_name_H-M    P1
_symmetry_Int_Tables_number       1
_space_group_crystal_system       triclinic
_cell_length_a                    9.977526
_cell_length_b                    10.665346
_cell_length_c                    13.130327
_cell_angle_alpha                 94.12679
_cell_angle_beta                  69.79408
_cell_angle_gamma                 94.949998
_cell_volume                      1305.0378334

loop_
_atom_site_label
_atom_site_type_symbol
_atom_type_description
_atom_site_fract_x
_atom_site_fract_y
_atom_site_fract_z
_atom_type_partial_charge
C1    C     C_R   0.505328 0.740251 0.501615 0.921848
C2    C     C_R   0.366953 0.489035 0.822041 -0.072078
C3    C     C_R   0.364918 0.890952 0.699760 0.309885
C4    C     C_R   0.419447 0.492447 0.703588 0.898692
C5    C     C_R   0.245866 0.941142 0.776576 -0.317169
C6    C     C_R   0.179371 0.035525 0.749251 0.367238
C7    C     C_R   0.246217 0.096067 0.650864 0.318443
C8    C     C_R   0.380682 0.055564 0.577816 -0.121152
C9    C     C_R   0.423065 0.939573 0.594893 -0.030633
C10   C     C_R   0.518927 0.875115 0.505797 -0.083131
C11   C     C_R   0.601026 0.936082 0.410432 -0.119308
C12   C     C_R   0.433052 0.492442 0.983874 0.134941
C13   C     C_R   0.586255 0.064377 0.405710 -0.114621
C14   C     C_R   0.478559 0.124150 0.490963 -0.064807
C15   C     C_R   0.809252 0.660408 0.648058 -0.180467
C16   C     C_R   0.492480 0.259396 0.501172 0.892478
C17   C     C_R   0.848196 0.728097 0.729638 0.461857
C18   C     C_R   0.983941 0.721086 0.733901 -0.253003
C19   C     C_R   0.082701 0.649564 0.655627 -0.206486
C20   C     C_R   0.044707 0.574627 0.575958 0.184962
C21   C     C_R   0.901846 0.577291 0.574020 0.088456
C22   C     C_R   0.953085 0.428176 0.427832 -0.057919
C23   C     C_R   0.456127 0.450571 0.875290 0.075021
C24   C     C_R   0.096353 0.428621 0.425762 0.004754
C25   C     C_R   0.580777 0.503350 0.295850 1.023633
C26   C     C_R   0.779632 0.409240 0.005146 0.362110
C27   C     C_R   0.632910 0.500819 0.177122 -0.269254
C28   C     C_R   0.239711 0.545027 0.882139 -0.065429
C29   C     C_R   0.203460 0.565408 0.993636 -0.032109
C30   C     C_R   0.298269 0.538499 0.044619 -0.041043
C31   C     C_2   0.681488 0.135152 0.310795 1.000380
C32   C     C_2   0.191299 0.348819 0.338305 0.973024
C33   C     C_2   0.698199 0.865578 0.314982 0.969950
C34   C     C_R   0.544215 0.482903 0.026967 -0.034923
C35   C     C_R   0.666462 0.416082 0.965318 -0.056083
C36   C     C_R   0.673547 0.357472 0.865171 -0.064597
C37   C     C_R   0.568806 0.372787 0.821685 -0.191993
C38   C     C_R   0.541695 0.540123 0.127436 0.272571
C39   C     C_R   0.760161 0.445632 0.113335 0.317737
Cl1   Cl    Cl    0.896853 0.422328 0.165484 -0.569990
Cl2   Cl    Cl    0.450274 0.782844 0.745387 -0.621061
Cl3   Cl    Cl    0.007931 0.069005 0.838403 -0.407461
Cl4   Cl    Cl    0.138273 0.192294 0.612061 -0.477279
Cl5   Cl    Cl    0.728119 0.823558 0.827139 -0.413260
Cl6   Cl    Cl    0.946318 0.356606 0.920448 -0.507057
Cl7   Cl    Cl    0.454220 0.680379 0.182516 -0.529795
H1    H     H_    0.200028 0.901447 0.855905 0.224375
H2    H     H_    0.577400 0.323419 0.744935 0.169640
H3    H     H_    0.880353 0.163557 0.201455 0.405912
H4    H     H_    0.248701 0.284487 0.181713 0.363759
H5    H     H_    0.860194 0.750000 0.256905 0.358330
H6    H     H_    0.917978 0.368191 0.370633 0.216073
H7    H     H_    0.707728 0.675833 0.643081 0.253144
H8    H     H_    0.014038 0.773375 0.797128 0.199256
H9    H     H_    0.187712 0.655911 0.659673 0.220990
H10   H     H_    0.760261 0.299700 0.819070 0.233837
H11   H     H_    0.170065 0.575929 0.842735 0.170185
H12   H     H_    0.262282 0.551481 0.131710 0.216557
H13   H     H_    0.103789 0.606428 0.040159 0.185064
N1    N     N_R   0.856860 0.501200 0.500990 -0.119012
N2    N     N_R   0.142450 0.501280 0.501020 -0.130896
O1    O     O_R   0.385310 0.683220 0.500000 -0.624664
O2    O     O_R   0.827929 0.116305 0.269639 -0.756771
O3    O     O_2   0.272079 0.281668 0.356809 -0.528027
O4    O     O_R   0.180206 0.343315 0.234778 -0.798452
O5    O     O_2   0.689923 0.873554 0.224932 -0.526743
O6    O     O_R   0.801438 0.793411 0.327573 -0.749059
O7    O     O_R   0.614640 0.683250 0.500010 -0.580485
O8    O     O_R   0.328400 0.499950 0.653610 -0.618623
O9    O     O_R   0.557730 0.499970 0.653620 -0.631648
O10   O     O_R   0.385360 0.316750 0.499990 -0.510588
O11   O     O_R   0.614690 0.316780 0.500000 -0.638347
O12   O     O_R   0.442270 0.500030 0.346380 -0.591704
O13   O     O_R   0.671600 0.500050 0.346390 -0.561951
O14   O     O_2   0.631300 0.208017 0.268036 -0.593303
Zn1   Zn    Zn3+2 0.346880 0.499980 0.499990 1.051710
Zn2   Zn    Zn3+2 0.653120 0.500020 0.500010 1.015568

loop_
_geom_bond_atom_site_label_1
_geom_bond_atom_site_label_2
_ccdc_geom_bond_type
C24   N2    A    
H3    O2    S    
C19   C20   A    
C16   O11   A    
C1    O1    A    
C4    O9    A    
C7    C8    A    
C28   H11   S    
C5    H1    S    
C12   C23   A    
C29   C30   A    
C36   H10   S    
C15   H7    S    
C28   C29   A    
C25   O13   A    
C22   N1    A    
C5    C6    A    
C26   C39   A    
C27   C38   A    
C1    O7    A    
O8    Zn1   S    
C34   C35   A    
C20   N2    A    
C26   Cl6   S    
C3    Cl2   S    
C35   C36   A    
C27   C39   A    
C8    C9    A    
O13   Zn2   S    
C14   C16   S    
C7    Cl4   S    
C9    C10   A    
C13   C14   A    
O9    Zn2   S    
O1    Zn1   S    
C16   O10   A    
C4    O8    A    
C33   O5    D    
N2    Zn1   S    
N1    Zn2   S    
C31   O2    S    
C11   C33   S    
C32   O3    D    
C21   N1    A    
C39   Cl1   S    
C18   C19   A    
C23   C37   A    
C2    C4    S    
C24   C32   S    
O11   Zn2   S    
C3    C9    A    
C31   O14   D    
C17   C18   A    
H5    O6    S    
C37   H2    S    
O12   Zn1   S    
C22   C24   A    
C12   C34   A    
C33   O6    S    
C22   H6    S    
C19   H9    S    
O7    Zn2   S    
C15   C17   A    
C36   C37   A    
C8    C14   A    
C12   C30   A    
C34   C38   A    
C13   C31   S    
C1    C10   S    
C3    C5    A    
C6    C7    A    
C25   C27   S    
C17   Cl5   S    
C11   C13   A    
O10   Zn1   S    
C30   H12   S    
C25   O12   A    
H4    O4    S    
C38   Cl7   S    
C10   C11   A    
C18   H8    S    
C26   C35   A    
C15   C21   A    
C20   C21   A    
C6    Cl3   S    
C2    C23   A    
C29   H13   S    
C2    C28   A    
C32   O4    S    
