data_mof_unit_25774.cif
_audit_creation_date              2012-12-11T15:35:13-0500
_audit_creation_method            fapswitch 2.2
_symmetry_space_group_name_H-M    P1
_symmetry_Int_Tables_number       1
_space_group_crystal_system       triclinic
_cell_length_a                    17.328725
_cell_length_b                    24.349865
_cell_length_c                    14.785995
_cell_angle_alpha                 90.005411
_cell_angle_beta                  124.681743
_cell_angle_gamma                 90.020146
_cell_volume                      5130.47258466

loop_
_atom_site_label
_atom_site_type_symbol
_atom_type_description
_atom_site_fract_x
_atom_site_fract_y
_atom_site_fract_z
_atom_type_partial_charge
C1    C     C_R   0.352119 0.152321 0.909382 -0.073494
C2    C     C_R   0.351804 0.847746 0.909313 -0.068211
C3    C     C_R   0.852119 0.652321 0.909382 -0.073494
C4    C     C_R   0.851804 0.347746 0.909313 -0.068211
C5    C     C_R   0.687153 0.125713 0.092175 -0.130884
C6    C     C_R   0.687428 0.874697 0.092111 -0.151992
C7    C     C_R   0.187153 0.625713 0.092175 -0.130885
C8    C     C_R   0.187428 0.374697 0.092111 -0.151992
C9    C     C_R   0.593571 0.867662 0.908671 0.523311
C10   C     C_R   0.593431 0.132479 0.908670 0.505429
C11   C     C_R   0.093571 0.367662 0.908671 0.523311
C12   C     C_R   0.093431 0.632479 0.908670 0.505429
C13   C     C_R   0.428977 0.000007 0.628791 -0.041113
C14   C     C_R   0.928977 0.500007 0.628791 -0.041113
C15   C     C_R   0.811190 0.000316 0.356162 0.050964
C16   C     C_R   0.311190 0.500316 0.356162 0.050964
C17   C     C_R   0.684150 0.143059 0.001165 -0.109766
C18   C     C_R   0.684374 0.857225 0.001141 -0.129773
C19   C     C_R   0.184150 0.643059 0.001165 -0.109765
C20   C     C_R   0.184374 0.357225 0.001141 -0.129773
C21   C     C_3   0.022481 0.950374 0.635853 -0.372205
C22   C     C_3   0.025997 0.053368 0.628757 -0.349385
C23   C     C_3   0.522481 0.450374 0.635853 -0.372205
C24   C     C_3   0.525997 0.553368 0.628757 -0.349384
C25   C     C_3   0.922323 0.950731 0.531057 -0.424222
C26   C     C_3   0.924171 0.051871 0.527851 -0.405991
C27   C     C_3   0.422323 0.450731 0.531057 -0.424221
C28   C     C_3   0.424171 0.551871 0.527851 -0.405992
C29   C     C_3   0.080325 0.995737 0.531320 -0.537523
C30   C     C_3   0.580325 0.495737 0.531320 -0.537523
C31   C     C_3   0.077482 0.000018 0.634281 0.241668
C32   C     C_3   0.577482 0.500018 0.634281 0.241668
C33   C     C_3   0.907907 0.000513 0.455655 0.056132
C34   C     C_3   0.407907 0.500513 0.455655 0.056132
C35   C     C_R   0.445758 0.847616 0.092448 -0.146394
C36   C     C_R   0.445837 0.152381 0.092522 -0.147203
C37   C     C_R   0.945758 0.347616 0.092448 -0.146393
C38   C     C_R   0.945837 0.652381 0.092522 -0.147203
C39   C     C_3   0.981566 0.999340 0.423124 0.873058
C40   C     C_3   0.481566 0.499340 0.423124 0.873058
C41   C     C_R   0.307765 0.727634 0.911834 -0.145106
C42   C     C_R   0.308384 0.272524 0.912395 -0.131787
C43   C     C_R   0.807765 0.227634 0.911834 -0.145106
C44   C     C_R   0.808384 0.772524 0.912395 -0.131787
C45   C     C_R   0.758149 0.183166 0.912825 -0.068111
C46   C     C_R   0.758825 0.817025 0.913356 -0.062194
C47   C     C_R   0.258149 0.683166 0.912825 -0.068111
C48   C     C_R   0.258825 0.317025 0.913356 -0.062194
C49   C     C_R   0.760103 0.172822 0.007313 0.184667
C50   C     C_R   0.760212 0.827213 0.007525 0.128503
C51   C     C_R   0.260103 0.672822 0.007313 0.184666
C52   C     C_R   0.260212 0.327213 0.007525 0.128503
C53   C     C_R   0.830949 0.196425 0.107423 -0.087672
C54   C     C_R   0.830281 0.803207 0.107534 -0.122619
C55   C     C_R   0.330949 0.696425 0.107423 -0.087672
C56   C     C_R   0.330281 0.303207 0.107534 -0.122619
C57   C     C_R   0.382897 0.739044 0.107682 -0.179274
C58   C     C_R   0.382201 0.260589 0.107868 -0.145473
C59   C     C_R   0.882897 0.239044 0.107682 -0.179273
C60   C     C_R   0.882201 0.760589 0.107868 -0.145473
C61   C     C_R   0.362954 0.758946 0.007624 0.135526
C62   C     C_R   0.362992 0.241003 0.007951 0.118924
C63   C     C_R   0.862954 0.258946 0.007624 0.135525
C64   C     C_R   0.862992 0.741004 0.007951 0.118924
C65   C     C_R   0.383654 0.950271 0.458977 -0.103137
C66   C     C_R   0.383721 0.049715 0.459027 -0.101057
C67   C     C_R   0.883654 0.450271 0.458977 -0.103137
C68   C     C_R   0.883722 0.549715 0.459027 -0.101058
C69   C     C_R   0.386788 0.950298 0.367473 -0.145586
C70   C     C_R   0.386847 0.049680 0.367517 -0.146271
C71   C     C_R   0.886788 0.450298 0.367473 -0.145586
C72   C     C_R   0.886847 0.549680 0.367517 -0.146271
C73   C     C_R   0.399751 0.999988 0.329900 0.118453
C74   C     C_R   0.899751 0.499988 0.329900 0.118454
C75   C     C_R   0.478315 0.045750 0.247437 -0.121396
C76   C     C_R   0.478318 0.954238 0.247448 -0.122048
C77   C     C_R   0.978315 0.545750 0.247437 -0.121396
C78   C     C_R   0.978318 0.454238 0.247448 -0.122048
C79   C     C_R   0.392515 0.999997 0.512012 0.126511
C80   C     C_R   0.892515 0.499997 0.512012 0.126511
C81   C     C_R   0.232360 0.953821 0.756377 -0.122459
C82   C     C_R   0.232501 0.046205 0.756362 -0.121633
C83   C     C_R   0.732360 0.453821 0.756377 -0.122459
C84   C     C_R   0.732501 0.546205 0.756362 -0.121634
C85   C     C_R   0.385391 0.184191 0.002426 0.058874
C86   C     C_R   0.385193 0.815829 0.002292 0.055904
C87   C     C_R   0.885391 0.684191 0.002426 0.058874
C88   C     C_R   0.885193 0.315829 0.002292 0.055904
C89   C     C_R   0.445961 0.999990 0.272390 0.051127
C90   C     C_R   0.945961 0.499990 0.272390 0.051127
C91   C     C_R   0.176014 0.000042 0.729622 0.032003
C92   C     C_R   0.676014 0.500042 0.729622 0.032003
C93   C     C_R   0.446476 0.045066 0.693709 -0.054148
C94   C     C_R   0.446495 0.954950 0.693687 -0.048825
C95   C     C_R   0.946476 0.545066 0.693709 -0.054148
C96   C     C_R   0.946495 0.454950 0.693687 -0.048826
C97   C     C_R   0.759458 0.954240 0.299772 -0.008174
C98   C     C_R   0.758928 0.046088 0.299675 -0.022526
C99   C     C_R   0.259458 0.454240 0.299772 -0.008174
C100  C     C_R   0.258928 0.546088 0.299675 -0.022525
H1    H     H_    0.312452 0.166512 0.825206 0.130381
H2    H     H_    0.311641 0.833650 0.825066 0.128794
H3    H     H_    0.812452 0.666512 0.825206 0.130381
H4    H     H_    0.811641 0.333650 0.825066 0.128794
H5    H     H_    0.020646 0.952347 0.709805 0.175086
H6    H     H_    0.027824 0.057950 0.704842 0.168487
H7    H     H_    0.520646 0.452348 0.709805 0.175086
H8    H     H_    0.527824 0.557950 0.704842 0.168487
H9    H     H_    0.871682 0.953471 0.554487 0.174346
H10   H     H_    0.876323 0.050400 0.555459 0.171553
H11   H     H_    0.371682 0.453471 0.554488 0.174346
H12   H     H_    0.376323 0.550401 0.555459 0.171552
H13   H     H_    0.908257 0.910561 0.490061 0.215900
H14   H     H_    0.908038 0.091067 0.483029 0.220885
H15   H     H_    0.408257 0.410562 0.490062 0.215900
H16   H     H_    0.408038 0.591067 0.483029 0.220886
H17   H     H_    0.114814 0.956337 0.535648 0.201723
H18   H     H_    0.127290 0.028192 0.534978 0.211423
H19   H     H_    0.614813 0.456336 0.535649 0.201723
H20   H     H_    0.627290 0.528192 0.534978 0.211423
H21   H     H_    0.296773 0.739832 0.834951 0.135071
H22   H     H_    0.297884 0.260499 0.835680 0.140797
H23   H     H_    0.796773 0.239832 0.834952 0.135071
H24   H     H_    0.797884 0.760499 0.835680 0.140797
H25   H     H_    0.712531 0.160472 0.837826 0.170988
H26   H     H_    0.713720 0.839926 0.838530 0.172065
H27   H     H_    0.212531 0.660472 0.837826 0.170988
H28   H     H_    0.213720 0.339926 0.838530 0.172065
H29   H     H_    0.840576 0.186948 0.184493 0.124158
H30   H     H_    0.839314 0.812416 0.184386 0.155372
H31   H     H_    0.340576 0.686948 0.184493 0.124161
H32   H     H_    0.339314 0.312416 0.184386 0.155372
H33   H     H_    0.429156 0.760115 0.184840 0.117526
H34   H     H_    0.427820 0.239268 0.184841 0.123346
H35   H     H_    0.929155 0.260115 0.184840 0.117526
H36   H     H_    0.927820 0.739268 0.184841 0.123346
H37   H     H_    0.384698 0.911051 0.493841 0.140035
H38   H     H_    0.384834 0.088936 0.493943 0.147300
H39   H     H_    0.884698 0.411051 0.493841 0.140035
H40   H     H_    0.884834 0.588936 0.493943 0.147300
H41   H     H_    0.494748 0.833983 0.176129 0.099578
H42   H     H_    0.494807 0.166012 0.176239 0.098822
H43   H     H_    0.994748 0.333983 0.176129 0.099578
H44   H     H_    0.994807 0.666012 0.176239 0.098822
H45   H     H_    0.389715 0.911145 0.335113 0.118622
H46   H     H_    0.389822 0.088831 0.335196 0.120457
H47   H     H_    0.889716 0.411145 0.335113 0.118622
H48   H     H_    0.889822 0.588831 0.335196 0.120456
H49   H     H_    0.467705 0.088410 0.257006 0.101102
H50   H     H_    0.467710 0.911574 0.257033 0.100652
H51   H     H_    0.967704 0.588410 0.257006 0.101101
H52   H     H_    0.967710 0.411574 0.257033 0.100651
H53   H     H_    0.211039 0.911333 0.740560 0.104977
H54   H     H_    0.211830 0.088774 0.741996 0.111761
H55   H     H_    0.711039 0.411333 0.740560 0.104976
H56   H     H_    0.711830 0.588774 0.741996 0.111761
H57   H     H_    0.421146 0.085733 0.663444 0.189648
H58   H     H_    0.421259 0.914277 0.663372 0.186033
H59   H     H_    0.921146 0.585733 0.663444 0.189648
H60   H     H_    0.921259 0.414277 0.663372 0.186033
H61   H     H_    0.773414 0.912171 0.327507 0.092655
H62   H     H_    0.771923 0.088245 0.326838 0.082526
H63   H     H_    0.273414 0.412171 0.327507 0.092656
H64   H     H_    0.271923 0.588245 0.326838 0.082526
H65   H     H_    0.743536 0.130130 0.177248 0.151166
H66   H     H_    0.744397 0.870934 0.177112 0.159677
H67   H     H_    0.243536 0.630130 0.177248 0.151167
H68   H     H_    0.244397 0.370934 0.177112 0.159677
H69   H     H_    0.055786 0.910835 0.638924 0.176960
H70   H     H_    0.059881 0.090191 0.621615 0.207630
H71   H     H_    0.555786 0.410835 0.638925 0.176960
H72   H     H_    0.559882 0.590192 0.621615 0.207629
N1    N     N_R   0.392140 0.102630 0.941800 -0.047147
N2    N     N_R   0.392140 0.897370 0.941800 -0.043781
N3    N     N_R   0.892140 0.602630 0.941800 -0.047147
N4    N     N_R   0.892140 0.397370 0.941800 -0.043781
N5    N     N_R   0.450890 0.896450 0.057150 -0.045915
N6    N     N_R   0.450890 0.103550 0.057150 -0.045238
N7    N     N_R   0.950890 0.396450 0.057150 -0.045915
N8    N     N_R   0.950890 0.603550 0.057150 -0.045238
N9    N     N_R   0.525160 0.027960 0.206160 -0.049764
N10   N     N_R   0.525160 0.972040 0.206160 -0.050023
N11   N     N_R   0.025160 0.527960 0.206160 -0.049764
N12   N     N_R   0.025160 0.472040 0.206160 -0.050023
N13   N     N_R   0.317870 0.971120 0.792790 -0.042626
N14   N     N_R   0.317870 0.028880 0.792790 -0.045042
N15   N     N_R   0.817870 0.471120 0.792790 -0.042626
N16   N     N_R   0.817870 0.528880 0.792790 -0.045042
N17   N     N_R   0.473480 0.027920 0.793480 -0.068077
N18   N     N_R   0.473480 0.972080 0.793480 -0.065567
N19   N     N_R   0.973480 0.527920 0.793480 -0.068077
N20   N     N_R   0.973480 0.472080 0.793480 -0.065567
N21   N     N_R   0.681610 0.971120 0.207570 -0.045961
N22   N     N_R   0.681610 0.028880 0.207570 -0.045132
N23   N     N_R   0.181610 0.471120 0.207570 -0.045961
N24   N     N_R   0.181610 0.528880 0.207570 -0.045132
N25   N     N_R   0.605410 0.102620 0.056870 -0.075417
N26   N     N_R   0.605410 0.897380 0.056870 -0.070877
N27   N     N_R   0.105410 0.602620 0.056870 -0.075417
N28   N     N_R   0.105410 0.397380 0.056870 -0.070877
N29   N     N_R   0.549680 0.896430 0.944180 -0.088392
N30   N     N_R   0.549680 0.103570 0.944180 -0.095203
N31   N     N_R   0.049680 0.396430 0.944180 -0.088392
N32   N     N_R   0.049680 0.603570 0.944180 -0.095203
Ni1   Ni    Ni4+2 0.433410 0.064680 0.868830 0.276245
Ni2   Ni    Ni4+2 0.433410 0.935320 0.868830 0.274375
Ni3   Ni    Ni4+2 0.933410 0.564680 0.868830 0.276245
Ni4   Ni    Ni4+2 0.933410 0.435320 0.868830 0.274375
Ni5   Ni    Ni4+2 0.565650 0.934380 0.131170 0.212884
Ni6   Ni    Ni4+2 0.565650 0.065620 0.131170 0.211191
Ni7   Ni    Ni4+2 0.065650 0.434380 0.131170 0.212884
Ni8   Ni    Ni4+2 0.065650 0.565620 0.131170 0.211191
S1    S     S_3+6 0.966714 0.941331 0.335818 -0.038559
O1    O     O_2   0.050283 0.938863 0.329496 -0.254423
O2    O     O_2   0.959955 0.887378 0.379967 -0.370298
O3    O     O_3   0.870227 0.950149 0.207594 -0.511280
H73   H     H_    0.879414 0.926054 0.160500 0.370926
S2    S     S_3+6 0.978614 0.060312 0.348664 -0.038382
O4    O     O_2   0.053212 0.054611 0.327078 -0.232970
O5    O     O_2   0.885611 0.065294 0.239734 -0.291651
O6    O     O_3   0.000927 0.118517 0.420766 -0.606505
H74   H     H_    0.996026 0.148198 0.371943 0.371142
S3    S     S_3+6 0.466714 0.441331 0.335818 -0.038560
O7    O     O_2   0.550283 0.438862 0.329497 -0.254423
O8    O     O_2   0.459954 0.387377 0.379967 -0.370298
O9    O     O_3   0.370227 0.450149 0.207593 -0.511279
H75   H     H_    0.379414 0.426054 0.160500 0.370925
S4    S     S_3+6 0.478614 0.560312 0.348664 -0.038383
O10   O     O_2   0.553212 0.554610 0.327077 -0.232972
O11   O     O_2   0.385611 0.565294 0.239734 -0.291649
O12   O     O_3   0.500928 0.618517 0.420766 -0.606506
H76   H     H_    0.496032 0.648198 0.371945 0.371144
S5    S     S_3+6 0.531426 0.825042 0.791107 -0.089399
O13   O     O_2   0.542781 0.845456 0.703372 -0.357064
O14   O     O_2   0.568410 0.767355 0.821916 -0.282900
O15   O     O_3   0.417043 0.824698 0.742695 -0.590230
H77   H     H_    0.386723 0.800682 0.676974 0.374115
S6    S     S_3+6 0.531160 0.175491 0.791808 -0.091451
O16   O     O_2   0.541667 0.155339 0.703258 -0.358401
O17   O     O_2   0.429045 0.176150 0.749111 -0.332812
O18   O     O_3   0.573552 0.239824 0.827348 -0.537200
H78   H     H_    0.539796 0.260729 0.757481 0.375903
S7    S     S_3+6 0.031426 0.325042 0.791107 -0.089398
O19   O     O_2   0.042781 0.345456 0.703372 -0.357064
O20   O     O_2   0.068410 0.267355 0.821916 -0.282900
O21   O     O_3   0.917043 0.324698 0.742695 -0.590230
H79   H     H_    0.886723 0.300682 0.676974 0.374115
S8    S     S_3+6 0.031160 0.675491 0.791808 -0.091451
O22   O     O_2   0.041667 0.655339 0.703258 -0.358401
O23   O     O_2   0.929045 0.676150 0.749111 -0.332812
O24   O     O_3   0.073552 0.739824 0.827348 -0.537200
H80   H     H_    0.039796 0.760729 0.757481 0.375903

loop_
_geom_bond_atom_site_label_1
_geom_bond_atom_site_label_2
_ccdc_geom_bond_type
C68   C80   A    
C38   C87   A    
C71   H47   S    
C6    H66   S    
N16   Ni3   S    
C58   C62   A    
C65   C79   A    
N7    Ni7   S    
C63   C88   S    
C98   N22   A    
C69   H45   S    
C37   C88   A    
S3    O7    D    
C18   C50   S    
C41   C61   A    
C57   H33   S    
C77   H51   S    
C13   C79   S    
C53   C59   A    
S3    O9    S    
C78   H52   S    
O24   H80   S    
C54   C60   A    
N9    N10   A    
C78   C90   A    
C83   C92   A    
C21   C31   S    
S6    O18   S    
C1    N1    A    
C50   C54   A    
C4    N4    A    
C82   N14   A    
C3    C87   A    
C34   C40   S    
N1    N6    A    
C11   N31   A    
N27   Ni8   S    
C81   H53   S    
C9    S5    S    
C35   C86   A    
C65   C69   A    
C47   H27   S    
C83   H55   S    
C30   H19   S    
C2    H2    S    
C10   C17   A    
C41   H21   S    
S7    O19   D    
C99   N23   A    
C11   S7    S    
O15   H77   S    
N6    Ni6   S    
O18   H78   S    
N5    Ni5   S    
N8    Ni8   S    
N26   Ni5   S    
C36   H42   S    
C7    H67   S    
N25   Ni6   S    
C28   H16   S    
C16   C34   S    
O21   H79   S    
S2    O5    D    
C33   C39   S    
N4    N7    A    
N13   N14   A    
N3    Ni3   S    
N17   Ni1   S    
S7    O20   D    
N30   Ni1   S    
C66   H38   S    
N15   Ni4   S    
N29   Ni2   S    
S5    O14   D    
C69   C73   A    
C70   H46   S    
C23   C27   S    
C67   H39   S    
S5    O13   D    
C26   H10   S    
C64   C87   S    
C51   C55   A    
C14   C96   A    
S8    O24   S    
C95   N19   A    
C76   C89   A    
C65   H37   S    
C100  N24   A    
C27   H11   S    
C94   H58   S    
N21   N22   A    
N20   Ni4   S    
C83   N15   A    
C38   H44   S    
C15   C97   A    
C76   N10   A    
S4    O11   D    
S4    O10   D    
C98   H62   S    
N18   Ni2   S    
C35   N5    A    
S1    O2    D    
C27   C34   S    
C1    C85   A    
C6    C18   A    
C62   C85   S    
S6    O17   D    
C77   C90   A    
N28   Ni7   S    
C8    H68   S    
S8    O23   D    
C39   S1    S    
C40   S3    S    
C43   C63   A    
N19   N20   A    
C36   N6    A    
O3    H73   S    
C72   C74   A    
C22   C31   S    
C45   H25   S    
C6    N26   A    
C16   C100  A    
C54   H30   S    
C47   C51   A    
C44   C46   A    
N11   Ni8   S    
S1    O1    D    
C29   H17   S    
C11   C20   A    
C44   H24   S    
N10   Ni5   S    
C44   C64   A    
C82   C91   A    
C13   C93   A    
N9    Ni6   S    
N24   Ni8   S    
C40   S4    S    
C42   C48   A    
N11   N12   A    
C24   C32   S    
N23   Ni7   S    
O6    H74   S    
C66   C79   A    
C25   H13   S    
N22   Ni6   S    
C43   C45   A    
C26   C33   S    
N21   Ni5   S    
C58   H34   S    
N32   Ni3   S    
C76   H50   S    
C68   C72   A    
S7    O21   S    
C23   H7    S    
C29   C39   S    
C70   C73   A    
C45   C49   A    
C41   C47   A    
C30   C40   S    
N25   N30   A    
C100  H64   S    
C8    C20   A    
C81   C91   A    
C93   H57   S    
C10   N30   A    
N2    N5    A    
C22   H70   S    
C9    N29   A    
C35   H41   S    
C24   H8    S    
C22   H6    S    
C96   H60   S    
C10   S6    S    
C7    C19   A    
C14   C80   S    
C55   C57   A    
C43   H23   S    
N4    Ni4   S    
N27   N32   A    
C99   H63   S    
C84   N16   A    
C53   H29   S    
C29   H18   S    
C15   C98   A    
C17   C49   S    
C75   N9    A    
C68   H40   S    
C1    H1    S    
C14   C95   A    
S8    O22   D    
C42   H22   S    
S2    O6    S    
C3    N3    A    
C94   N18   A    
S1    O3    S    
C3    H3    S    
C26   H14   S    
C21   C25   S    
S6    O16   D    
C95   H59   S    
C93   N17   A    
C56   H32   S    
N14   Ni1   S    
N19   Ni3   S    
C59   C63   A    
N13   Ni2   S    
C46   H26   S    
C37   H43   S    
C67   C80   A    
C24   C28   S    
C31   C91   S    
C78   N12   A    
C15   C33   S    
C60   H36   S    
C71   C74   A    
C5    N25   A    
S3    O8    D    
C16   C99   A    
C57   C61   A    
N3    N8    A    
C4    C88   A    
C72   H48   S    
C25   H9    S    
C36   C85   A    
N31   Ni4   S    
C46   C50   A    
C55   H31   S    
C37   N7    A    
C13   C94   A    
C60   C64   A    
C23   C32   S    
C96   N20   A    
C39   S2    S    
C73   C89   S    
N12   Ni7   S    
C20   C52   S    
C12   S8    S    
C2    N2    A    
C30   C32   S    
C84   H56   S    
C74   C90   S    
S2    O4    D    
C32   C92   S    
C30   H20   S    
C48   H28   S    
C75   H49   S    
N28   N31   A    
C21   H69   S    
C4    H4    S    
C12   C19   A    
C59   H35   S    
C77   N11   A    
C38   N8    A    
C56   C58   A    
C2    C86   A    
N26   N29   A    
C67   C71   A    
C5    H65   S    
C12   N32   A    
C7    N27   A    
N17   N18   A    
C24   H72   S    
S5    O15   S    
C49   C53   A    
C8    N28   A    
C61   C86   S    
C75   C89   A    
C28   C34   S    
N23   N24   A    
C82   H54   S    
C19   C51   S    
C9    C18   A    
N15   N16   A    
C5    C17   A    
C66   C70   A    
C29   C31   S    
O9    H75   S    
C22   C26   S    
C97   N21   A    
O12   H76   S    
N2    Ni2   S    
N1    Ni1   S    
C84   C92   A    
C42   C62   A    
C48   C52   A    
C25   C33   S    
C28   H12   S    
S4    O12   S    
C21   H5    S    
C52   C56   A    
C97   H61   S    
C81   N13   A    
C23   H71   S    
C27   H15   S    
