data_mof_unit_13498.cif
_audit_creation_date              2013-03-05T15:42:03-0500
_audit_creation_method            fapswitch 2.2
_symmetry_space_group_name_H-M    P1
_symmetry_Int_Tables_number       1
_space_group_crystal_system       triclinic
_cell_length_a                    27.789976
_cell_length_b                    8.674405
_cell_length_c                    7.497561
_cell_angle_alpha                 103.190068
_cell_angle_beta                  94.68471
_cell_angle_gamma                 93.904455
_cell_volume                      1746.79422696

loop_
_atom_site_label
_atom_site_type_symbol
_atom_site_description
_atom_site_fract_x
_atom_site_fract_y
_atom_site_fract_z
_atom_type_partial_charge
O1    O     O_R   0.503500 0.286120 0.619780 -0.533760
O2    O     O_R   0.496500 0.713880 0.380220 -0.533764
O3    O     O_R   0.494410 0.256780 0.308360 -0.606287
O4    O     O_R   0.505590 0.743220 0.691640 -0.606287
C1    C     C_R   0.496179 0.199434 0.453755 0.835922
C2    C     C_R   0.503821 0.800566 0.546245 0.835920
O5    O     O_R   0.434810 0.514700 0.655690 -0.567345
O6    O     O_R   0.565190 0.485300 0.344310 -0.567348
O7    O     O_R   0.425720 0.485350 0.344280 -0.563628
O8    O     O_R   0.574280 0.514650 0.655720 -0.563612
C3    C     C_R   0.407595 0.500205 0.501580 0.843488
C4    C     C_R   0.592405 0.499796 0.498420 0.843501
Cu1   Cu    Cu3+1 0.505380 0.517380 0.684380 1.055755
Cu2   Cu    Cu3+1 0.494620 0.482620 0.315620 1.055742
C5    C     C_R   0.176526 0.376461 0.547967 0.601273
C6    C     C_R   0.823476 0.623566 0.452039 0.601306
O9    O     O_2   0.199478 0.252466 0.582194 -0.504798
O10   O     O_2   0.800525 0.747567 0.417827 -0.504785
N1    N     N_R   0.202598 0.503957 0.513328 -0.450766
N2    N     N_R   0.797403 0.496067 0.486673 -0.450781
C7    C     C_R   0.180496 0.630848 0.476520 0.542133
C8    C     C_R   0.819505 0.369172 0.523468 0.541922
C9    C     C_R   0.283988 0.528130 0.678680 0.545091
C10   C     C_R   0.716013 0.471975 0.321338 0.545043
C11   C     C_R   0.334259 0.523811 0.673951 -0.282901
C12   C     C_R   0.665743 0.476267 0.326061 -0.282734
C13   C     C_R   0.324465 0.481881 0.341265 -0.189056
C14   C     C_R   0.675534 0.518070 0.658733 -0.188912
C15   C     C_R   0.274494 0.481890 0.344877 -0.188494
C16   C     C_R   0.725506 0.518066 0.655123 -0.188386
C17   C     C_R   0.254119 0.503689 0.512486 0.266803
C18   C     C_R   0.745882 0.496337 0.487522 0.266647
C19   C     C_R   0.102234 0.502408 0.507881 -0.042239
C20   C     C_R   0.897767 0.497611 0.492107 -0.042237
C21   C     C_R   0.125946 0.373605 0.546624 -0.037077
C22   C     C_R   0.874055 0.626418 0.453373 -0.037093
C23   C     C_R   0.098842 0.244710 0.582380 -0.153415
C24   C     C_R   0.901159 0.755314 0.417617 -0.153429
C25   C     C_R   0.129974 0.632224 0.472567 -0.017332
C26   C     C_R   0.870028 0.367794 0.527417 -0.017291
C27   C     C_R   0.354790 0.502029 0.505664 -0.095294
C28   C     C_R   0.645211 0.497981 0.494339 -0.095427
H1    H     H_    0.339243 0.464927 0.209572 0.199271
H2    H     H_    0.660755 0.534968 0.790419 0.199328
H3    H     H_    0.251406 0.464359 0.217079 0.195279
H4    H     H_    0.748593 0.535550 0.782915 0.195279
H5    H     H_    0.116236 0.144433 0.613135 0.184050
H6    H     H_    0.883765 0.855593 0.386868 0.184040
C29   C     C_R   0.972309 0.367775 0.536085 0.043549
C30   C     C_R   0.027693 0.632243 0.463896 0.043547
C31   C     C_R   0.976405 0.630953 0.459713 0.045559
C32   C     C_R   0.023596 0.369066 0.540272 0.045559
C33   C     C_R   0.949059 0.498758 0.495910 0.070958
C34   C     C_R   0.050942 0.501260 0.504074 0.070965
C35   C     C_R   0.943120 0.239472 0.570812 -0.214764
C36   C     C_R   0.056881 0.760543 0.429163 -0.214757
C37   C     C_R   0.893125 0.239789 0.566284 -0.144325
C38   C     C_R   0.106876 0.760227 0.433693 -0.144298
O11   O     O_2   0.792605 0.244609 0.555583 -0.534643
O12   O     O_2   0.207396 0.755406 0.444395 -0.534582
C39   C     C_R   0.048811 0.242208 0.579620 -0.208824
C40   C     C_R   0.951191 0.757813 0.420371 -0.208820
H7    H     H_    0.642956 0.463178 0.198382 0.187872
H8    H     H_    0.357052 0.536918 0.801620 0.187805
H9    H     H_    0.872590 0.138659 0.594228 0.192877
H10   H     H_    0.127411 0.861355 0.405745 0.192878
H11   H     H_    0.957472 0.135835 0.602620 0.137354
H12   H     H_    0.042529 0.864178 0.397350 0.137354
H13   H     H_    0.031222 0.137989 0.609376 0.134234
H14   H     H_    0.968780 0.862032 0.390617 0.134230
C41   C     C_2   0.487908 0.030497 0.436455 0.215312
C42   C     C_2   0.512091 0.969503 0.563546 0.215311
N3    N     N_2   0.486510 0.456430 0.038510 0.051990
N4    N     N_2   0.513490 0.543570 0.961490 0.051994
Br1   Br    Br    0.436525 0.308591 0.903206 -0.453264
Br2   Br    Br    0.563474 0.691414 0.096796 -0.453236
O13   O     O_3   0.736867 0.455168 0.157245 -0.576984
C43   C     C_3   0.723402 0.301105 0.046520 -0.296011
H15   H     H_    0.684822 0.288645 0.988819 0.162968
H16   H     H_    0.730380 0.207563 0.123176 0.186080
H17   H     H_    0.745749 0.281312 0.928692 0.225520
O14   O     O_3   0.263123 0.545011 0.842768 -0.576952
C44   C     C_3   0.276737 0.698870 0.953793 -0.295910
H18   H     H_    0.269991 0.792678 0.877288 0.185913
H19   H     H_    0.315275 0.710691 0.011836 0.162958
H20   H     H_    0.254313 0.718888 0.071392 0.225580
O15   O     O_3   0.446528 0.946116 0.332664 -0.606973
C45   C     C_3   0.449173 0.937142 0.143670 -0.204733
H21   H     H_    0.486389 0.921404 0.102105 0.165818
H22   H     H_    0.435085 0.043211 0.106053 0.199002
H23   H     H_    0.425471 0.831805 0.063786 0.184696
O16   O     O_3   0.553469 0.053885 0.667345 -0.606959
C46   C     C_3   0.550821 0.062861 0.856337 -0.204683
H24   H     H_    0.564910 0.956797 0.893962 0.198997
H25   H     H_    0.513603 0.078589 0.897890 0.165803
H26   H     H_    0.574520 0.168204 0.936227 0.184719

loop_
_geom_bond_atom_site_label_1
_geom_bond_atom_site_label_2
_geom_bond_distance
_ccdc_geom_bond_type
O15   C45   1.409528 S    
C46   H24   1.108519 S    
C9    O14   1.384588 S    
C13   C15   1.391177 A    
N3    N4    1.288305 D    
O7    Cu2   1.945246 S    
N1    C17   1.432450 S    
O13   C43   1.410680 S    
O5    C3    1.304173 A    
C19   C25   1.408392 A    
N4    Br2   1.880636 S    
O1    C1    1.291099 A    
C21   C23   1.394426 A    
C10   C12   1.403151 A    
C32   C39   1.417156 A    
C42   O16   1.393898 S    
C43   H16   1.114622 S    
C40   H14   1.075006 S    
C14   C28   1.404272 A    
O4    Cu1   1.946923 S    
C4    C28   1.471367 S    
C38   H10   1.083666 S    
C23   H5    1.083534 S    
C24   H6    1.083533 S    
C6    N2    1.366844 A    
C46   H25   1.112601 S    
Cu1   Cu2   2.701237 S    
N3    Br1   1.880637 S    
O2    C2    1.291099 A    
C31   C40   1.417157 A    
C5    C21   1.403320 A    
C32   C34   1.422378 A    
Cu2   N3    2.029820 S    
C7    O12   1.349975 S    
O4    C2    1.296246 A    
C11   C27   1.405940 A    
C8    O11   1.349975 S    
C43   H15   1.111504 S    
C2    C42   1.442097 S    
C25   C38   1.394276 A    
C14   H2    1.083225 S    
C30   C36   1.417113 A    
C15   H3    1.082911 S    
C31   C33   1.422378 A    
C11   H8    1.082523 S    
C9    C17   1.404667 A    
C5    N1    1.366840 A    
C12   H7    1.082536 S    
C10   C18   1.404671 A    
C13   C27   1.404261 A    
C23   C39   1.387459 A    
C44   H18   1.114696 S    
C7    C25   1.402835 A    
C45   H23   1.109653 S    
O6    C4    1.304177 A    
C29   C32   1.422285 A    
C8    C26   1.402835 A    
C30   C31   1.422288 A    
C30   C34   1.422499 A    
Cu1   N4    2.029819 S    
O7    C3    1.302972 A    
O3    Cu2   1.946923 S    
O8    C4    1.302973 A    
C41   O15   1.393900 S    
C6    O10   1.349889 S    
C44   H19   1.111492 S    
C45   H22   1.108518 S    
C46   H26   1.109650 S    
C35   C37   1.387222 A    
C20   C26   1.408392 A    
O1    Cu1   1.949285 S    
N2    C8    1.366747 A    
C12   C28   1.405934 A    
N2    C18   1.432452 S    
C39   H13   1.075006 S    
C19   C34   1.422670 A    
C5    O9    1.349891 S    
O6    Cu2   1.953325 S    
C26   C37   1.394275 A    
N1    C7    1.366741 A    
C16   H4    1.082901 S    
C37   H9    1.083667 S    
O3    C1    1.296247 A    
O8    Cu1   1.945249 S    
C35   H11   1.074830 S    
C36   H12   1.074830 S    
C14   C16   1.391186 A    
C41   C42   1.346633 D    
C15   C17   1.399254 A    
C29   C35   1.417114 A    
C6    C22   1.403316 A    
C16   C18   1.399253 A    
C43   H17   1.109281 S    
C29   C33   1.422500 A    
C22   C24   1.394429 A    
O16   C46   1.409529 S    
C19   C21   1.408559 A    
C36   C38   1.387221 A    
C3    C27   1.471363 S    
C20   C22   1.408558 A    
C9    C11   1.403215 A    
O2    Cu2   1.949285 S    
C13   H1    1.083225 S    
C10   O13   1.384500 S    
O5    Cu1   1.953325 S    
C44   H20   1.109284 S    
C45   H21   1.112602 S    
C20   C33   1.422669 A    
C1    C41   1.442099 S    
O14   C44   1.410705 S    
C24   C40   1.387455 A    
