data_mof_unit_16793.cif
_audit_creation_date              2012-12-10T20:44:42-0500
_audit_creation_method            fapswitch 2.2
_symmetry_space_group_name_H-M    P1
_symmetry_Int_Tables_number       1
_space_group_crystal_system       triclinic
_cell_length_a                    9.876551
_cell_length_b                    10.707243
_cell_length_c                    16.656756
_cell_angle_alpha                 88.93161
_cell_angle_beta                  94.550124
_cell_angle_gamma                 89.371734
_cell_volume                      1755.46877639

loop_
_atom_site_label
_atom_site_type_symbol
_atom_type_description
_atom_site_fract_x
_atom_site_fract_y
_atom_site_fract_z
_atom_type_partial_charge
C1    C     C_R   0.500729 0.260440 0.501394 0.912635
C2    C     C_R   0.641678 0.478769 0.788746 -0.204388
C3    C     C_R   0.571009 0.642364 0.148663 -0.008079
C4    C     C_R   0.580290 0.602946 0.229155 -0.176381
C5    C     C_R   0.451994 0.614748 0.099870 0.211716
C6    C     C_R   0.471727 0.541023 0.261275 -0.097672
C7    C     C_R   0.350331 0.523766 0.213885 -0.191413
C8    C     C_R   0.340862 0.560507 0.133333 -0.131688
C9    C     C_R   0.595020 0.062053 0.463742 0.019993
C10   C     C_R   0.499630 0.128808 0.502716 -0.086301
C11   C     C_R   0.394730 0.067240 0.538310 -0.159435
C12   C     C_R   0.517569 0.500807 0.653638 0.866706
C13   C     C_R   0.394298 0.937551 0.542868 -0.029743
C14   C     C_R   0.496820 0.871460 0.505516 -0.148486
C15   C     C_R   0.590359 0.935163 0.462170 0.082430
C16   C     C_3   0.741817 0.921827 0.462683 -0.549276
C17   C     C_3   0.747700 0.064232 0.466799 -0.051368
C18   C     C_R   0.078852 0.419488 0.549420 0.230775
C19   C     C_R   0.062140 0.571696 0.445444 -0.005559
C20   C     C_R   0.918198 0.570327 0.445981 -0.058717
C21   C     C_R   0.936462 0.419819 0.549535 0.270447
C22   C     C_3   0.942970 0.415264 0.639226 -0.527217
C23   C     C_R   0.499589 0.739402 0.503613 0.851796
C24   C     C_3   0.096529 0.414517 0.639126 -0.509943
C25   C     C_R   0.482266 0.507324 0.346425 0.876980
C26   C     C_R   0.526331 0.517607 0.740046 -0.028578
C27   C     C_R   0.418110 0.576969 0.773915 -0.235371
C28   C     C_R   0.423247 0.595021 0.855928 -0.145713
C29   C     C_R   0.537531 0.553562 0.905600 0.312412
C30   C     C_R   0.646534 0.496109 0.871501 -0.174495
H1    H     H_    0.671414 0.622475 0.267251 0.202345
H2    H     H_    0.772492 0.882728 0.405320 0.204762
H3    H     H_    0.902547 0.326710 0.662912 0.238666
H4    H     H_    0.144730 0.325318 0.662370 0.218835
H5    H     H_    0.734329 0.463148 0.909404 0.151721
H6    H     H_    0.249538 0.540378 0.095646 0.160137
H7    H     H_    0.319324 0.120376 0.567703 0.191193
N1    N     N_2   0.542117 0.559321 0.990258 -0.198632
N2    N     N_2   0.448430 0.622541 0.015627 -0.214485
N3    N     N_R   0.142860 0.499130 0.500540 -0.158773
N4    N     N_R   0.857210 0.499170 0.500530 -0.129786
O1    O     O_R   0.614690 0.316790 0.499990 -0.579959
O2    O     O_R   0.385350 0.316760 0.500000 -0.619891
O3    O     O_R   0.627460 0.498860 0.616130 -0.614441
O4    O     O_R   0.398120 0.498820 0.616130 -0.630819
O5    O     O_R   0.614650 0.683240 0.500000 -0.611071
O6    O     O_R   0.385310 0.683210 0.500010 -0.673588
O7    O     O_R   0.601880 0.501180 0.383870 -0.609548
O8    O     O_R   0.372540 0.501140 0.383870 -0.639878
Zn1   Zn    Zn3+2 0.653130 0.500020 0.499990 0.982629
Zn2   Zn    Zn3+2 0.346870 0.499980 0.500010 0.938134
C31   C     C_2   0.295312 0.875713 0.593064 0.414656
H8    H     H_    0.315325 0.782817 0.618519 0.077766
O9    O     O_2   0.190565 0.929211 0.607886 -0.590279
H9    H     H_    0.787329 0.871356 0.517523 0.227388
C32   C     C_2   0.820464 0.105915 0.545294 0.517463
H10   H     H_    0.930078 0.115644 0.549493 0.099220
O10   O     O_2   0.759220 0.124834 0.604878 -0.594924
C33   C     C_2   0.796278 0.126022 0.392210 0.386478
H11   H     H_    0.755417 0.097191 0.333080 0.092326
O11   O     O_2   0.880288 0.208972 0.396971 -0.577234
C34   C     C_2   0.121085 0.655654 0.386022 0.417835
H12   H     H_    0.227332 0.675977 0.389355 0.139327
O12   O     O_2   0.049198 0.705556 0.331241 -0.563194
H13   H     H_    0.854739 0.628913 0.404431 0.180013
H14   H     H_    0.901744 0.501663 0.664760 0.217572
H15   H     H_    0.143240 0.500335 0.664868 0.217895
C35   C     C_2   0.684435 0.711848 0.115905 0.411306
H16   H     H_    0.673292 0.751538 0.055302 0.086049
O13   O     O_2   0.791429 0.726664 0.156426 -0.536024
H17   H     H_    0.726133 0.433046 0.763181 0.161295
H18   H     H_    0.264304 0.479398 0.238575 0.180897
H19   H     H_    0.336617 0.639133 0.880230 0.159046
H20   H     H_    0.329489 0.610339 0.736951 0.151508

loop_
_geom_bond_atom_site_label_1
_geom_bond_atom_site_label_2
_ccdc_geom_bond_type
C14   C23   S    
C29   N1    S    
C5    C8    A    
C34   O12   D    
C34   H12   S    
C18   C24   S    
C32   O10   D    
C16   H2    S    
C13   C31   S    
C1    O2    A    
C9    C10   A    
C1    O1    A    
C19   C20   A    
C17   C32   S    
C2    C30   A    
C7    H18   S    
C27   H20   S    
O7    Zn1   S    
C20   N4    A    
C9    C15   A    
C16   H9    S    
C33   H11   S    
C2    C26   A    
C23   O5    A    
C13   C14   A    
C32   H10   S    
C18   C21   A    
C6    C25   S    
C11   C13   A    
C25   O7    A    
O2    Zn2   S    
C26   C27   A    
C6    C7    A    
C2    H17   S    
C30   H5    S    
C17   C33   S    
C21   N4    A    
C28   H19   S    
C9    C17   S    
C28   C29   A    
O1    Zn1   S    
C12   O4    A    
C5    N2    S    
C8    H6    S    
N1    N2    D    
C22   C24   S    
C33   O11   D    
C4    H1    S    
C23   O6    A    
C19   N3    A    
O4    Zn2   S    
C19   C34   S    
C29   C30   A    
C15   C16   S    
N3    Zn2   S    
C3    C5    A    
N4    Zn1   S    
C7    C8    A    
C18   N3    A    
C31   H8    S    
C3    C4    A    
O3    Zn1   S    
C35   O13   D    
C4    C6    A    
C10   C11   A    
C12   C26   S    
C27   C28   A    
C11   H7    S    
C22   H3    S    
O5    Zn1   S    
C14   C15   A    
C12   O3    A    
O6    Zn2   S    
C24   H15   S    
O8    Zn2   S    
C21   C22   S    
C35   H16   S    
C22   H14   S    
C1    C10   S    
C3    C35   S    
C31   O9    D    
C16   C17   S    
C20   H13   S    
C25   O8    A    
C24   H4    S    
