data_mof_unit_37586.cif
_audit_creation_date              2012-10-26T19:21:55-0400
_audit_creation_method            fapswitch 2.2
_symmetry_space_group_name_H-M    P1
_symmetry_Int_Tables_number       1
_space_group_crystal_system       triclinic
_cell_length_a                    23.516318
_cell_length_b                    11.041976
_cell_length_c                    9.907035
_cell_angle_alpha                 111.843045
_cell_angle_beta                  98.937941
_cell_angle_gamma                 90.313827
_cell_volume                      2353.21627261

loop_
_atom_site_label
_atom_site_type_symbol
_atom_type_description
_atom_site_fract_x
_atom_site_fract_y
_atom_site_fract_z
_atom_type_partial_charge
C1    C     C_R   0.495511 0.253874 0.440138 0.556563
C2    C     C_R   0.697997 0.587703 0.452849 -0.051857
C3    C     C_R   0.242485 0.412251 0.546866 -0.066689
C4    C     C_R   0.757335 0.588381 0.452422 -0.067136
C5    C     C_R   0.209763 0.501614 0.504985 0.218007
C6    C     C_R   0.790295 0.500075 0.495681 0.218477
C7    C     C_2   0.493096 0.113816 0.406392 -0.130049
C8    C     C_2   0.506805 0.886175 0.593551 -0.129705
C9    C     C_2   0.500707 0.069716 0.516004 -0.148663
C10   C     C_2   0.499111 0.930246 0.483913 -0.150522
C11   C     C_2   0.498065 0.523753 0.086196 -0.012880
C12   C     C_R   0.504458 0.746126 0.559856 0.556249
C13   C     C_2   0.489736 0.504701 0.920972 -0.012205
C14   C     C_R   0.391302 0.501881 0.500966 0.550696
C15   C     C_R   0.608709 0.498258 0.499101 0.550835
C16   C     C_R   0.886464 0.600931 0.598695 0.396117
C17   C     C_R   0.113549 0.401134 0.401535 0.396408
C18   C     C_R   0.872398 0.399581 0.389786 0.392168
C19   C     C_R   0.127630 0.602334 0.610644 0.392120
C20   C     C_R   0.932722 0.394681 0.388577 0.035775
C21   C     C_R   0.067293 0.607394 0.611635 0.035980
C22   C     C_R   0.969712 0.499763 0.497567 -0.046930
C23   C     C_R   0.236334 0.592147 0.462675 -0.048383
C24   C     C_R   0.030299 0.502349 0.502604 -0.046910
C25   C     C_R   0.946171 0.602809 0.602060 0.012818
C26   C     C_R   0.053839 0.399317 0.398097 0.012760
C27   C     C_R   0.957832 0.290832 0.284197 0.002382
C28   C     C_R   0.042176 0.711341 0.715884 0.002445
C29   C     C_R   0.017753 0.295912 0.291368 -0.114665
C30   C     C_R   0.982253 0.706275 0.708701 -0.114719
C31   C     C_3   0.924226 0.170906 0.164491 -0.234564
C32   C     C_3   0.907905 0.070776 0.227227 -0.392999
C33   C     C_3   0.075777 0.831396 0.835386 -0.234548
C34   C     C_R   0.763995 0.410296 0.539539 -0.049052
C35   C     C_3   0.092255 0.931118 0.772257 -0.392889
C36   C     C_3   0.569876 0.651898 0.969136 -0.118877
C37   C     C_3   0.617655 0.696069 0.906453 -0.345162
C38   C     C_3   0.431581 0.344924 0.029767 -0.115330
C39   C     C_3   0.410570 0.238457 0.077054 -0.347468
C40   C     C_3   0.322658 0.700749 0.423579 -0.279132
C41   C     C_3   0.352334 0.812300 0.562570 -0.418787
C42   C     C_3   0.678030 0.302231 0.580812 -0.280873
C43   C     C_3   0.648155 0.189633 0.443163 -0.415394
C44   C     C_1   0.333795 0.316628 0.587883 0.190109
C45   C     C_R   0.295833 0.594974 0.461663 -0.024345
C46   C     C_1   0.665793 0.682703 0.410216 0.194104
C47   C     C_R   0.704500 0.407022 0.540534 -0.028479
C48   C     C_R   0.328971 0.503292 0.502835 0.006668
C49   C     C_R   0.671071 0.497399 0.497537 0.004412
C50   C     C_R   0.301817 0.412460 0.546333 -0.053441
Cu1   Cu    Cu3+1 0.509980 0.521810 0.644910 0.929238
Cu2   Cu    Cu3+1 0.490020 0.478190 0.355090 0.931899
H1    H     H_    0.036587 0.216564 0.212636 0.157673
H2    H     H_    0.485451 0.046496 0.291718 0.091800
H3    H     H_    0.453388 0.443331 0.845142 0.151188
H4    H     H_    0.525934 0.604859 0.166966 0.147388
H5    H     H_    0.947549 0.033368 0.270380 0.138858
H6    H     H_    0.883006 0.114007 0.318193 0.193628
H7    H     H_    0.881360 0.987209 0.138559 0.157828
H8    H     H_    0.886241 0.197490 0.102609 0.204496
H9    H     H_    0.950688 0.121227 0.078286 0.116734
H10   H     H_    0.118774 0.014801 0.860818 0.158226
H11   H     H_    0.117234 0.887564 0.681528 0.193495
H12   H     H_    0.963413 0.785662 0.787366 0.157600
H13   H     H_    0.052675 0.968438 0.728674 0.138898
H14   H     H_    0.049269 0.881415 0.921358 0.116723
H15   H     H_    0.113689 0.804917 0.897612 0.204724
H16   H     H_    0.645663 0.615086 0.861920 0.162908
H17   H     H_    0.601162 0.739173 0.825190 0.192515
H18   H     H_    0.645796 0.774370 0.998271 0.103846
H19   H     H_    0.549082 0.740372 0.033574 0.117111
H20   H     H_    0.593754 0.610139 0.045920 0.127958
H21   H     H_    0.445473 0.173168 0.085556 0.153654
H22   H     H_    0.391589 0.277784 0.178556 0.196397
H23   H     H_    0.210301 0.661677 0.432315 0.124286
H24   H     H_    0.375638 0.175989 0.989053 0.101842
H25   H     H_    0.393197 0.393512 0.998700 0.127921
H26   H     H_    0.449955 0.289277 0.929167 0.116617
H27   H     H_    0.386965 0.776295 0.624734 0.163041
H28   H     H_    0.371762 0.888070 0.531619 0.157498
H29   H     H_    0.320421 0.857764 0.635051 0.167167
H30   H     H_    0.353690 0.660424 0.347128 0.177817
H31   H     H_    0.289017 0.742189 0.364543 0.141618
H32   H     H_    0.628904 0.114769 0.475793 0.156813
H33   H     H_    0.613362 0.224755 0.380483 0.163197
H34   H     H_    0.790243 0.341675 0.571110 0.124000
H35   H     H_    0.679914 0.143349 0.370540 0.167328
H36   H     H_    0.711899 0.261608 0.640218 0.141433
H37   H     H_    0.647236 0.343298 0.657729 0.176229
H38   H     H_    0.221425 0.342628 0.579803 0.134075
H39   H     H_    0.778213 0.657542 0.418488 0.133176
H40   H     H_    0.491405 0.863118 0.369071 0.155962
H41   H     H_    0.508385 0.136834 0.630849 0.160761
H42   H     H_    0.514464 0.953523 0.708212 0.096771
N1    N     N_R   0.851222 0.500591 0.494234 -0.392435
N2    N     N_R   0.148810 0.501333 0.506182 -0.392404
N3    N     N_2   0.475010 0.445410 0.137370 -0.223798
N4    N     N_2   0.524990 0.554590 0.862630 -0.224994
N5    N     N_1   0.359426 0.239948 0.621097 -0.334132
N6    N     N_1   0.639984 0.758752 0.376198 -0.335683
O1    O     O_R   0.505330 0.332340 0.577400 -0.488387
O2    O     O_2   0.136403 0.303806 0.300129 -0.512370
O3    O     O_2   0.834579 0.306007 0.287969 -0.526355
O4    O     O_2   0.165455 0.695694 0.712757 -0.526780
O5    O     O_R   0.494670 0.667660 0.422600 -0.498159
O6    O     O_R   0.488470 0.295500 0.332650 -0.508522
O7    O     O_R   0.511530 0.704500 0.667350 -0.506039
O8    O     O_R   0.426310 0.518390 0.622390 -0.493815
O9    O     O_R   0.573690 0.481610 0.377610 -0.482298
O10   O     O_R   0.409450 0.481550 0.377650 -0.510607
O11   O     O_R   0.590550 0.518450 0.622350 -0.514713
O12   O     O_2   0.863595 0.698316 0.699997 -0.513283

loop_
_geom_bond_atom_site_label_1
_geom_bond_atom_site_label_2
_ccdc_geom_bond_type
C23   C45   A    
C37   H17   S    
C27   C29   A    
C31   H9    S    
C32   H6    S    
C41   H28   S    
C47   C49   A    
C2    C46   S    
C15   C49   S    
C16   O12   S    
C3    H38   S    
C17   C26   A    
C36   C37   S    
C19   C21   A    
C24   C26   A    
C30   H12   S    
C12   O5    A    
C44   N5    T    
C35   H13   S    
C37   H16   S    
Cu2   N3    S    
C16   C25   A    
C7    C9    D    
C34   H34   S    
C39   H22   S    
C13   N4    D    
C15   O9    A    
Cu1   O8    S    
C22   C25   A    
C9    C10   S    
C36   H19   S    
C1    O6    A    
C42   C47   S    
C4    H39   S    
Cu1   N4    S    
C48   C50   A    
Cu2   O6    S    
C37   H18   S    
C18   N1    A    
C40   H31   S    
C32   H5    S    
C38   N3    S    
C3    C50   A    
C33   H14   S    
C40   C45   S    
C27   C31   S    
Cu1   Cu2   S    
C43   H33   S    
C40   H30   S    
C8    H42   S    
C4    C6    A    
C43   H32   S    
C14   C48   S    
C38   H26   S    
C9    H41   S    
C6    C34   A    
C31   H8    S    
C2    C4    A    
C17   O2    S    
C41   H27   S    
C2    C49   A    
C15   O11   A    
C19   O4    S    
C31   C32   S    
C5    C23   A    
Cu2   O10   S    
C8    C12   S    
C41   H29   S    
C17   N2    A    
C39   H24   S    
C8    C10   D    
C40   C41   S    
C38   H25   S    
C21   C28   A    
C20   C22   A    
C28   C33   S    
C22   C24   A    
C42   H36   S    
C42   C43   S    
C1    O1    A    
C5    N2    S    
C33   H15   S    
C45   C48   A    
C44   C50   S    
C25   C30   A    
C14   O10   A    
C46   N6    T    
C16   N1    A    
Cu1   O11   S    
C1    C7    S    
C23   H23   S    
C3    C5    A    
Cu2   O5    S    
C12   O7    A    
C35   H11   S    
C20   C27   A    
Cu1   O1    S    
C7    H2    S    
C11   N3    D    
C42   H37   S    
C43   H35   S    
C28   C30   A    
C11   C13   S    
C38   C39   S    
C29   H1    S    
Cu2   O9    S    
C14   O8    A    
C33   C35   S    
C35   H10   S    
C18   C20   A    
C18   O3    S    
C39   H21   S    
C11   H4    S    
C10   H40   S    
C26   C29   A    
Cu1   O7    S    
C6    N1    S    
C21   C24   A    
C36   N4    S    
C34   C47   A    
C32   H7    S    
C19   N2    A    
C36   H20   S    
C13   H3    S    
