data_mof_unit_33904.cif
_audit_creation_date              2013-03-05T16:41:05-0500
_audit_creation_method            fapswitch 2.2
_symmetry_space_group_name_H-M    P1
_symmetry_Int_Tables_number       1
_space_group_crystal_system       triclinic
_cell_length_a                    8.596345
_cell_length_b                    10.672678
_cell_length_c                    9.872668
_cell_angle_alpha                 89.680173
_cell_angle_beta                  98.518877
_cell_angle_gamma                 89.916878
_cell_volume                      895.768337718

loop_
_atom_site_label
_atom_site_type_symbol
_atom_site_description
_atom_site_fract_x
_atom_site_fract_y
_atom_site_fract_z
_atom_type_partial_charge
O1    O     O_R   0.500020 0.316790 0.614690 -0.624440
O2    O     O_R   0.500000 0.316760 0.385350 -0.623518
C1    C     C_R   0.500630 0.260321 0.500476 0.923915
O3    O     O_R   0.271760 0.500010 0.587850 -0.568175
O4    O     O_R   0.271740 0.499970 0.358500 -0.615481
C2    C     C_R   0.201471 0.504864 0.464917 1.050236
Zn1   Zn    Zn3+2 0.500010 0.500020 0.653130 1.003071
Zn2   Zn    Zn3+2 0.499990 0.499980 0.346870 0.976128
O5    O     O_R   0.500000 0.683240 0.614650 -0.612917
O6    O     O_R   0.499980 0.683210 0.385310 -0.618316
O7    O     O_R   0.728260 0.500030 0.641500 -0.597176
O8    O     O_R   0.728240 0.499990 0.412150 -0.646135
C3    C     C_R   0.500748 0.739632 0.499731 0.916077
C4    C     C_R   0.798323 0.505809 0.535784 0.910875
C5    C     C_2   0.036666 0.503950 0.448739 -0.380083
H1    H     H_    0.976863 0.471814 0.350204 0.161103
C6    C     C_2   0.961190 0.527762 0.555264 0.123245
C7    C     C_R   0.430520 0.063023 0.595887 -0.019356
C8    C     C_R   0.507545 0.128476 0.503246 -0.028371
C9    C     C_R   0.598540 0.065334 0.418570 -0.167571
H2    H     H_    0.665726 0.115953 0.351459 0.175713
C10   C     C_R   0.598367 0.935612 0.417764 -0.152070
H3    H     H_    0.665817 0.885967 0.350527 0.175110
C11   C     C_R   0.506606 0.871382 0.501161 -0.026236
C12   C     C_R   0.428982 0.935296 0.593576 -0.019128
C13   C     C_3   0.261988 0.927280 0.619804 0.113459
C14   C     C_3   0.264081 0.070452 0.624781 0.066129
H4    H     H_    0.254027 0.883518 0.720990 0.141113
H5    H     H_    0.258198 0.105428 0.729418 0.108711
C15   C     C_R   0.376767 0.449806 0.055732 0.231272
N1    N     N_R   0.498950 0.499140 0.142680 -0.117465
C16   C     C_R   0.614424 0.559739 0.086333 -0.121073
H6    H     H_    0.708391 0.606054 0.152343 0.164182
C17   C     C_R   0.614382 0.559793 0.942380 -0.113243
H7    H     H_    0.708283 0.606132 0.899988 0.183675
N2    N     N_R   0.498950 0.499180 0.857030 -0.118384
C18   C     C_R   0.377067 0.449570 0.913369 0.305527
C19   C     C_3   0.323031 0.317095 0.901829 -0.523698
C20   C     C_3   0.321885 0.317421 0.055468 -0.488604
H8    H     H_    0.203698 0.308867 0.841352 0.236242
H9    H     H_    0.413695 0.253567 0.870404 0.212116
H10   H     H_    0.201789 0.309814 0.083774 0.227698
H11   H     H_    0.410702 0.253163 0.112476 0.226602
Br1   Br    Br    0.047522 0.603924 0.728766 -0.499229
Br2   Br    Br    0.120440 0.851487 0.469244 -0.450236
Br3   Br    Br    0.120947 0.160049 0.484516 -0.501292

loop_
_geom_bond_atom_site_label_1
_geom_bond_atom_site_label_2
_geom_bond_distance
_ccdc_geom_bond_type
O4    Zn2   1.982379 S    
C19   H8    1.111714 S    
C1    C8    1.408254 S    
C18   C19   1.488551 S    
C14   H5    1.108516 S    
Zn1   N2    2.014376 S    
C13   H4    1.111721 S    
N1    C16   1.369149 A    
Zn2   O8    1.972463 S    
C16   H6    1.081828 S    
O2    C1    1.282672 A    
C2    C5    1.402039 S    
C6    Br1   1.945843 S    
O1    Zn1   1.994121 S    
C11   C12   1.388891 A    
Zn1   O7    1.982379 S    
C4    C6    1.404892 S    
C13   C14   1.529136 S    
O4    C2    1.288393 A    
C7    C12   1.363559 A    
O3    Zn1   1.972464 S    
C14   Br3   1.955245 S    
O3    C2    1.273864 A    
N2    C18   1.363259 A    
O8    C4    1.280533 A    
C15   C20   1.490128 S    
C17   H7    1.081791 S    
C20   H10   1.111747 S    
C17   N2    1.368721 A    
C15   N1    1.362649 A    
O7    C4    1.281208 A    
C10   C11   1.399193 A    
C5    H1    1.088275 S    
C19   C20   1.518348 S    
C9    H2    1.083831 S    
C15   C18   1.405901 A    
C19   H9    1.111684 S    
Zn2   O6    1.994120 S    
C7    C8    1.391602 A    
Zn1   O5    1.989924 S    
O5    C3    1.282199 A    
C10   H3    1.083807 S    
C20   H11   1.112153 S    
C13   Br2   1.955715 S    
C12   C13   1.498463 S    
C5    C6    1.340244 D    
Zn2   N1    2.014665 S    
O2    Zn2   1.989923 S    
C7    C14   1.501862 S    
C8    C9    1.401199 A    
C3    C11   1.407174 S    
C9    C10   1.384552 A    
O1    C1    1.282202 A    
O6    C3    1.282240 A    
C16   C17   1.421134 A    
