data_mof_unit_45755.cif
_audit_creation_date              2012-12-10T20:41:53-0500
_audit_creation_method            fapswitch 2.2
_symmetry_space_group_name_H-M    P1
_symmetry_Int_Tables_number       1
_space_group_crystal_system       triclinic
_cell_length_a                    15.090826
_cell_length_b                    15.090583
_cell_length_c                    9.876413
_cell_angle_alpha                 89.024107
_cell_angle_beta                  89.564954
_cell_angle_gamma                 89.501105
_cell_volume                      2248.67540547

loop_
_atom_site_label
_atom_site_type_symbol
_atom_type_description
_atom_site_fract_x
_atom_site_fract_y
_atom_site_fract_z
_atom_type_partial_charge
C1    C     C_R   0.382299 0.878101 0.501110 0.896186
C2    C     C_R   0.923010 0.488081 0.071714 0.146331
C3    C     C_R   0.576981 0.003230 0.070968 -0.119552
C4    C     C_R   0.076981 0.503233 0.070968 -0.119552
C5    C     C_R   0.576943 0.004433 0.927027 -0.103662
C6    C     C_R   0.076942 0.504435 0.927027 -0.103662
C7    C     C_R   0.423488 0.984377 0.929453 0.189487
C8    C     C_R   0.923488 0.484374 0.929453 0.189488
C9    C     C_3   0.338862 0.035382 0.917258 -0.577924
C10   C     C_3   0.838861 0.535376 0.917258 -0.577926
C11   C     C_3   0.341186 0.045291 0.070576 -0.088235
C12   C     C_R   0.380619 0.120163 0.500044 0.896809
C13   C     C_3   0.841184 0.545284 0.070577 -0.088235
C14   C     C_R   0.621189 0.119080 0.498134 0.860209
C15   C     C_R   0.621516 0.881996 0.500429 0.852294
C16   C     C_R   0.121189 0.619080 0.498134 0.860209
C17   C     C_R   0.121516 0.381997 0.500429 0.852294
C18   C     C_R   0.247600 0.183287 0.591433 0.097676
C19   C     C_R   0.286517 0.774627 0.622294 0.119481
C20   C     C_R   0.747600 0.683287 0.591432 0.097675
C21   C     C_R   0.786517 0.274627 0.622294 0.119481
C22   C     C_R   0.318939 0.190006 0.503067 -0.124168
C23   C     C_R   0.882299 0.378101 0.501110 0.896186
C24   C     C_R   0.326896 0.802880 0.502939 -0.147057
C25   C     C_R   0.818940 0.690006 0.503067 -0.124169
C26   C     C_R   0.826896 0.302880 0.502939 -0.147058
C27   C     C_R   0.336342 0.269138 0.432813 -0.150429
C28   C     C_R   0.313240 0.757319 0.382966 -0.164474
C29   C     C_R   0.836343 0.769138 0.432814 -0.150424
C30   C     C_R   0.813241 0.257319 0.382966 -0.164470
C31   C     C_R   0.772728 0.836807 0.432334 -0.058755
C32   C     C_R   0.745978 0.195667 0.375829 -0.010317
C33   C     C_R   0.272728 0.336806 0.432332 -0.058757
C34   C     C_R   0.880619 0.620163 0.500044 0.896808
C35   C     C_R   0.245978 0.695667 0.375829 -0.010318
C36   C     C_R   0.692632 0.821112 0.503654 -0.181377
C37   C     C_R   0.694556 0.178255 0.494761 -0.206670
C38   C     C_R   0.192633 0.321111 0.503654 -0.181376
C39   C     C_R   0.194555 0.678256 0.494761 -0.206669
C40   C     C_R   0.683778 0.747512 0.589206 0.101382
C41   C     C_R   0.720500 0.213749 0.617861 0.094304
C42   C     C_R   0.183778 0.247513 0.589207 0.101383
C43   C     C_R   0.220500 0.713749 0.617861 0.094303
C44   C     C_3   0.610387 0.681646 0.606141 -0.216579
C45   C     C_3   0.182188 0.110153 0.609746 -0.525427
C46   C     C_3   0.668285 0.258262 0.727988 -0.196381
C47   C     C_3   0.110387 0.181647 0.606144 -0.216580
C48   C     C_3   0.168284 0.758262 0.727988 -0.196382
C49   C     C_1   0.356024 0.137928 0.108085 0.244008
C50   C     C_1   0.266431 0.004207 0.143570 0.208093
C51   C     C_1   0.856017 0.637922 0.108088 0.244010
C52   C     C_1   0.766431 0.504195 0.143570 0.208091
C53   C     C_2   0.790371 0.921441 0.358185 0.460360
C54   C     C_2   0.727976 0.159777 0.240044 0.386820
C55   C     C_2   0.290369 0.421440 0.358180 0.460363
C56   C     C_3   0.242044 0.826254 0.731810 -0.514010
C57   C     C_2   0.227975 0.659778 0.240044 0.386819
C58   C     C_1   0.553244 0.675807 0.486364 0.233794
C59   C     C_1   0.583166 0.296236 0.681782 0.239577
C60   C     C_1   0.053244 0.175807 0.486368 0.233796
C61   C     C_1   0.083166 0.796237 0.681782 0.239577
C62   C     C_3   0.682187 0.610152 0.609743 -0.525427
C63   C     C_3   0.742044 0.326253 0.731810 -0.514012
C64   C     C_R   0.423009 0.988084 0.071714 0.146330
H1    H     H_    0.398298 0.277051 0.377887 0.196473
H2    H     H_    0.280219 0.823194 0.827629 0.208335
H3    H     H_    0.688208 0.577066 0.710635 0.197793
H4    H     H_    0.780219 0.323194 0.827629 0.208335
H5    H     H_    0.182420 0.063956 0.522966 0.208661
H6    H     H_    0.222827 0.894376 0.697478 0.194994
H7    H     H_    0.682420 0.563956 0.522962 0.208660
H8    H     H_    0.722827 0.394376 0.697479 0.194994
H9    H     H_    0.639088 0.006571 0.124331 0.163789
H10   H     H_    0.139088 0.506575 0.124331 0.163792
H11   H     H_    0.638948 0.010051 0.872001 0.159751
H12   H     H_    0.349595 0.775105 0.291410 0.200653
H13   H     H_    0.138948 0.510055 0.872001 0.159752
H14   H     H_    0.346703 0.098325 0.858298 0.228172
H15   H     H_    0.284407 0.993015 0.880849 0.188850
H16   H     H_    0.846699 0.598319 0.858299 0.228171
H17   H     H_    0.784407 0.493007 0.880849 0.188851
H18   H     H_    0.744888 0.977067 0.366082 0.064923
H19   H     H_    0.661442 0.159596 0.199830 0.093045
H20   H     H_    0.244890 0.477067 0.366083 0.064921
H21   H     H_    0.161441 0.659598 0.199830 0.093044
H22   H     H_    0.898299 0.777052 0.377890 0.196472
H23   H     H_    0.849596 0.275105 0.291410 0.200653
H24   H     H_    0.573347 0.688616 0.703128 0.169110
H25   H     H_    0.662694 0.216834 0.821786 0.167575
H26   H     H_    0.073348 0.188617 0.703131 0.169110
H27   H     H_    0.162694 0.716834 0.821786 0.167574
H28   H     H_    0.188209 0.077068 0.710639 0.197793
N1    N     N_R   0.499140 0.000000 0.142800 -0.123574
N2    N     N_1   0.516323 0.325938 0.645452 -0.196389
N3    N     N_1   0.008744 0.170955 0.391955 -0.152937
N4    N     N_1   0.016323 0.825939 0.645452 -0.196387
N5    N     N_R   0.999140 0.500000 0.142800 -0.123574
N6    N     N_R   0.499160 0.000000 0.857150 -0.106614
N7    N     N_R   0.999160 0.500000 0.857150 -0.106614
N8    N     N_1   0.367792 0.211194 0.134772 -0.180189
N9    N     N_1   0.207715 0.971815 0.201306 -0.193270
N10   N     N_1   0.867780 0.711189 0.134775 -0.180194
N11   N     N_1   0.707716 0.471800 0.201304 -0.193273
N12   N     N_1   0.508744 0.670955 0.391951 -0.152939
O1    O     O_R   0.408400 0.908380 0.614690 -0.612186
O2    O     O_R   0.591610 0.908390 0.614650 -0.612627
O3    O     O_R   0.091610 0.591610 0.614650 -0.613341
O4    O     O_R   0.091610 0.408390 0.614650 -0.612627
O5    O     O_R   0.591590 0.091600 0.385310 -0.654753
O6    O     O_R   0.591590 0.908400 0.385310 -0.621965
O7    O     O_R   0.091590 0.591600 0.385310 -0.654753
O8    O     O_R   0.091590 0.408400 0.385310 -0.621964
O9    O     O_2   0.856809 0.930444 0.288093 -0.522560
O10   O     O_2   0.788886 0.133859 0.168433 -0.549898
O11   O     O_2   0.356804 0.430440 0.288078 -0.522559
O12   O     O_R   0.408400 0.091620 0.614690 -0.615503
O13   O     O_2   0.288885 0.633860 0.168432 -0.549898
O14   O     O_R   0.908400 0.408380 0.614690 -0.612185
O15   O     O_R   0.908400 0.591620 0.614690 -0.615502
O16   O     O_R   0.408370 0.908370 0.385350 -0.621991
O17   O     O_R   0.408370 0.091630 0.385350 -0.618152
O18   O     O_R   0.908370 0.408370 0.385350 -0.621991
O19   O     O_R   0.908370 0.591630 0.385350 -0.618151
O20   O     O_R   0.591610 0.091610 0.614650 -0.613340
Zn1   Zn    Zn3+2 0.500010 0.000000 0.653130 0.956903
Zn2   Zn    Zn3+2 0.000010 0.500000 0.653130 0.956903
Zn3   Zn    Zn3+2 0.499980 0.000000 0.346870 0.955127
Zn4   Zn    Zn3+2 0.999980 0.500000 0.346870 0.955127

loop_
_geom_bond_atom_site_label_1
_geom_bond_atom_site_label_2
_ccdc_geom_bond_type
C19   C56   S    
C33   C55   S    
C14   O5    A    
C21   C26   A    
C18   C45   S    
C52   N11   T    
C34   O19   A    
C7    N6    A    
C46   C59   S    
C23   O14   A    
C48   C61   S    
O16   Zn3   S    
C46   H25   S    
C27   C33   A    
C51   N10   T    
O2    Zn1   S    
C62   H3    S    
C11   C49   S    
C15   O2    A    
C8    N7    A    
C64   N1    A    
O17   Zn3   S    
C18   C42   A    
C20   C40   A    
C20   C25   A    
C12   C22   S    
C48   C56   S    
C9    H15   S    
C23   C26   S    
C2    C13   S    
C45   H28   S    
C16   O3    A    
C47   C60   S    
C13   C51   S    
O5    Zn3   S    
N6    Zn1   S    
C12   O17   A    
C2    N5    A    
C53   O9    D    
C48   H27   S    
C41   C46   S    
C59   N2    T    
N7    Zn2   S    
C43   C48   S    
C31   C36   A    
C4    H10   S    
O6    Zn3   S    
C9    H14   S    
C4    N5    A    
C37   C41   A    
C15   O6    A    
N5    Zn4   S    
C32   C54   S    
C54   H19   S    
C19   C43   A    
C23   O18   A    
C45   C47   S    
C25   C29   A    
C61   N4    T    
C14   O20   A    
C45   H5    S    
C36   C40   A    
C28   C35   A    
C4    C6    A    
C11   C64   S    
C17   O4    A    
C44   C58   S    
O8    Zn4   S    
C10   H16   S    
C6    H13   S    
C39   C43   A    
C44   C62   S    
C53   H18   S    
C1    O16   A    
C5    H11   S    
C35   C39   A    
N1    Zn3   S    
C27   H1    S    
C13   C52   S    
C3    N1    A    
C32   C37   A    
C31   C53   S    
C9    C11   S    
C29   H22   S    
C1    C24   S    
C21   C41   A    
C26   C30   A    
C56   H6    S    
O12   Zn1   S    
C47   H26   S    
C58   N12   T    
C28   H12   S    
C17   O8    A    
C15   C36   S    
C57   O13   D    
C34   O15   A    
C7    C9    S    
C63   H4    S    
C14   C37   S    
C18   C22   A    
C2    C8    A    
C24   C28   A    
O3    Zn2   S    
C3    C5    A    
C10   C13   S    
O18   Zn4   S    
C38   C42   A    
C25   C34   S    
C10   H17   S    
C33   C38   A    
O1    Zn1   S    
C46   C63   S    
C22   C27   A    
C6    N7    A    
C19   C24   A    
C30   H23   S    
C29   C31   A    
C11   C50   S    
C49   N8    T    
C30   C32   A    
O19   Zn4   S    
C55   O11   D    
C56   H2    S    
C54   O10   D    
C63   H8    S    
C57   H21   S    
C62   H7    S    
C17   C38   S    
C20   C62   S    
C3    H9    S    
C7    C64   A    
C21   C63   S    
C16   C39   S    
C60   N3    T    
C40   C44   S    
C42   C47   S    
C5    N6    A    
C50   N9    T    
C8    C10   S    
C35   C57   S    
O7    Zn4   S    
O15   Zn2   S    
O14   Zn2   S    
O4    Zn2   S    
C55   H20   S    
C44   H24   S    
C16   O7    A    
C1    O1    A    
O20   Zn1   S    
C12   O12   A    
