data_mof_unit_65968.cif
_audit_creation_date              2012-12-10T17:11:57-0500
_audit_creation_method            fapswitch 2.2
_symmetry_space_group_name_H-M    P1
_symmetry_Int_Tables_number       1
_space_group_crystal_system       triclinic
_cell_length_a                    21.781154
_cell_length_b                    21.726111
_cell_length_c                    21.987726
_cell_angle_alpha                 61.579288
_cell_angle_beta                  119.869585
_cell_angle_gamma                 89.618014
_cell_volume                      7519.33422622

loop_
_atom_site_label
_atom_site_type_symbol
_atom_type_description
_atom_site_fract_x
_atom_site_fract_y
_atom_site_fract_z
_atom_type_partial_charge
C1    C     C_R   0.620140 0.499162 0.500825 0.992547
C2    C     C_R   0.827852 0.434719 0.724747 0.322846
C3    C     C_R   0.893097 0.430665 0.727444 0.289486
C4    C     C_R   0.421949 0.580543 0.337833 0.962267
C5    C     C_R   0.891890 0.428369 0.664293 0.328113
C6    C     C_R   0.822658 0.460974 0.583264 -0.124118
C7    C     C_R   0.757206 0.466151 0.581128 -0.134487
C8    C     C_R   0.687465 0.494730 0.504205 -0.172236
C9    C     C_R   0.681413 0.513719 0.430718 0.310719
C10   C     C_R   0.745309 0.508302 0.431515 0.348970
C11   C     C_R   0.815575 0.487004 0.505614 -0.220523
C12   C     C_3   0.297374 0.705241 0.083074 -0.085842
C13   C     C_3   0.760303 0.184016 0.027012 0.249519
C14   C     C_3   0.681766 0.239985 0.972317 0.321213
C15   C     C_1   0.619561 0.376841 0.751004 -0.024396
C16   C     C_R   0.378640 0.501505 0.497617 0.982159
C17   C     C_1   0.873834 0.130997 0.249098 -0.038404
C18   C     C_3   0.781526 0.240687 0.970916 0.324315
C19   C     C_3   0.703306 0.296529 0.916919 -0.210438
C20   C     C_3   0.809007 0.270949 0.027025 0.359605
C21   C     C_3   0.788600 0.214502 0.083188 -0.175388
C22   C     C_3   0.731210 0.328225 0.972367 -0.319534
C23   C     C_3   0.211868 0.709948 0.971424 0.353851
C24   C     C_3   0.710383 0.270344 0.028804 0.337205
C25   C     C_1   0.656916 0.340691 0.826044 0.218133
C26   C     C_1   0.835545 0.169382 0.174091 0.229148
C27   C     C_R   0.238863 0.503210 0.364238 0.238452
C28   C     C_R   0.576746 0.419676 0.662032 0.935251
C29   C     C_R   0.188892 0.473762 0.323056 0.309755
C30   C     C_R   0.146506 0.439862 0.351981 0.398742
C31   C     C_R   0.148903 0.440146 0.416660 0.338739
C32   C     C_R   0.195168 0.475116 0.453417 -0.188450
C33   C     C_R   0.249290 0.494014 0.437383 -0.094637
C34   C     C_3   0.211929 0.787771 0.916886 -0.078803
C35   C     C_R   0.310551 0.504474 0.494295 -0.195986
C36   C     C_R   0.309747 0.510382 0.554849 0.352148
C37   C     C_R   0.246422 0.511135 0.555241 0.450629
C38   C     C_R   0.188597 0.493470 0.504101 -0.205631
C39   C     C_R   0.998161 0.881654 0.496790 1.014885
C40   C     C_3   0.298330 0.761562 0.970923 -0.259057
C41   C     C_R   0.081377 0.917579 0.662227 0.958405
C42   C     C_R   0.001235 0.118305 0.502828 0.971946
C43   C     C_R   0.918789 0.084265 0.337984 0.892510
C44   C     C_R   0.004070 0.619944 0.501009 0.915967
C45   C     C_3   0.211836 0.731780 0.028286 0.309659
C46   C     C_R   0.879769 0.495952 0.500774 0.893504
C47   C     C_R   0.996150 0.380128 0.498751 0.942500
C48   C     C_R   0.120761 0.497971 0.500877 0.938220
C49   C     C_R   0.954075 0.882395 0.345112 0.395845
C50   C     C_R   0.962642 0.880953 0.287037 -0.163607
C51   C     C_R   0.001703 0.815434 0.308293 -0.194458
C52   C     C_3   0.297490 0.783020 0.028513 0.356774
C53   C     C_R   0.024190 0.749422 0.383225 0.436682
C54   C     C_R   0.007617 0.749207 0.438256 -0.065110
C55   C     C_R   0.985565 0.817219 0.425826 -0.120592
C56   C     C_3   0.211798 0.808971 0.973981 0.296798
C57   C     C_R   0.995487 0.816712 0.494480 -0.178760
C58   C     C_R   0.008624 0.752038 0.565532 0.414041
C59   C     C_R   0.007895 0.687711 0.565887 0.336319
C60   C     C_R   0.009587 0.685414 0.503342 -0.224589
C61   C     C_R   0.018947 0.118805 0.644196 0.418819
C62   C     C_R   0.006761 0.125282 0.698804 0.327720
C63   C     C_R   0.982416 0.194677 0.680985 -0.147076
C64   C     C_1   0.379484 0.623759 0.248926 -0.023423
C65   C     C_R   0.974742 0.257396 0.613145 -0.145708
C66   C     C_R   0.989511 0.252485 0.559806 -0.079994
C67   C     C_1   0.342817 0.660416 0.173913 0.179247
C68   C     C_R   0.003160 0.184135 0.569350 -0.029387
C69   C     C_R   0.000374 0.183961 0.503468 -0.217063
C70   C     C_R   0.987519 0.249370 0.432038 0.296561
C71   C     C_R   0.983750 0.314802 0.429348 0.495780
C72   C     C_R   0.988909 0.314994 0.495635 -0.213430
C73   C     C_1   0.126542 0.872059 0.751092 -0.108931
C74   C     C_3   0.298558 0.682614 0.026695 -0.253202
C75   C     C_1   0.165038 0.833806 0.826082 0.150529
C76   C     C_R   0.764110 0.438751 0.657700 0.248656
Cl1   Cl    Cl    0.354115 0.831495 0.066925 -0.456818
Cl2   Cl    Cl    0.268653 0.569846 0.309743 -0.573810
Cl3   Cl    Cl    0.089694 0.396563 0.306305 -0.369367
Cl4   Cl    Cl    0.887267 0.960264 0.306163 -0.565098
Cl5   Cl    Cl    0.086291 0.673603 0.412259 -0.617509
Cl6   Cl    Cl    0.018558 0.048348 0.788707 -0.471332
Cl7   Cl    Cl    0.154206 0.662102 0.932925 -0.452630
Cl8   Cl    Cl    0.592492 0.545467 0.336235 -0.509253
Cl9   Cl    Cl    0.722601 0.371620 0.686838 -0.501172
Cl10  Cl    Cl    0.829765 0.417628 0.812691 -0.430683
Cl11  Cl    Cl    0.979048 0.409661 0.818702 -0.337144
Cl12  Cl    Cl    0.961075 0.349925 0.705246 -0.505762
Cl13  Cl    Cl    0.735168 0.525047 0.339204 -0.442380
Cl14  Cl    Cl    0.595946 0.220160 0.934399 -0.386071
Cl15  Cl    Cl    0.779901 0.088631 0.064022 -0.395073
Cl16  Cl    Cl    0.663693 0.289154 0.068360 -0.420538
Cl17  Cl    Cl    0.829065 0.222210 0.931923 -0.350415
Cl18  Cl    Cl    0.387157 0.518355 0.630909 -0.460786
H1    H     H_    0.719538 0.387614 0.949423 0.234519
H2    H     H_    0.140215 0.378066 0.508462 0.319750
H3    H     H_    0.191834 0.550729 0.584167 0.361434
H4    H     H_    0.032075 0.704429 0.679163 0.410203
H5    H     H_    0.177573 0.872299 0.996128 0.387281
H6    H     H_    0.964441 0.611293 0.597761 0.344312
H7    H     H_    0.959232 0.212277 0.359228 0.328038
H8    H     H_    0.064672 0.011344 0.721262 0.379274
H9    H     H_    0.961850 0.374084 0.315737 0.417373
H10   H     H_    0.115509 0.741154 0.009684 0.381819
H11   H     H_    0.333405 0.774604 0.946117 0.221905
H12   H     H_    0.939287 0.930716 0.225504 0.230188
H13   H     H_    0.013296 0.815742 0.265649 0.215913
H14   H     H_    0.970572 0.200088 0.720868 0.240968
H15   H     H_    0.954454 0.310197 0.600835 0.209813
H16   H     H_    0.334787 0.629876 0.049586 0.227390
H17   H     H_    0.873200 0.325160 0.007301 0.398631
H18   H     H_    0.221613 0.489804 0.250195 0.391603
O1    O     O_R   0.591660 0.448290 0.500000 -0.565738
O2    O     O_R   0.034730 0.556800 0.569600 -0.589416
O3    O     O_R   0.873600 0.534810 0.430420 -0.573466
O4    O     O_R   0.591590 0.551700 0.500020 -0.621852
O5    O     O_R   0.943150 0.465220 0.569550 -0.595738
O6    O     O_R   0.965270 0.443220 0.430400 -0.532813
O7    O     O_R   0.034830 0.373630 0.569530 -0.626365
O8    O     O_R   0.056850 0.534790 0.430450 -0.539131
O9    O     O_R   0.126400 0.465210 0.569580 -0.627246
O10   O     O_R   0.438430 0.509910 0.376770 -0.594460
O11   O     O_R   0.438360 0.613320 0.376790 -0.598225
O12   O     O_R   0.948250 0.908380 0.499990 -0.561534
O13   O     O_R   0.408410 0.448300 0.499980 -0.623571
O14   O     O_R   0.408340 0.551710 0.500000 -0.568188
O15   O     O_R   0.561640 0.386680 0.623210 -0.576808
O16   O     O_R   0.561570 0.490090 0.623230 -0.601000
O17   O     O_R   0.051700 0.908270 0.500000 -0.625570
O18   O     O_3   0.876742 0.285642 0.057802 -0.643423
O19   O     O_3   0.179772 0.477233 0.254509 -0.626264
O20   O     O_3   0.110557 0.400675 0.446921 -0.682809
O21   O     O_3   0.244177 0.527726 0.607706 -0.650884
O22   O     O_3   0.017340 0.754915 0.630899 -0.730725
O23   O     O_R   0.113330 0.938270 0.623230 -0.612126
O24   O     O_3   0.165474 0.875113 0.944858 -0.652717
O25   O     O_3   0.003852 0.629130 0.626424 -0.704715
O26   O     O_3   0.979928 0.251101 0.364754 -0.710917
O27   O     O_3   0.049057 0.050570 0.664003 -0.774395
O28   O     O_3   0.973386 0.379956 0.361864 -0.642911
O29   O     O_3   0.167913 0.715888 0.059870 -0.647677
O30   O     O_R   0.009880 0.938380 0.623210 -0.574989
O31   O     O_R   0.051750 0.091470 0.500010 -0.595455
O32   O     O_R   0.948300 0.091580 0.500000 -0.606016
O33   O     O_R   0.990120 0.061470 0.376790 -0.601860
O34   O     O_R   0.886670 0.061580 0.376770 -0.586507
O35   O     O_R   0.965170 0.626380 0.430470 -0.597168
Zn1   Zn    Zn3+2 0.500040 0.430950 0.499990 1.120510
Zn2   Zn    Zn3+2 0.499960 0.569050 0.500010 1.122575
Zn3   Zn    Zn3+2 0.069070 0.999850 0.500010 1.092266
Zn4   Zn    Zn3+2 0.930930 0.000000 0.499990 1.126130
Zn5   Zn    Zn3+2 0.953560 0.546470 0.407100 1.162568
Zn6   Zn    Zn3+2 0.046440 0.453550 0.592900 1.132137

loop_
_geom_bond_atom_site_label_1
_geom_bond_atom_site_label_2
_ccdc_geom_bond_type
C8    C9    A    
C66   C68   A    
C21   C26   S    
C63   C65   A    
C34   C56   S    
C23   C45   S    
C12   C74   S    
C27   C29   A    
C1    C8    S    
C22   H1    S    
C71   O28   S    
C35   C36   A    
H3    O21   S    
C27   Cl2   S    
O11   Zn2   S    
C15   C28   S    
C7    C8    A    
C48   O8    A    
C54   C60   A    
C53   C54   A    
C27   C33   A    
C37   C38   A    
C23   Cl7   S    
C13   C18   S    
C34   C40   S    
C17   C26   T    
O1    Zn1   S    
C36   C37   A    
O32   Zn4   S    
C16   C35   S    
C30   C31   A    
O14   Zn2   S    
C15   C25   T    
C41   O23   A    
C59   O25   S    
C39   C57   S    
C44   O35   A    
C53   Cl5   S    
C18   C19   S    
C29   O19   S    
C14   C24   S    
C14   Cl14  S    
C56   O24   S    
C5    Cl12  S    
O31   Zn3   S    
C66   C72   A    
C10   Cl13  S    
O17   Zn3   S    
C68   C69   A    
O3    Zn5   S    
C2    Cl10  S    
C70   C71   A    
C1    O4    A    
O10   Zn1   S    
C29   C30   A    
C9    C10   A    
O2    Zn6   S    
C38   C48   S    
O33   Zn3   S    
C28   O15   A    
C34   C75   S    
H2    O20   S    
C22   C24   S    
C47   O7    A    
C62   Cl6   S    
C44   O2    A    
C59   C60   A    
O7    Zn6   S    
C13   C14   S    
C13   Cl15  S    
C45   O29   S    
C73   C75   T    
C61   C62   A    
C1    O1    A    
C24   Cl16  S    
O4    Zn2   S    
C12   C52   S    
C47   O6    A    
C12   C67   S    
O8    Zn5   S    
C3    Cl11  S    
C64   C67   T    
C19   C22   S    
C45   C56   S    
H6    O25   S    
C6    C11   A    
C61   O27   S    
C39   O17   A    
C58   C59   A    
C49   C55   A    
C42   C69   S    
C58   O22   S    
C39   O12   A    
C46   O5    A    
C51   C53   A    
O30   Zn4   S    
C17   C43   S    
C31   O20   S    
C43   O33   A    
H17   O18   S    
C31   C32   A    
C23   C34   S    
C62   C63   A    
C50   C51   A    
C13   C21   S    
O6    Zn5   S    
C65   H15   S    
C6    C7    A    
O9    Zn6   S    
C30   Cl3   S    
C46   O3    A    
O12   Zn4   S    
C20   C22   S    
C70   O26   S    
C32   C38   A    
C55   C57   A    
C42   O32   A    
C37   O21   S    
C23   C74   S    
C52   Cl1   S    
C48   O9    A    
C2    C76   A    
C16   O13   A    
H4    O22   S    
C54   C55   A    
C14   C19   S    
O15   Zn1   S    
C20   O18   S    
C12   C45   S    
C3    C5    A    
O13   Zn1   S    
C74   H16   S    
H7    O26   S    
C7    C76   A    
O23   Zn3   S    
C4    C64   S    
C49   Cl4   S    
C32   C33   A    
O35   Zn5   S    
C41   O30   A    
C43   O34   A    
C40   C52   S    
H9    O28   S    
O5    Zn6   S    
C61   C68   A    
C57   C58   A    
C5    C6    A    
C52   C56   S    
C44   C60   S    
C33   C35   A    
C4    O10   A    
C40   C74   S    
H5    O24   S    
C2    C3    A    
C18   C20   S    
H8    O27   S    
C65   C66   A    
H18   O19   S    
C69   C70   A    
C19   C25   S    
C47   C72   S    
C10   C11   A    
C9    Cl8   S    
C41   C73   S    
O34   Zn4   S    
C36   Cl18  S    
O16   Zn2   S    
C71   C72   A    
C20   C21   S    
C4    O11   A    
C51   H13   S    
C49   C50   A    
C21   C24   S    
C42   O31   A    
C50   H12   S    
C18   Cl17  S    
H10   O29   S    
C11   C46   S    
C63   H14   S    
C16   O14   A    
C76   Cl9   S    
C28   O16   A    
C40   H11   S    
