data_mof_unit_26090.cif
_audit_creation_date              2012-12-11T16:08:39-0500
_audit_creation_method            fapswitch 2.2
_symmetry_space_group_name_H-M    P1
_symmetry_Int_Tables_number       1
_space_group_crystal_system       triclinic
_cell_length_a                    12.956288
_cell_length_b                    13.296755
_cell_length_c                    27.736012
_cell_angle_alpha                 94.839317
_cell_angle_beta                  90.143023
_cell_angle_gamma                 119.160973
_cell_volume                      4152.54234337

loop_
_atom_site_label
_atom_site_type_symbol
_atom_type_description
_atom_site_fract_x
_atom_site_fract_y
_atom_site_fract_z
_atom_type_partial_charge
C1    C     C_R   0.627535 0.896474 0.426912 0.544841
C2    C     C_R   0.579845 0.338589 0.227902 0.201371
C3    C     C_R   0.571058 0.326989 0.278317 -0.008731
C4    C     C_R   0.662762 0.322385 0.304298 -0.018474
C5    C     C_R   0.680397 0.348427 0.204632 -0.005224
C6    C     C_1   0.694313 0.369511 0.154244 0.014912
C7    C     C_1   0.651017 0.299250 0.354638 -0.016989
C8    C     C_1   0.704233 0.395680 0.113251 0.042220
C9    C     C_R   0.145073 0.737529 0.355582 -0.003473
C10   C     C_R   0.125694 0.727891 0.305051 0.029844
C11   C     C_R   0.108797 0.716808 0.204205 0.007122
C12   C     C_R   0.601156 0.222260 0.440671 0.549563
C13   C     C_R   0.089946 0.619717 0.226622 -0.126299
C14   C     C_R   0.096536 0.624530 0.276415 -0.087016
C15   C     C_R   0.100002 0.708411 0.154535 -0.150600
C16   C     C_R   0.110887 0.800588 0.130282 0.003235
C17   C     C_R   0.192994 0.939385 0.359829 -0.120815
C18   C     C_R   0.163501 0.928343 0.310377 -0.022441
C19   C     C_R   0.139557 0.825512 0.282312 0.010994
C20   C     C_R   0.161478 0.019014 0.288261 0.157025
C21   C     C_R   0.150475 0.013341 0.237299 0.222919
C22   C     C_R   0.143540 0.916609 0.207995 -0.006621
C23   C     C_R   0.265829 0.874822 0.426588 0.525351
C24   C     C_R   0.130222 0.819940 0.231489 -0.007385
C25   C     C_R   0.142984 0.908228 0.156288 0.177281
C26   C     C_R   0.193405 0.848104 0.381447 -0.044503
C27   C     C_R   0.742958 0.949956 0.354288 -0.107230
C28   C     C_R   0.744169 0.940841 0.304200 0.004137
C29   C     C_R   0.738092 0.928649 0.202829 0.019641
C30   C     C_R   0.819750 0.030504 0.230700 -0.067920
C31   C     C_R   0.825851 0.034560 0.280830 -0.092163
C32   C     C_R   0.738502 0.919105 0.152148 0.161645
C33   C     C_R   0.675978 0.808117 0.126434 0.005103
C34   C     C_R   0.627609 0.898832 0.564647 0.549557
C35   C     C_R   0.566811 0.760857 0.351258 -0.119783
C36   C     C_R   0.571746 0.747342 0.300822 0.007010
C37   C     C_R   0.658244 0.839725 0.277149 0.059447
C38   C     C_R   0.488658 0.645907 0.273375 -0.087616
C39   C     C_R   0.493396 0.635149 0.222974 -0.088645
C40   C     C_R   0.578314 0.727425 0.199314 -0.005108
C41   C     C_R   0.658248 0.831860 0.226388 0.029472
C42   C     C_R   0.589774 0.715107 0.149476 -0.154168
C43   C     C_R   0.649895 0.864249 0.377829 -0.008188
C44   C     C_R   0.737079 0.292562 0.650710 -0.161454
C45   C     C_R   0.603393 0.228501 0.578227 0.563678
C46   C     C_R   0.753630 0.318930 0.700654 -0.020833
C47   C     C_R   0.764949 0.344096 0.802622 -0.001625
C48   C     C_R   0.835216 0.303875 0.777428 0.035050
C49   C     C_R   0.828983 0.292912 0.726593 -0.071988
C50   C     C_R   0.769513 0.361075 0.853627 -0.128302
C51   C     C_R   0.692716 0.392663 0.876989 -0.011911
C52   C     C_R   0.585785 0.351937 0.649066 0.184839
C53   C     C_R   0.614164 0.393135 0.698685 0.020366
C54   C     C_R   0.687147 0.362874 0.725072 0.000490
C55   C     C_R   0.562519 0.453284 0.723957 0.043291
C56   C     C_R   0.272031 0.879575 0.563472 0.546961
C57   C     C_R   0.550688 0.447448 0.773991 0.096464
C58   C     C_R   0.614548 0.406588 0.799829 0.006733
C59   C     C_R   0.690204 0.372608 0.775866 0.024205
C60   C     C_R   0.610432 0.406756 0.849722 -0.100421
C61   C     C_R   0.645937 0.297590 0.625537 0.000526
C62   C     C_1   0.222454 0.862620 0.610197 0.035438
C63   C     C_R   0.142767 0.736912 0.721133 -0.051349
C64   C     C_R   0.130323 0.728112 0.770917 0.206788
C65   C     C_R   0.172039 0.927737 0.782788 -0.147605
C66   C     C_R   0.184445 0.936066 0.732951 -0.124564
C67   C     C_1   0.633462 0.270785 0.395261 0.018958
C68   C     C_R   0.169633 0.840567 0.702024 -0.004316
C69   C     C_R   0.145786 0.824199 0.802047 0.039463
C70   C     C_1   0.126767 0.814087 0.853007 0.006490
C71   C     C_1   0.193406 0.851774 0.651520 -0.012095
C72   C     C_1   0.101789 0.797625 0.894524 0.030046
C73   C     C_1   0.644989 0.866347 0.610381 0.052271
C74   C     C_R   0.759894 0.822127 0.717745 -0.093138
C75   C     C_R   0.772221 0.807341 0.765932 -0.111923
C76   C     C_R   0.588181 0.809114 0.782991 -0.000448
C77   C     C_R   0.575248 0.824190 0.733602 0.028069
C78   C     C_R   0.762622 0.332863 0.280465 0.157622
C79   C     C_R   0.662105 0.829451 0.701219 0.046077
C80   C     C_R   0.687516 0.800642 0.798461 0.005483
C81   C     C_1   0.703760 0.782335 0.847594 -0.036238
C82   C     C_1   0.655024 0.847170 0.651177 0.046455
C83   C     C_1   0.720263 0.768491 0.888538 0.011626
C84   C     C_R   0.063275 0.771488 0.079856 0.569270
C85   C     C_R   0.717116 0.441342 0.067275 0.555090
C86   C     C_R   0.718811 0.783632 0.080317 0.573732
C87   C     C_R   0.056589 0.766191 0.941270 0.546155
C88   C     C_R   0.710921 0.436268 0.928350 0.538568
C89   C     C_R   0.771384 0.346650 0.231032 -0.114770
C90   C     C_R   0.746813 0.756113 0.936863 0.546343
Cr1   Cr    Cr6+3 0.416430 0.829200 0.492370 1.094670
Cr2   Cr    Cr6+3 0.674630 0.087020 0.504170 1.059529
Cr3   Cr    Cr6+3 0.408920 0.083740 0.503490 1.088732
Cr4   Cr    Cr6+3 0.914010 0.832750 0.013970 1.117517
Cr5   Cr    Cr6+3 0.922310 0.578600 0.003000 1.058774
Cr6   Cr    Cr6+3 0.656280 0.574630 0.003870 1.072617
H1    H     H_    0.225557 0.022084 0.380967 0.184741
H2    H     H_    0.808117 0.029873 0.374399 0.171978
H3    H     H_    0.882816 0.106215 0.214273 0.213914
H4    H     H_    0.892976 0.112118 0.301443 0.209605
H5    H     H_    0.537396 0.630950 0.129393 0.160146
H6    H     H_    0.430275 0.555086 0.202467 0.183715
H7    H     H_    0.420725 0.574841 0.290896 0.194711
H8    H     H_    0.849464 0.355985 0.213180 0.153902
H9    H     H_    0.495241 0.694068 0.369358 0.158138
H10   H     H_    0.834063 0.354035 0.875655 0.127783
H11   H     H_    0.785464 0.254174 0.632580 0.145765
H12   H     H_    0.879202 0.258716 0.706924 0.164193
H13   H     H_    0.550606 0.429734 0.868169 0.201252
H14   H     H_    0.133044 0.663361 0.697468 0.167861
H15   H     H_    0.182780 0.001908 0.806274 0.143943
H16   H     H_    0.206893 0.017208 0.718627 0.151912
H17   H     H_    0.826747 0.827232 0.693109 0.137373
H18   H     H_    0.848127 0.800532 0.777888 0.128728
H19   H     H_    0.077538 0.625770 0.134825 0.153772
H20   H     H_    0.070129 0.539356 0.205522 0.133108
H21   H     H_    0.082284 0.547189 0.291582 0.219493
O1    O     O_R   0.296680 0.802170 0.437540 -0.490901
O2    O     O_R   0.662610 0.183990 0.557860 -0.513458
O3    O     O_R   0.500730 0.201280 0.562180 -0.450046
O4    O     O_R   0.312500 0.978850 0.548170 -0.490554
O5    O     O_3   0.499990 0.999990 0.500010 -0.269478
O6    O     O_R   0.820790 0.857990 0.068830 -0.439945
O7    O     O_R   0.016700 0.827330 0.062850 -0.452660
O8    O     O_R   0.041970 0.673520 0.060040 -0.522553
O9    O     O_R   0.817980 0.483660 0.048840 -0.499861
O10   O     O_R   0.637200 0.461990 0.052510 -0.481457
O11   O     O_R   0.664790 0.681920 0.057970 -0.507691
O12   O     O_R   0.525380 0.838530 0.443500 -0.492088
O13   O     O_R   0.815840 0.852920 0.961840 -0.490390
O14   O     O_R   0.012100 0.822630 0.963670 -0.511393
O15   O     O_R   0.037010 0.668460 0.953040 -0.480392
O16   O     O_R   0.813390 0.478970 0.949660 -0.493837
O17   O     O_R   0.632250 0.456930 0.945520 -0.516270
O18   O     O_R   0.660200 0.677230 0.958780 -0.478027
O19   O     O_3   0.830870 0.661990 0.006950 -0.298147
O20   O     O_R   0.702130 0.995190 0.446810 -0.509829
O21   O     O_R   0.661770 0.181390 0.458760 -0.482496
O22   O     O_R   0.499820 0.198480 0.455280 -0.500027
O23   O     O_R   0.311660 0.976250 0.449080 -0.504514
O24   O     O_R   0.297580 0.804960 0.544440 -0.487073
O25   O     O_R   0.526220 0.841130 0.542590 -0.469632
O26   O     O_R   0.703030 0.997990 0.553710 -0.517894
Br1   Br    Br    0.889215 0.328767 0.314571 -0.523490
Br2   Br    Br    0.124286 0.129767 0.211225 -0.303458
Br3   Br    Br    0.162226 0.146285 0.328138 -0.431995
Br4   Br    Br    0.822641 0.056778 0.118407 -0.430555
C91   C     C_2   0.910623 0.266518 0.802639 0.266599
H22   H     H_    0.898898 0.247609 0.840042 0.103308
O27   O     O_2   0.986824 0.254407 0.781337 -0.456690
Br5   Br    Br    0.451068 0.500478 0.806578 -0.477494
C92   C     C_2   0.536934 0.535621 0.700367 0.311948
H23   H     H_    0.470515 0.556814 0.713518 0.186413
O28   O     O_2   0.593667 0.584115 0.666331 -0.480737
Br6   Br    Br    0.447077 0.346526 0.618076 -0.399052
Br7   Br    Br    0.453562 0.334728 0.189084 -0.367353
Br8   Br    Br    0.092552 0.583624 0.794967 -0.405435
C93   C     C_2   0.498744 0.799141 0.818765 0.248758
H24   H     H_    0.525737 0.827774 0.856734 0.124941
O29   O     O_2   0.393810 0.754503 0.806809 -0.449490
C94   C     C_2   0.475239 0.840184 0.716827 0.263717
H25   H     H_    0.441220 0.884399 0.740996 0.138316
O30   O     O_2   0.428508 0.802744 0.676238 -0.494383
C95   C     C_2   0.467396 0.318913 0.304408 0.293960
H26   H     H_    0.440716 0.273448 0.336703 0.128722
O31   O     O_2   0.413306 0.366474 0.291540 -0.418631
C96   C     C_2   0.117828 0.635079 0.381945 0.277282
H27   H     H_    0.063863 0.618834 0.413267 0.119201
O32   O     O_2   0.162451 0.574247 0.371415 -0.456690
Br9   Br    Br    0.212463 0.040778 0.119233 -0.331835

loop_
_geom_bond_atom_site_label_1
_geom_bond_atom_site_label_2
_ccdc_geom_bond_type
C25   Br9   S    
C66   C68   A    
C27   H2    S    
C16   C25   A    
C35   C36   A    
Cr5   O9    S    
Cr5   O16   S    
C47   C50   A    
Cr2   O21   S    
C23   O1    A    
C94   H25   S    
C55   C92   S    
Cr6   O19   S    
C32   Br4   S    
C53   C54   A    
C52   Br6   S    
C46   C49   A    
C76   C93   S    
Cr4   O13   S    
C35   H9    S    
C33   C42   A    
C95   H26   S    
Cr2   O2    S    
C91   O27   D    
C88   O16   A    
C8    C85   S    
C29   C32   A    
C78   Br1   S    
C52   C61   A    
C5    C6    S    
C65   C69   A    
C58   C60   A    
C15   C16   A    
C57   Br5   S    
C11   C24   A    
C16   C84   S    
C15   H19   S    
Cr6   O11   S    
C18   C19   A    
C23   C26   S    
C87   O14   A    
Cr2   O26   S    
C65   H15   S    
C60   H13   S    
C81   C83   T    
C11   C15   A    
C1    C43   S    
C34   O25   A    
Cr1   O5    S    
C64   Br8   S    
Cr4   O19   S    
Cr3   O3    S    
Cr6   O18   S    
C29   C30   A    
C35   C43   A    
C75   C80   A    
C18   C20   A    
C56   C62   S    
Cr4   O6    S    
C45   O2    A    
C40   C42   A    
C21   C22   A    
C93   O29   D    
C85   O9    A    
C4    C7    S    
Cr2   O20   S    
C94   O30   D    
C44   C46   A    
C9    C26   A    
C50   C51   A    
C49   H12   S    
C54   C59   A    
C53   C55   A    
C78   C89   A    
C77   C94   S    
C12   C67   S    
C34   O26   A    
Cr1   O1    S    
C74   C75   A    
C86   O11   A    
C23   O23   A    
C9    C96   S    
C77   C79   A    
C76   C77   A    
C96   O32   D    
C10   C14   A    
C39   C40   A    
C12   O21   A    
Cr6   O17   S    
C58   C59   A    
C64   C69   A    
C74   H17   S    
C47   C59   A    
C30   H3    S    
C22   C25   A    
C45   C61   S    
Cr6   O10   S    
C21   Br2   S    
C87   O15   A    
C33   C86   S    
C4    C78   A    
C38   H7    S    
Cr3   O22   S    
Cr2   O5    S    
Cr5   O8    S    
C47   C48   A    
C10   C19   A    
C14   H21   S    
C46   C54   A    
C17   C18   A    
C12   O22   A    
C75   H18   S    
C31   H4    S    
Cr3   O5    S    
Cr5   O15   S    
C3    C95   S    
C56   O24   A    
C45   O3    A    
C40   C41   A    
C86   O6    A    
C92   O28   D    
C74   C79   A    
C55   C57   A    
C89   H8    S    
C93   H24   S    
C20   Br3   S    
C85   O10   A    
C2    C5    A    
C17   C26   A    
C3    C4    A    
C42   H5    S    
C73   C82   T    
C96   H27   S    
C72   C87   S    
C1    O20   A    
C52   C53   A    
C39   H6    S    
C9    C10   A    
C44   H11   S    
C84   O8    A    
C83   C90   S    
C63   C68   A    
C36   C37   A    
C2    Br7   S    
C29   C41   A    
C20   C21   A    
C28   C31   A    
C76   C80   A    
Cr3   O4    S    
C80   C81   S    
C51   C88   S    
C79   C82   S    
C6    C8    T    
Cr1   O12   S    
C44   C61   A    
C84   O7    A    
C1    O12   A    
Cr4   O14   S    
C32   C33   A    
Cr1   O25   S    
C63   H14   S    
C95   O31   D    
C19   C24   A    
C88   O17   A    
Cr3   O23   S    
C56   O4    A    
C90   O18   A    
C11   C13   A    
C30   C31   A    
C57   C58   A    
C38   C39   A    
C28   C37   A    
C68   C71   S    
C48   C49   A    
C48   C91   S    
C36   C38   A    
Cr5   O19   S    
C62   C71   T    
C2    C3    A    
C22   C24   A    
C91   H22   S    
C37   C41   A    
C69   C70   S    
C13   H20   S    
C34   C73   S    
C7    C67   T    
C63   C64   A    
C90   O13   A    
C27   C43   A    
C92   H23   S    
C65   C66   A    
C27   C28   A    
C50   H10   S    
C70   C72   T    
C51   C60   A    
C66   H16   S    
C13   C14   A    
C17   H1    S    
C5    C89   A    
Cr1   O24   S    
Cr4   O7    S    
