data_mof_unit_21871.cif
_audit_creation_date              2012-12-11T15:41:18-0500
_audit_creation_method            fapswitch 2.2
_symmetry_space_group_name_H-M    P1
_symmetry_Int_Tables_number       1
_space_group_crystal_system       triclinic
_cell_length_a                    15.020513
_cell_length_b                    14.895629
_cell_length_c                    14.828813
_cell_angle_alpha                 108.623823
_cell_angle_beta                  110.188859
_cell_angle_gamma                 109.228566
_cell_volume                      2565.3477118

loop_
_atom_site_label
_atom_site_type_symbol
_atom_type_description
_atom_site_fract_x
_atom_site_fract_y
_atom_site_fract_z
_atom_type_partial_charge
C1    C     C_R   0.254738 0.067898 0.974162 -0.144879
C2    C     C_R   0.804129 0.003423 0.094269 -0.179648
C3    C     C_R   0.780621 0.326179 0.323311 -0.066620
C4    C     C_R   0.135408 0.702349 0.697461 -0.023099
C5    C     C_R   0.510836 0.921663 0.297762 0.021122
C6    C     C_R   0.497912 0.969415 0.670722 0.101312
C7    C     C_R   0.496010 0.295065 0.921293 0.052459
C8    C     C_R   0.504986 0.676161 0.953761 0.053300
C9    C     C_R   0.158339 0.102481 0.582605 -0.137356
C10   C     C_R   0.879133 0.791753 0.200950 -0.173980
C11   C     C_R   0.264247 0.193267 0.647948 0.155677
C12   C     C_R   0.770461 0.706300 0.136446 0.150061
C13   C     C_R   0.291328 0.278284 0.748164 0.056020
C14   C     C_R   0.717518 0.661037 0.020098 0.045112
C15   C     C_R   0.211048 0.271103 0.778240 -0.235280
C16   C     C_R   0.774188 0.702201 0.971817 -0.194775
C17   C     C_R   0.106587 0.180208 0.712245 -0.059270
C18   C     C_R   0.881731 0.787863 0.037492 -0.055329
C19   C     C_R   0.080392 0.095957 0.614780 -0.004868
C20   C     C_R   0.934267 0.831997 0.151699 -0.095633
C21   C     C_R   0.408714 0.476405 0.834547 -0.224985
C22   C     C_R   0.597345 0.466913 0.929117 -0.225150
C23   C     C_R   0.759911 0.225200 0.316337 0.321361
C24   C     C_R   0.196823 0.796800 0.702132 0.313017
C25   C     C_R   0.508391 0.573892 0.908736 0.052129
C26   C     C_R   0.496348 0.375734 0.883376 0.031037
C27   C     C_R   0.605497 0.567199 0.947544 0.040830
C28   C     C_R   0.400908 0.376582 0.821597 0.041646
C29   C     C_R   0.925896 0.511081 0.409677 -0.176225
C30   C     C_R   0.954991 0.543297 0.616457 -0.151967
C31   C     C_R   0.013055 0.603152 0.501826 -0.094527
C32   C     C_R   0.865858 0.449542 0.522407 -0.121849
C33   C     C_R   0.030326 0.617762 0.605356 0.160097
C34   C     C_R   0.855231 0.431361 0.419695 0.157272
C35   C     C_R   0.589787 0.015324 0.570060 0.007544
C36   C     C_R   0.437412 0.812186 0.378827 0.015599
C37   C     C_R   0.613214 0.974705 0.489190 0.289893
C38   C     C_R   0.428188 0.834997 0.474569 0.282582
C39   C     C_R   0.525998 0.891272 0.385055 -0.060493
C40   C     C_R   0.501051 0.940767 0.568430 -0.083525
C41   C     C_R   0.138318 0.087262 0.159408 -0.154808
C42   C     C_R   0.980679 0.080584 0.984414 -0.125648
C43   C     C_R   0.048285 0.089892 0.163668 -0.177228
C44   C     C_R   0.069169 0.078581 0.980458 -0.169148
C45   C     C_R   0.416276 0.897683 0.209424 -0.087585
C46   C     C_R   0.589827 0.031391 0.775252 -0.140263
C47   C     C_R   0.968206 0.083076 0.074072 0.177147
C48   C     C_R   0.145443 0.076448 0.065091 0.174611
C49   C     C_R   0.587978 0.295231 0.987826 -0.124726
C50   C     C_R   0.411279 0.685783 0.937407 -0.115503
C51   C     C_R   0.595341 0.987946 0.294213 -0.077856
C52   C     C_R   0.407255 0.949889 0.683005 -0.064040
C53   C     C_R   0.407315 0.205502 0.899196 -0.136256
C54   C     C_R   0.593705 0.780007 0.027695 -0.135291
C55   C     C_R   0.745024 0.312592 0.218809 -0.138652
C56   C     C_R   0.196960 0.699992 0.789444 -0.159655
C57   C     C_R   0.242618 0.967060 0.058094 0.322624
C58   C     C_R   0.802572 0.098770 0.005771 0.279054
C59   C     C_R   0.220937 0.046952 0.044110 -0.066439
C60   C     C_R   0.864657 0.065617 0.063263 -0.022031
H1    H     H_    0.246951 0.122857 0.942953 0.124081
H2    H     H_    0.833620 0.975984 0.151671 0.132534
H3    H     H_    0.135888 0.036576 0.505961 0.133833
H4    H     H_    0.920801 0.828311 0.289847 0.138389
H5    H     H_    0.230115 0.335594 0.853991 0.139942
H6    H     H_    0.734819 0.667908 0.883201 0.138972
H7    H     H_    0.045847 0.175069 0.736794 0.158293
H8    H     H_    0.924467 0.819952 0.999719 0.162175
H9    H     H_    0.334613 0.477694 0.792566 0.138618
H10   H     H_    0.672408 0.465167 0.964210 0.133955
H11   H     H_    0.920856 0.498912 0.331748 0.142572
H12   H     H_    0.967934 0.554933 0.696786 0.132037
H13   H     H_    0.072256 0.657564 0.491369 0.177407
H14   H     H_    0.809513 0.388856 0.529878 0.148177
H15   H     H_    0.198458 0.087362 0.225890 0.155935
H16   H     H_    0.917765 0.071370 0.912556 0.152529
H17   H     H_    0.038796 0.092380 0.233445 0.125408
H18   H     H_    0.071518 0.068292 0.905802 0.136341
H19   H     H_    0.335794 0.834872 0.179662 0.161778
H20   H     H_    0.673438 0.058720 0.795079 0.154882
H21   H     H_    0.671037 0.343426 0.009276 0.115617
H22   H     H_    0.327185 0.621853 0.885447 0.101542
H23   H     H_    0.676474 0.000438 0.332209 0.199834
H24   H     H_    0.323269 0.907332 0.618658 0.179970
H25   H     H_    0.323036 0.170146 0.839673 0.138190
H26   H     H_    0.678420 0.807924 0.057691 0.125753
H27   H     H_    0.750905 0.373943 0.193920 0.120234
H28   H     H_    0.169194 0.643283 0.817372 0.125740
H29   H     H_    0.999312 0.025536 0.563675 0.166119
H30   H     H_    0.017720 0.898172 0.202447 0.153340
N1    N     N_R   0.293810 0.002730 0.945950 -0.045884
N2    N     N_R   0.706190 0.997270 0.054050 -0.055349
N3    N     N_R   0.706160 0.152130 0.208910 -0.070421
N4    N     N_R   0.293840 0.847870 0.791090 -0.062471
N5    N     N_R   0.443140 0.945920 0.152090 -0.051366
N6    N     N_R   0.556860 0.054080 0.847910 -0.041079
N7    N     N_R   0.556830 0.208940 0.002760 -0.041929
N8    N     N_R   0.443170 0.791060 0.997240 -0.043573
N9    N     N_R   0.556790 0.002750 0.208910 -0.062245
N10   N     N_R   0.443210 0.997250 0.791090 -0.047449
N11   N     N_R   0.443180 0.152110 0.945950 -0.044743
N12   N     N_R   0.556820 0.847890 0.054050 -0.045616
N13   N     N_R   0.706170 0.208950 0.152090 -0.042462
N14   N     N_R   0.293830 0.791050 0.847910 -0.055030
N15   N     N_R   0.293800 0.945910 0.002760 -0.067009
N16   N     N_R   0.706200 0.054090 0.997240 -0.064484
Ni1   Ni    Ni4+2 0.369690 0.999990 0.869700 0.255833
Ni2   Ni    Ni4+2 0.630310 0.000010 0.130300 0.234227
Ni3   Ni    Ni4+2 0.369670 0.869670 0.000000 0.233919
Ni4   Ni    Ni4+2 0.630330 0.130330 0.000000 0.257556
C61   C     C_3   0.343240 0.197851 0.605689 -0.458557
C62   C     C_3   0.314098 0.225894 0.512327 -0.216420
C63   C     C_3   0.391741 0.229646 0.467362 -0.919335
H31   H     H_    0.477096 0.291278 0.533924 0.270414
H32   H     H_    0.385239 0.148341 0.431433 0.266208
H33   H     H_    0.370051 0.252582 0.401872 0.253562
H34   H     H_    0.229458 0.163960 0.443816 0.193819
H35   H     H_    0.318701 0.306760 0.543674 0.213525
H36   H     H_    0.428685 0.258851 0.671723 0.200311
H37   H     H_    0.339944 0.117524 0.575428 0.201628
C64   C     C_3   0.711641 0.670312 0.193937 -0.447537
C65   C     C_3   0.749249 0.602045 0.238824 -0.233459
C66   C     C_3   0.682751 0.558149 0.287905 -0.882975
H38   H     H_    0.691371 0.626420 0.355805 0.271475
H39   H     H_    0.595176 0.503933 0.223554 0.259011
H40   H     H_    0.712335 0.510454 0.321387 0.249743
H41   H     H_    0.739255 0.532295 0.171330 0.190424
H42   H     H_    0.836951 0.652624 0.303557 0.215207
H43   H     H_    0.727591 0.743603 0.262716 0.204773
H44   H     H_    0.621899 0.622528 0.137690 0.202559
C67   C     C_3   0.655640 0.137607 0.650571 -0.360855
C68   C     C_3   0.655541 0.204303 0.590028 -0.252531
C69   C     C_3   0.707155 0.325233 0.669901 -0.895279
H45   H     H_    0.662127 0.337666 0.714218 0.259115
H46   H     H_    0.793833 0.358261 0.730620 0.283123
H47   H     H_    0.703647 0.370768 0.623553 0.242089
H48   H     H_    0.701681 0.194825 0.546478 0.257299
H49   H     H_    0.570333 0.174159 0.527806 0.199822
H50   H     H_    0.619999 0.161254 0.702036 0.197893
H51   H     H_    0.740913 0.160722 0.705771 0.239555
C70   C     C_3   0.366011 0.700101 0.277412 -0.343679
C71   C     C_3   0.409137 0.622699 0.292769 -0.226067
C72   C     C_3   0.340859 0.510916 0.189562 -0.891027
H52   H     H_    0.254794 0.473197 0.170394 0.287017
H53   H     H_    0.343690 0.518373 0.118279 0.252272
H54   H     H_    0.373914 0.456919 0.203339 0.249066
H55   H     H_    0.494959 0.657742 0.310591 0.201144
H56   H     H_    0.407936 0.612360 0.363311 0.241827
H57   H     H_    0.280056 0.666513 0.258787 0.234623
H58   H     H_    0.365933 0.704393 0.204151 0.176168
Br1   Br    Br    0.762977 0.017422 0.529991 -0.602121
Br2   Br    Br    0.318614 0.722772 0.475980 -0.607716
Br3   Br    Br    0.842601 0.205422 0.431887 -0.586737
Br4   Br    Br    0.138526 0.872876 0.639095 -0.655915
Br5   Br    Br    0.170137 0.871217 0.101002 -0.666703
Br6   Br    Br    0.858532 0.229841 0.996946 -0.618295

loop_
_geom_bond_atom_site_label_1
_geom_bond_atom_site_label_2
_ccdc_geom_bond_type
N11   Ni1   S    
C72   H54   S    
C57   N15   A    
C8    C50   A    
N1    N15   A    
C3    C23   A    
C61   C62   S    
C64   H44   S    
C42   H16   S    
N3    N13   A    
C70   H57   S    
C66   H38   S    
N9    Ni2   S    
C57   Br5   S    
C7    C26   S    
N13   Ni4   S    
C20   H30   S    
C35   C37   A    
C9    C19   A    
C1    C59   A    
N3    Ni2   S    
C32   H14   S    
N14   Ni3   S    
C4    C24   A    
N5    N9    A    
C56   H28   S    
C41   H15   S    
C58   C60   A    
C72   H52   S    
C15   H5    S    
C55   N13   A    
C61   H36   S    
C49   H21   S    
C65   H41   S    
C52   H24   S    
C23   Br3   S    
C21   C25   A    
C67   H51   S    
C47   C60   S    
C3    C55   A    
N2    Ni2   S    
C12   C64   S    
C10   C20   A    
C68   C69   S    
C69   H47   S    
C31   C33   A    
C13   C28   S    
N12   Ni2   S    
C14   C16   A    
C14   C27   S    
C43   C47   A    
C18   C20   A    
C63   H33   S    
N4    N14   A    
C1    N1    A    
N8    Ni3   S    
C4    C56   A    
C55   H27   S    
C8    C25   S    
C41   C43   A    
C42   C44   A    
C37   Br1   S    
C38   Br2   S    
C62   C63   S    
C24   Br4   S    
C70   H58   S    
C51   N9    A    
N4    Ni1   S    
C17   H7    S    
C50   N8    A    
C11   C61   S    
N1    Ni1   S    
C58   Br6   S    
C67   H50   S    
C7    C49   A    
N5    Ni3   S    
C8    C54   A    
C54   H26   S    
C66   H40   S    
C3    C34   S    
C68   H48   S    
N8    N12   A    
C44   H18   S    
C5    C45   A    
C29   C34   A    
C52   N10   A    
C23   N3    A    
C21   H9    S    
C61   H37   S    
C58   N16   A    
C32   C34   A    
C38   C40   A    
C36   C70   S    
C31   H13   S    
C19   H29   S    
C24   N4    A    
C62   H35   S    
C29   C31   A    
C45   H19   S    
C2    N2    A    
C9    C11   A    
C71   H56   S    
C56   N14   A    
C64   C65   S    
C10   C12   A    
N2    N16   A    
C21   C28   A    
C12   C14   A    
C22   C27   A    
C13   C15   A    
C69   H45   S    
C6    C40   S    
C57   C59   A    
C16   H6    S    
C7    C53   A    
C67   C68   S    
C45   N5    A    
C51   H23   S    
C50   H22   S    
C48   C59   S    
C63   H31   S    
N16   Ni4   S    
C68   H49   S    
C72   H53   S    
N15   Ni3   S    
C4    C33   S    
N10   Ni1   S    
C6    C46   A    
C30   C33   A    
C9    H3    S    
C26   C28   A    
C71   H55   S    
C54   N12   A    
C36   C39   A    
C10   H4    S    
C64   H43   S    
C1    H1    S    
C30   H12   S    
C15   C17   A    
C43   H17   S    
C53   N11   A    
C5    C39   S    
C35   C40   A    
C35   C67   S    
C37   C39   A    
C70   C71   S    
C30   C32   A    
N7    Ni4   S    
C11   C13   A    
C62   H34   S    
N6    Ni4   S    
N6    N10   A    
C36   C38   A    
C17   C19   A    
C41   C48   A    
C2    C60   A    
C42   C47   A    
C65   H42   S    
C66   H39   S    
C49   N7    A    
C29   H11   S    
C44   C48   A    
C46   N6    A    
C16   C18   A    
C22   C26   A    
C69   H46   S    
C71   C72   S    
C5    C51   A    
C53   H25   S    
C46   H20   S    
C6    C52   A    
C65   C66   S    
C18   H8    S    
C22   H10   S    
N7    N11   A    
C2    H2    S    
C63   H32   S    
C25   C27   A    
