data_mof_unit_63882.cif
_audit_creation_date              2012-12-10T20:17:48-0500
_audit_creation_method            fapswitch 2.2
_symmetry_space_group_name_H-M    P1
_symmetry_Int_Tables_number       1
_space_group_crystal_system       triclinic
_cell_length_a                    19.358916
_cell_length_b                    18.580563
_cell_length_c                    23.361941
_cell_angle_alpha                 90.057867
_cell_angle_beta                  90.065003
_cell_angle_gamma                 90.230212
_cell_volume                      8403.20229614

loop_
_atom_site_label
_atom_site_type_symbol
_atom_type_description
_atom_site_fract_x
_atom_site_fract_y
_atom_site_fract_z
_atom_type_partial_charge
Br1   Br    Br    0.611081 0.678115 0.581392 -0.328330
Br2   Br    Br    0.373484 0.587373 0.659985 -0.377117
Br3   Br    Br    0.612078 0.321717 0.419699 -0.273676
Br4   Br    Br    0.390525 0.676577 0.417006 -0.334150
Br5   Br    Br    0.388787 0.322858 0.581227 -0.296632
Br6   Br    Br    0.627770 0.853812 0.563778 -0.286010
Br7   Br    Br    0.629723 0.146893 0.439617 -0.295507
Br8   Br    Br    0.368067 0.850544 0.439196 -0.299827
Br9   Br    Br    0.368747 0.148016 0.561458 -0.295157
Br10  Br    Br    0.648798 0.489756 0.338291 -0.370047
C1    C     C_R   0.365583 0.499824 0.499321 1.036061
C2    C     C_R   0.546479 0.460184 0.701632 -0.351351
C3    C     C_R   0.434020 0.511748 0.240961 0.466436
C4    C     C_R   0.547455 0.459555 0.761315 0.469310
C5    C     C_R   0.495715 0.503521 0.209387 0.084378
C6    C     C_R   0.497387 0.498659 0.791183 0.183456
C7    C     C_R   0.743895 0.443158 0.532500 0.260907
C8    C     C_R   0.252306 0.560914 0.513488 0.290900
C9    C     C_R   0.255159 0.436050 0.478942 0.264439
C10   C     C_R   0.746808 0.556155 0.477810 0.323928
C11   C     C_R   0.815949 0.438917 0.529274 0.449549
C12   C     C_R   0.634120 0.500145 0.501263 1.006517
C13   C     C_R   0.179631 0.558316 0.513496 0.333500
C14   C     C_R   0.182700 0.432843 0.481796 0.348643
C15   C     C_R   0.819342 0.552431 0.476053 0.338466
C16   C     C_R   0.852737 0.494414 0.502384 0.037666
C17   C     C_R   0.146046 0.494458 0.497446 0.075505
C18   C     C_R   0.709342 0.500100 0.504231 -0.279996
C19   C     C_R   0.289844 0.498826 0.497897 -0.229285
C20   C     C_R   0.500323 0.500031 0.389693 0.978686
C21   C     C_R   0.498889 0.500043 0.610444 0.951224
C22   C     C_R   0.961745 0.481504 0.449067 0.315572
C23   C     C_R   0.559644 0.494338 0.236997 0.452224
C24   C     C_R   0.037058 0.497864 0.552078 0.311956
C25   C     C_R   0.034331 0.484349 0.447585 0.313965
C26   C     C_R   0.964403 0.498069 0.553237 0.309556
C27   C     C_R   0.070884 0.490937 0.499231 0.061910
C28   C     C_R   0.927917 0.491812 0.501490 0.058501
C29   C     C_R   0.548026 0.727190 0.531470 0.313195
C30   C     C_R   0.548723 0.272924 0.469560 0.307434
C31   C     C_R   0.451478 0.726302 0.468734 0.313235
C32   C     C_R   0.451094 0.273397 0.530900 0.318432
C33   C     C_R   0.550827 0.803203 0.529398 0.151160
C34   C     C_R   0.446308 0.538200 0.762476 0.398479
C35   C     C_R   0.552019 0.197014 0.472537 0.172462
C36   C     C_R   0.446896 0.802080 0.471980 0.220881
C37   C     C_R   0.447109 0.197471 0.528434 0.159675
C38   C     C_R   0.498352 0.841708 0.501038 -0.072308
C39   C     C_R   0.499419 0.158184 0.500656 -0.156635
C40   C     C_R   0.501274 0.961024 0.449409 0.460319
C41   C     C_R   0.501483 0.037901 0.553299 0.463274
C42   C     C_R   0.494192 0.962550 0.553597 0.412041
C43   C     C_R   0.495786 0.037194 0.448700 0.350310
C44   C     C_R   0.499019 0.076838 0.500882 -0.171994
C45   C     C_R   0.562151 0.494183 0.297295 0.135628
C46   C     C_R   0.497301 0.922963 0.501585 -0.150909
C47   C     C_R   0.520758 0.559104 0.880216 0.617790
C48   C     C_R   0.473711 0.442214 0.120471 0.557323
C49   C     C_R   0.475818 0.438942 0.880786 0.621761
C50   C     C_R   0.515158 0.563727 0.119772 0.596974
C51   C     C_R   0.475050 0.438342 0.940568 -0.050411
C52   C     C_R   0.516872 0.563930 0.060026 -0.042836
C53   C     C_R   0.496916 0.500450 0.970249 -0.009198
C54   C     C_R   0.495747 0.501519 0.030377 -0.006854
C55   C     C_R   0.519908 0.561516 0.939946 -0.047302
C56   C     C_R   0.445731 0.538883 0.702104 0.138401
C57   C     C_R   0.473555 0.440146 0.060712 -0.035427
C58   C     C_R   0.452716 0.377599 0.971173 -0.115124
C59   C     C_R   0.539406 0.624591 0.029437 -0.113634
C60   C     C_R   0.452181 0.378415 0.030764 -0.112646
C61   C     C_R   0.541136 0.623308 0.969882 -0.113169
C62   C     C_R   0.500189 0.500387 0.328027 -0.217172
C63   C     C_R   0.496745 0.500081 0.672366 -0.150580
C64   C     C_R   0.437082 0.509218 0.300191 -0.209466
H1    H     H_    0.435741 0.329280 0.949229 0.206677
H2    H     H_    0.468235 0.119403 0.401909 0.370804
H3    H     H_    0.657950 0.473757 0.226950 0.386995
H4    H     H_    0.368781 0.604689 0.771006 0.390391
H5    H     H_    0.375651 0.528261 0.174053 0.345196
H6    H     H_    0.628074 0.397517 0.764298 0.358673
H7    H     H_    0.670062 0.416447 0.584293 0.337173
H8    H     H_    0.260324 0.665136 0.515339 0.372430
H9    H     H_    0.264118 0.354206 0.427400 0.364905
H10   H     H_    0.739830 0.657345 0.457989 0.367193
H11   H     H_    0.820205 0.345198 0.567600 0.405311
H12   H     H_    0.555971 0.673071 0.051371 0.206351
H13   H     H_    0.165507 0.644364 0.559352 0.374982
H14   H     H_    0.176054 0.328383 0.479773 0.371697
H15   H     H_    0.832285 0.623434 0.415897 0.375460
H16   H     H_    0.950005 0.438870 0.373635 0.367808
H17   H     H_    0.050872 0.536183 0.628710 0.369705
H18   H     H_    0.041654 0.503066 0.365907 0.366128
H19   H     H_    0.954376 0.481107 0.634849 0.370383
H20   H     H_    0.434880 0.330678 0.053225 0.206203
H21   H     H_    0.558896 0.670874 0.947434 0.206797
H22   H     H_    0.389938 0.514993 0.324790 0.200944
H23   H     H_    0.585136 0.430527 0.677857 0.171857
H24   H     H_    0.516350 0.954589 0.366687 0.407283
H25   H     H_    0.528626 0.120218 0.600293 0.351846
H26   H     H_    0.467939 0.880305 0.600791 0.350615
N1    N     N_R   0.498434 0.498696 0.852190 -0.315535
N2    N     N_R   0.494172 0.503382 0.148394 -0.342950
N3    N     N_R   0.500000 0.689440 0.500000 -0.182636
N4    N     N_R   0.500000 0.310560 0.500000 -0.192809
O1    O     O_R   0.398180 0.560840 0.499980 -0.550091
O2    O     O_2   0.453864 0.383762 0.150614 -0.505625
O3    O     O_2   0.453807 0.380678 0.851305 -0.498992
O4    O     O_2   0.534429 0.623045 0.149229 -0.499020
O5    O     O_3   0.508923 0.921754 0.399450 -0.670430
O6    O     O_3   0.509158 0.071421 0.605809 -0.618335
O7    O     O_3   0.486143 0.929665 0.606248 -0.616458
O8    O     O_3   0.487399 0.070650 0.396277 -0.695408
O9    O     O_3   0.617604 0.486146 0.203099 -0.698364
O10   O     O_3   0.398170 0.574150 0.795423 -0.707415
O11   O     O_3   0.370216 0.522356 0.215877 -0.690372
O12   O     O_R   0.601820 0.439160 0.500020 -0.591827
O13   O     O_3   0.596837 0.422020 0.791645 -0.706717
O14   O     O_3   0.709011 0.392374 0.564672 -0.714121
O15   O     O_3   0.287439 0.623080 0.528294 -0.671520
O16   O     O_3   0.292857 0.379925 0.456022 -0.701566
O17   O     O_3   0.711516 0.613139 0.453743 -0.678528
O18   O     O_3   0.852452 0.382083 0.552635 -0.693921
O19   O     O_3   0.139890 0.616363 0.530089 -0.706777
O20   O     O_3   0.146213 0.370130 0.470994 -0.697796
O21   O     O_3   0.859098 0.603581 0.448316 -0.698572
O22   O     O_3   0.922392 0.467801 0.400822 -0.697243
O23   O     O_R   0.601820 0.560840 0.500020 -0.543607
O24   O     O_3   0.076519 0.506072 0.601027 -0.705018
O25   O     O_3   0.071035 0.483436 0.396851 -0.700952
O26   O     O_3   0.927515 0.503759 0.603654 -0.704581
O27   O     O_R   0.398180 0.439160 0.499980 -0.553628
O28   O     O_R   0.499980 0.560830 0.416150 -0.582883
O29   O     O_R   0.500020 0.439170 0.583850 -0.613035
O30   O     O_R   0.500020 0.560830 0.583850 -0.574194
O31   O     O_R   0.499980 0.439170 0.416150 -0.585557
O32   O     O_2   0.543524 0.616505 0.850188 -0.503407
Zn1   Zn    Zn3+2 0.500000 0.581210 0.500000 1.099085
Zn2   Zn    Zn3+2 0.500000 0.418790 0.500000 1.067716

loop_
_geom_bond_atom_site_label_1
_geom_bond_atom_site_label_2
_ccdc_geom_bond_type
C23   C45   A    
O31   Zn2   S    
C11   C16   A    
C53   C55   A    
H5    O11   S    
C24   C27   A    
C34   C56   A    
C14   C17   A    
H14   O20   S    
O30   Zn1   S    
C37   C39   A    
H15   O21   S    
C43   C44   A    
C58   H1    S    
Br7   C35   S    
C60   H20   S    
N3    Zn1   S    
H3    O9    S    
C21   C63   S    
C61   H21   S    
Br4   C31   S    
C39   C44   S    
C14   O20   S    
C50   C52   A    
C22   O22   S    
C11   O18   S    
C59   C61   A    
C15   O21   S    
C52   C54   A    
C2    H23   S    
C1    O1    A    
C31   C36   A    
C47   O32   S    
C48   N2    A    
C22   C28   A    
C33   C38   A    
C6    C34   A    
C45   C62   A    
C50   O4    S    
C21   O29   A    
C12   O12   A    
C34   O10   S    
O29   Zn2   S    
H24   O5    S    
C12   C18   S    
C2    C63   A    
H4    O10   S    
H8    O15   S    
C21   O30   A    
C50   N2    A    
O23   Zn1   S    
O12   Zn2   S    
C30   C35   A    
C36   C38   A    
C49   C51   A    
C40   C43   A    
H17   O24   S    
C8    C13   A    
C49   N1    A    
C54   C57   A    
C64   H22   S    
C62   C64   A    
C16   C28   S    
C29   C33   A    
C10   C18   A    
C42   O7    S    
H10   O17   S    
C55   C61   A    
H25   O6    S    
H7    O14   S    
C40   O5    S    
C40   C46   A    
C31   N3    A    
C52   C59   A    
C32   N4    A    
C48   O2    S    
H9    O16   S    
C22   C25   A    
C26   O26   S    
C30   N4    A    
C48   C57   A    
C20   C62   S    
C35   C39   A    
H2    O8    S    
C4    O13   S    
C51   C53   A    
H16   O22   S    
H11   O18   S    
C8    C19   A    
Br10  C45   S    
C10   O17   S    
C3    O11   S    
C7    O14   S    
C43   O8    S    
C24   O24   S    
C2    C4    A    
C9    O16   S    
Br9   C37   S    
C41   O6    S    
C13   C17   A    
Br6   C33   S    
C3    C5    A    
C4    C6    A    
H19   O26   S    
C9    C19   A    
Br5   C32   S    
C38   C46   S    
C25   O25   S    
H6    O13   S    
C25   C27   A    
C7    C18   A    
C47   C55   A    
Br2   C56   S    
C1    O27   A    
Br3   C30   S    
C13   O19   S    
C29   N3    A    
C47   N1    A    
C23   O9    S    
C57   C60   A    
C41   C44   A    
C26   C28   A    
H18   O25   S    
C15   C16   A    
C41   C42   A    
O27   Zn2   S    
H13   O19   S    
C56   C63   A    
C51   C58   A    
C12   O23   A    
C17   C27   S    
C20   O28   A    
N4    Zn2   S    
C9    C14   A    
C24   C26   A    
C32   C37   A    
C5    N2    S    
C49   O3    S    
Br1   C29   S    
O1    Zn1   S    
C53   C54   A    
C6    N1    S    
C3    C64   A    
C1    C19   S    
H26   O7    S    
C58   C60   A    
C20   O31   A    
C10   C15   A    
O28   Zn1   S    
Br8   C36   S    
C8    O15   S    
C5    C23   A    
C59   H12   S    
C42   C46   A    
C7    C11   A    
