data_mof_unit_23903.cif
_audit_creation_date              2012-12-11T17:10:37-0500
_audit_creation_method            fapswitch 2.2
_symmetry_space_group_name_H-M    P1
_symmetry_Int_Tables_number       1
_space_group_crystal_system       triclinic
_cell_length_a                    14.93629
_cell_length_b                    15.165522
_cell_length_c                    15.034012
_cell_angle_alpha                 110.167514
_cell_angle_beta                  109.684779
_cell_angle_gamma                 108.304472
_cell_volume                      2629.23772554

loop_
_atom_site_label
_atom_site_type_symbol
_atom_type_description
_atom_site_fract_x
_atom_site_fract_y
_atom_site_fract_z
_atom_type_partial_charge
Br1   Br    Br    0.665579 0.894763 0.867386 -0.410655
Br2   Br    Br    0.303016 0.184924 0.702726 -0.439192
Br3   Br    Br    0.445572 0.975106 0.706605 -0.369314
Br4   Br    Br    0.436936 0.981321 0.201083 -0.340065
Br5   Br    Br    0.418025 0.762345 0.203620 -0.379236
Br6   Br    Br    0.107264 0.168357 0.917023 -0.453072
Br7   Br    Br    0.878454 0.931207 0.732509 -0.457579
Br8   Br    Br    0.456279 0.676856 0.865137 -0.361511
Br9   Br    Br    0.145172 0.757991 0.365667 -0.471691
Br10  Br    Br    0.681995 0.462166 0.866130 -0.557102
Br11  Br    Br    0.877886 0.313039 0.237522 -0.460453
Br12  Br    Br    0.266545 0.794860 0.722550 -0.358885
Br13  Br    Br    0.143871 0.813902 0.085996 -0.472295
Br14  Br    Br    0.115865 0.570201 0.933514 -0.441507
Br15  Br    Br    0.237518 0.451408 0.778188 -0.415798
Br16  Br    Br    0.550745 0.220775 0.000423 -0.378189
C1    C     C_R   0.192449 0.285896 0.206386 -0.095821
C2    C     C_R   0.407120 0.498077 0.197496 -0.068614
C3    C     C_R   0.511745 0.806063 0.589778 -0.018762
C4    C     C_R   0.556060 0.464954 0.778097 0.260513
C5    C     C_R   0.725315 0.466842 0.410456 -0.074521
C6    C     C_R   0.455017 0.808023 0.497484 0.066735
C7    C     C_R   0.829021 0.538569 0.504391 0.089154
C8    C     C_R   0.438020 0.436843 0.135522 0.124698
C9    C     C_R   0.810252 0.808307 0.851441 0.041263
C10   C     C_R   0.049586 0.571025 0.158314 -0.129135
C11   C     C_R   0.061817 0.606420 0.262856 0.312935
C12   C     C_R   0.486246 0.487700 0.812314 -0.051269
C13   C     C_R   0.010863 0.531501 0.289056 -0.137836
C14   C     C_R   0.946162 0.421176 0.207902 0.304725
C15   C     C_R   0.934751 0.387432 0.103754 -0.142852
C16   C     C_R   0.443755 0.187515 0.404561 -0.080950
C17   C     C_R   0.986300 0.462015 0.079095 -0.135697
C18   C     C_R   0.930682 0.558466 0.407211 -0.130854
C19   C     C_R   0.933712 0.584545 0.507379 0.010023
C20   C     C_R   0.037084 0.650649 0.604850 -0.040325
C21   C     C_R   0.130896 0.674514 0.596527 0.304139
C22   C     C_R   0.122394 0.613698 0.496249 -0.015165
C23   C     C_R   0.469105 0.174456 0.492784 0.068789
C24   C     C_R   0.023054 0.568545 0.399468 0.118291
C25   C     C_R   0.068204 0.787363 0.780154 -0.082049
C26   C     C_R   0.097165 0.824821 0.889955 -0.241847
C27   C     C_R   0.109345 0.760829 0.936548 0.345517
C28   C     C_R   0.289822 0.595055 0.588258 -0.023380
C29   C     C_R   0.096226 0.659703 0.873397 0.382543
C30   C     C_R   0.070296 0.623477 0.764371 -0.242620
C31   C     C_R   0.054480 0.686234 0.716702 0.044062
C32   C     C_R   0.481712 0.380907 0.902428 0.070777
C33   C     C_R   0.439016 0.438810 0.865066 -0.020882
C34   C     C_R   0.201019 0.573280 0.496830 0.060727
C35   C     C_R   0.351830 0.444875 0.879025 0.424208
C36   C     C_R   0.340572 0.432119 0.962716 -0.143287
C37   C     C_R   0.409183 0.404204 0.023290 -0.034970
C38   C     C_R   0.470264 0.366363 0.985030 -0.007395
C39   C     C_3   0.438739 0.249936 0.926483 0.134300
C40   C     C_R   0.538819 0.274181 0.587754 -0.095402
C41   C     C_3   0.445755 0.264071 0.834527 0.059007
C42   C     C_R   0.423339 0.898946 0.396987 0.044747
C43   C     C_R   0.434911 0.892259 0.490495 -0.097302
C44   C     C_R   0.432704 0.970193 0.574076 0.388492
C45   C     C_R   0.413650 0.710537 0.407346 -0.082542
C46   C     C_R   0.432107 0.058536 0.567655 -0.156405
C47   C     C_R   0.437641 0.071591 0.482532 -0.045484
C48   C     C_R   0.426043 0.988745 0.393419 0.073653
C49   C     C_3   0.499464 0.994118 0.344865 0.127471
C50   C     C_3   0.493892 0.892780 0.346114 0.131840
C51   C     C_R   0.061828 0.019055 0.099797 0.121568
C52   C     C_R   0.202781 0.507672 0.407555 -0.079816
C53   C     C_R   0.095720 0.094231 0.069076 -0.167322
C54   C     C_R   0.046241 0.069143 0.960076 0.275108
C55   C     C_R   0.950621 0.971369 0.884611 0.255000
C56   C     C_R   0.814167 0.555849 0.593631 -0.085902
C57   C     C_R   0.908699 0.904258 0.922822 -0.128880
C58   C     C_R   0.968615 0.924138 0.026832 0.130387
C59   C     C_3   0.935918 0.924193 0.110393 -0.344440
C60   C     C_3   0.040408 0.030330 0.192240 -0.396886
C61   C     C_R   0.461668 0.554570 0.776590 0.330217
C62   C     C_R   0.286795 0.196293 0.203500 -0.131900
C63   C     C_R   0.189656 0.191363 0.150380 0.167866
C64   C     C_R   0.498871 0.407042 0.198210 -0.124006
C65   C     C_R   0.713905 0.804072 0.797529 0.365642
C66   C     C_R   0.805532 0.712937 0.796223 -0.130961
H1    H     H_    0.865140 0.688554 0.823954 0.133645
H2    H     H_    0.130548 0.309041 0.183180 0.127161
H3    H     H_    0.871817 0.602282 0.678566 0.107675
H4    H     H_    0.523275 0.347808 0.170575 0.156755
H5    H     H_    0.348579 0.523686 0.169795 0.133070
H6    H     H_    0.550038 0.867008 0.672993 0.195837
H7    H     H_    0.704562 0.433325 0.325799 0.129813
H8    H     H_    0.088722 0.628367 0.138266 0.229214
H9    H     H_    0.855057 0.522067 0.332500 0.152655
H10   H     H_    0.059721 0.838133 0.745533 0.197680
H11   H     H_    0.111363 0.904264 0.939260 0.165909
H12   H     H_    0.976896 0.435117 0.998262 0.209863
H13   H     H_    0.062606 0.546521 0.716565 0.205005
H14   H     H_    0.355729 0.195039 0.905595 0.181568
H15   H     H_    0.510242 0.251819 0.820247 0.172271
H16   H     H_    0.582101 0.065252 0.403070 0.088641
H17   H     H_    0.318025 0.646554 0.672018 0.199197
H18   H     H_    0.573788 0.906084 0.402930 0.098717
H19   H     H_    0.861093 0.931694 0.094307 0.230202
H20   H     H_    0.026642 0.099859 0.224103 0.214623
H21   H     H_    0.100782 0.025313 0.255397 0.226885
H22   H     H_    0.577060 0.288547 0.669548 0.157117
H23   H     H_    0.886341 0.302987 0.041867 0.197479
H24   H     H_    0.352379 0.679252 0.324491 0.155143
H25   H     H_    0.391420 0.126518 0.319941 0.153203
H26   H     H_    0.282148 0.448127 0.982760 0.193094
H27   H     H_    0.439194 0.122449 0.634959 0.176224
H28   H     H_    0.935748 0.857784 0.126280 0.226497
H29   H     H_    0.156633 0.484160 0.323441 0.100286
H30   H     H_    0.312119 0.138103 0.174330 0.152574
N1    N     N_R   0.291070 0.347930 0.293870 -0.056810
N2    N     N_R   0.497240 0.291100 0.443210 -0.052704
N3    N     N_R   0.347890 0.554050 0.556810 -0.060925
N4    N     N_R   0.554050 0.347900 0.556830 -0.044182
N5    N     N_R   0.291070 0.497250 0.443190 -0.058252
N6    N     N_R   0.497240 0.554030 0.706140 -0.105006
N7    N     N_R   0.347890 0.291110 0.293870 -0.055465
N8    N     N_R   0.445950 0.652100 0.443170 -0.059553
N9    N     N_R   0.708930 0.502750 0.556810 -0.047783
N10   N     N_R   0.502760 0.445970 0.293860 -0.053692
N11   N     N_R   0.652110 0.708890 0.706130 -0.083001
N12   N     N_R   0.708930 0.652070 0.706130 -0.062606
N13   N     N_R   0.445950 0.502780 0.293850 -0.052639
N14   N     N_R   0.502760 0.708900 0.556790 -0.056855
N15   N     N_R   0.652110 0.445950 0.443190 -0.051175
N16   N     N_R   0.554050 0.497220 0.706150 -0.092117
Ni1   Ni    Ni4+2 0.369690 0.500010 0.369700 0.221920
Ni2   Ni    Ni4+2 0.630310 0.499990 0.630300 0.267723
Ni3   Ni    Ni4+2 0.500000 0.369720 0.369720 0.255550
Ni4   Ni    Ni4+2 0.500000 0.630280 0.630280 0.297190

loop_
_geom_bond_atom_site_label_1
_geom_bond_atom_site_label_2
_ccdc_geom_bond_type
C25   C26   A    
C56   N9    A    
C11   C13   A    
C26   H11   S    
N2    Ni3   S    
C19   C20   A    
N9    Ni2   S    
C17   H12   S    
C56   H3    S    
Br2   C41   S    
C1    N1    A    
N11   N12   A    
C64   N10   A    
C37   C38   A    
C32   C38   A    
C10   C11   A    
C13   C14   A    
N1    Ni1   S    
C65   N11   A    
C2    C8    A    
C20   C21   A    
C49   H16   S    
N9    N15   A    
C2    N13   A    
Br7   C55   S    
C14   C15   A    
N11   Ni4   S    
C28   H17   S    
N8    N14   A    
Br1   C65   S    
C1    C63   A    
C20   C31   S    
C44   C46   A    
C18   C19   A    
C57   C58   A    
C16   C23   A    
C50   H18   S    
Br12  C21   S    
C18   H9    S    
C64   H4    S    
N1    N7    A    
C8    C64   A    
C30   H13   S    
C28   N3    A    
Br10  C4    S    
N3    N5    A    
C16   H25   S    
N7    Ni3   S    
C15   C17   A    
C54   C55   A    
Br15  C35   S    
C5    N15   A    
N5    Ni1   S    
Br3   C44   S    
C60   H21   S    
C43   C44   A    
C45   N8    A    
C9    C65   A    
C15   H23   S    
N6    N16   A    
C66   N12   A    
C25   C31   A    
C42   C50   S    
Br14  C29   S    
N3    Ni4   S    
C42   C48   A    
C58   C59   S    
N8    Ni1   S    
C32   C41   S    
C3    C6    A    
C40   H22   S    
C3    H6    S    
C6    C43   S    
C55   C57   A    
C62   C63   A    
Br5   C50   S    
C5    H7    S    
C4    C12   A    
C33   C35   A    
C8    C37   S    
C29   C30   A    
C35   C36   A    
C51   C53   A    
C52   H29   S    
C59   C60   S    
C21   C22   A    
C12   C61   A    
C52   N5    A    
C12   C33   S    
C10   C17   A    
C23   C40   A    
N14   Ni4   S    
C41   H15   S    
C46   C47   A    
C9    C66   A    
C40   N4    A    
N12   Ni2   S    
C51   C58   A    
C30   C31   A    
C45   H24   S    
C27   C29   A    
C32   C33   A    
C61   N6    A    
C7    C19   S    
C5    C7    A    
Br8   C61   S    
C18   C24   A    
C53   C63   S    
C26   C27   A    
N10   Ni3   S    
Br13  C27   S    
C36   C37   A    
Br9   C11   S    
C28   C34   A    
Br6   C54   S    
C38   C39   S    
C59   H28   S    
C7    C56   A    
C39   H14   S    
N16   Ni2   S    
N2    N4    A    
C4    N16   A    
C22   C34   S    
C10   H8    S    
C23   C47   S    
C3    N14   A    
C2    H5    S    
C1    H2    S    
C48   C49   S    
N10   N13   A    
C39   C41   S    
C62   N7    A    
C42   C43   A    
Br16  C39   S    
Br11  C14   S    
C6    C45   A    
C22   C24   A    
Br4   C49   S    
C46   H27   S    
C13   C24   S    
C9    C57   S    
C49   C50   S    
C53   C54   A    
N15   Ni3   S    
N6    Ni4   S    
C47   C48   A    
N13   Ni1   S    
C25   H10   S    
N4    Ni2   S    
C36   H26   S    
C66   H1    S    
C59   H19   S    
C62   H30   S    
C51   C60   S    
C60   H20   S    
C16   N2    A    
C34   C52   A    
