data_mof_unit_61473.cif
_audit_creation_date              2012-12-10T18:06:57-0500
_audit_creation_method            fapswitch 2.2
_symmetry_space_group_name_H-M    P1
_symmetry_Int_Tables_number       1
_space_group_crystal_system       triclinic
_cell_length_a                    28.513774
_cell_length_b                    18.36596
_cell_length_c                    21.760342
_cell_angle_alpha                 89.696048
_cell_angle_beta                  139.892427
_cell_angle_gamma                 90.073892
_cell_volume                      7341.10311839

loop_
_atom_site_label
_atom_site_type_symbol
_atom_type_description
_atom_site_fract_x
_atom_site_fract_y
_atom_site_fract_z
_atom_type_partial_charge
C1    C     C_R   0.860096 0.500108 0.860542 0.865666
C2    C     C_R   0.139904 0.499891 0.139458 0.865665
C3    C     C_R   0.360096 0.000109 0.860542 0.865665
C4    C     C_R   0.639904 0.999891 0.139458 0.865666
C5    C     C_R   0.035752 0.453221 0.818755 -0.272384
C6    C     C_R   0.964249 0.546779 0.181245 -0.272384
C7    C     C_R   0.535753 0.953222 0.818756 -0.272384
C8    C     C_R   0.464245 0.046775 0.181241 -0.272385
C9    C     C_R   0.040103 0.454245 0.759478 0.142952
C10   C     C_R   0.959897 0.545755 0.240523 0.142953
C11   C     C_R   0.540104 0.954246 0.759479 0.142952
C12   C     C_R   0.459893 0.045752 0.240518 0.142954
C13   C     C_R   0.999646 0.505779 0.685459 -0.073896
C14   C     C_R   0.000354 0.494221 0.314541 -0.073896
C15   C     C_R   0.499646 0.005780 0.685459 -0.073897
C16   C     C_R   0.500354 0.994220 0.314541 -0.073899
C17   C     C_1   0.782557 0.500324 0.782935 -0.180171
C18   C     C_1   0.217443 0.499676 0.217065 -0.180171
C19   C     C_1   0.282557 0.000324 0.782935 -0.180172
C20   C     C_1   0.717443 0.999676 0.217065 -0.180173
C21   C     C_1   0.717259 0.500291 0.717504 -0.174848
C22   C     C_1   0.282740 0.499709 0.282496 -0.174847
C23   C     C_1   0.217259 0.000291 0.717504 -0.174848
C24   C     C_1   0.782741 0.999709 0.282496 -0.174848
C25   C     C_R   0.999866 0.639922 0.499987 0.835598
C26   C     C_R   0.000134 0.360078 0.500013 0.835598
C27   C     C_R   0.499866 0.139922 0.499987 0.835598
C28   C     C_R   0.500134 0.860078 0.500013 0.835599
C29   C     C_R   0.000107 0.501846 0.618987 0.826751
C30   C     C_R   0.999893 0.498154 0.381013 0.826750
C31   C     C_R   0.500107 0.001846 0.618987 0.826750
C32   C     C_R   0.499893 0.998153 0.381013 0.826749
C33   C     C_R   0.500130 0.639714 0.499994 0.837514
C34   C     C_R   0.499870 0.360286 0.500006 0.837514
C35   C     C_R   0.000130 0.139714 0.499994 0.837515
C36   C     C_R   0.999870 0.860286 0.500006 0.837514
C37   C     C_R   0.639715 0.500113 0.639800 0.838291
C38   C     C_R   0.360285 0.499887 0.360200 0.838292
C39   C     C_R   0.139715 0.000113 0.639800 0.838291
C40   C     C_R   0.860285 0.999887 0.360200 0.838293
C41   C     C_1   0.999619 0.717448 0.499962 -0.176230
C42   C     C_1   0.000381 0.282552 0.500038 -0.176230
C43   C     C_1   0.499619 0.217448 0.499962 -0.176230
C44   C     C_1   0.500381 0.782552 0.500038 -0.176229
C45   C     C_R   0.994933 0.500298 0.876075 0.861342
C46   C     C_R   0.005067 0.499702 0.123925 0.861343
C47   C     C_R   0.494934 0.000298 0.876075 0.861342
C48   C     C_R   0.505066 0.999702 0.123925 0.861343
C49   C     C_1   0.499663 0.282746 0.500050 -0.172328
C50   C     C_1   0.500337 0.717254 0.499949 -0.172328
C51   C     C_1   0.999663 0.782746 0.500050 -0.172328
C52   C     C_1   0.000337 0.217254 0.499949 -0.172328
C53   C     C_R   0.888789 0.594133 0.697072 0.111389
C54   C     C_R   0.111210 0.405866 0.302928 0.111389
C55   C     C_R   0.388788 0.094131 0.697071 0.111388
C56   C     C_R   0.611215 0.905872 0.302932 0.111387
C57   C     C_R   0.852786 0.648161 0.626711 -0.185598
C58   C     C_R   0.147213 0.351838 0.373288 -0.185599
C59   C     C_R   0.352784 0.148158 0.626709 -0.185598
C60   C     C_R   0.647221 0.851846 0.373296 -0.185595
C61   C     C_R   0.869170 0.659646 0.581480 0.201564
C62   C     C_R   0.130829 0.340353 0.418520 0.201563
C63   C     C_R   0.369167 0.159644 0.581477 0.201563
C64   C     C_R   0.630838 0.840360 0.418528 0.201563
C65   C     C_R   0.919057 0.613517 0.602517 -0.192807
C66   C     C_R   0.080942 0.386483 0.397483 -0.192807
C67   C     C_R   0.419055 0.113516 0.602515 -0.192807
C68   C     C_R   0.580948 0.886487 0.397489 -0.192807
C69   C     C_R   0.954466 0.556807 0.670744 -0.032067
C70   C     C_R   0.045534 0.443193 0.329256 -0.032068
C71   C     C_R   0.454465 0.056806 0.670743 -0.032067
C72   C     C_R   0.545537 0.943195 0.329259 -0.032066
C73   C     C_R   0.944601 0.551093 0.725384 0.100049
C74   C     C_R   0.055398 0.448906 0.274616 0.100049
C75   C     C_R   0.444601 0.051092 0.725383 0.100049
C76   C     C_R   0.555400 0.948909 0.274618 0.100048
C77   C     C_R   0.989537 0.501041 0.803662 -0.105898
C78   C     C_R   0.010463 0.498959 0.196338 -0.105899
C79   C     C_R   0.489537 0.001041 0.803662 -0.105897
C80   C     C_R   0.510462 0.998959 0.196337 -0.105896
Cu1   Cu    Cu3+1 0.000000 0.427490 0.000000 0.961329
Cu2   Cu    Cu3+1 0.000000 0.572510 0.000000 0.961329
Cu3   Cu    Cu3+1 0.500000 0.927490 0.000000 0.961330
Cu4   Cu    Cu3+1 0.500000 0.072510 0.000000 0.961330
Cu5   Cu    Cu3+1 0.072520 0.500000 0.572540 0.976455
Cu6   Cu    Cu3+1 0.927480 0.500000 0.427460 0.976456
Cu7   Cu    Cu3+1 0.572520 0.000000 0.572540 0.976454
Cu8   Cu    Cu3+1 0.427480 0.000000 0.427460 0.976455
Cu9   Cu    Cu3+1 0.500000 0.500000 0.438200 0.964834
Cu10  Cu    Cu3+1 0.500000 0.500000 0.561800 0.964834
Cu11  Cu    Cu3+1 1.000000 0.000000 0.438200 0.964832
Cu12  Cu    Cu3+1 0.000000 1.000000 0.561800 0.964834
H1    H     H_    0.069490 0.414841 0.877881 0.159959
H2    H     H_    0.930511 0.585160 0.122120 0.159960
H3    H     H_    0.569492 0.914843 0.877884 0.159959
H4    H     H_    0.430503 0.085154 0.122112 0.159957
H5    H     H_    0.811040 0.681150 0.606464 0.160137
H6    H     H_    0.188959 0.318848 0.393535 0.160138
H7    H     H_    0.311037 0.181147 0.606462 0.160139
H8    H     H_    0.688969 0.818858 0.393544 0.160137
H9    H     H_    0.930356 0.622924 0.565687 0.138657
H10   H     H_    0.069643 0.377075 0.434312 0.138656
H11   H     H_    0.430354 0.122923 0.565685 0.138658
H12   H     H_    0.569650 0.877078 0.434318 0.138660
O1    O     O_R   0.894200 0.438770 0.894190 -0.580213
O2    O     O_R   0.105800 0.561230 0.105810 -0.580213
O3    O     O_R   0.105800 0.438770 0.105810 -0.588566
O4    O     O_R   0.894200 0.561230 0.894190 -0.588566
O5    O     O_R   0.394200 0.938770 0.894190 -0.580213
O6    O     O_R   0.605800 0.061230 0.105810 -0.580212
O7    O     O_R   0.605800 0.938770 0.105810 -0.588566
O8    O     O_R   0.394200 0.061230 0.894190 -0.588566
O9    O     O_R   0.999990 0.438770 0.909810 -0.594630
O10   O     O_R   0.000010 0.561230 0.090190 -0.594630
O11   O     O_R   0.000010 0.438770 0.090190 -0.573756
O12   O     O_R   0.999990 0.561230 0.909810 -0.573755
O13   O     O_R   0.499990 0.938770 0.909810 -0.594630
O14   O     O_R   0.500010 0.061230 0.090190 -0.594628
O15   O     O_R   0.500010 0.938770 0.090190 -0.573755
O16   O     O_R   0.499990 0.061230 0.909810 -0.573756
O17   O     O_R   0.061240 0.605830 0.561270 -0.580596
O18   O     O_R   0.938760 0.394170 0.438730 -0.580595
O19   O     O_R   0.938760 0.605830 0.438730 -0.586342
O20   O     O_R   0.061240 0.394170 0.561270 -0.586342
O21   O     O_R   0.561240 0.105830 0.561270 -0.580595
O22   O     O_R   0.438760 0.894170 0.438730 -0.580595
O23   O     O_R   0.438760 0.105830 0.438730 -0.586343
O24   O     O_R   0.561240 0.894170 0.561270 -0.586343
O25   O     O_R   0.061260 0.500000 0.651450 -0.562012
O26   O     O_R   0.938740 0.500000 0.348550 -0.562012
O27   O     O_R   0.561260 1.000000 0.651450 -0.562011
O28   O     O_R   0.438740 1.000000 0.348550 -0.562011
O29   O     O_R   0.938780 0.500000 0.528960 -0.594264
O30   O     O_R   0.061220 0.500000 0.471040 -0.594264
O31   O     O_R   0.438780 0.000000 0.528960 -0.594264
O32   O     O_R   0.561220 0.000000 0.471040 -0.594266
O33   O     O_R   0.500010 0.605810 0.447830 -0.586247
O34   O     O_R   0.499990 0.394190 0.552170 -0.586247
O35   O     O_R   0.499990 0.605810 0.552170 -0.580175
O36   O     O_R   0.500010 0.394190 0.447830 -0.580176
O37   O     O_R   0.000010 0.105810 0.447830 -0.586248
O38   O     O_R   0.999990 0.894190 0.552170 -0.586247
O39   O     O_R   0.999990 0.105810 0.552170 -0.580175
O40   O     O_R   0.000010 0.894190 0.447830 -0.580176
O41   O     O_R   0.605800 0.500000 0.553630 -0.584701
O42   O     O_R   0.394200 0.500000 0.446370 -0.584701
O43   O     O_R   0.105800 0.000000 0.553630 -0.584701
O44   O     O_R   0.894200 0.000000 0.446370 -0.584701
O45   O     O_R   0.605820 0.500000 0.658030 -0.581788
O46   O     O_R   0.394180 0.500000 0.341970 -0.581790
O47   O     O_R   0.105820 1.000000 0.658030 -0.581789
O48   O     O_R   0.894180 0.000000 0.341970 -0.581790
N1    N     N_3   0.863497 0.579856 0.732718 -0.582976
H13   H     H_    0.808844 0.564457 0.675372 0.212582
H14   H     H_    0.865841 0.628534 0.759702 0.238491
N2    N     N_3   0.136502 0.420143 0.267282 -0.582975
H15   H     H_    0.191156 0.435541 0.324628 0.212582
H16   H     H_    0.134158 0.371465 0.240297 0.238491
N3    N     N_3   0.363497 0.079854 0.732717 -0.582977
H17   H     H_    0.308843 0.064455 0.675372 0.212582
H18   H     H_    0.365840 0.128533 0.759702 0.238492
N4    N     N_3   0.636505 0.920149 0.267284 -0.582976
H19   H     H_    0.691157 0.935551 0.324628 0.212582
H20   H     H_    0.634164 0.871470 0.240302 0.238491
N5    N     N_3   0.832189 0.716506 0.511180 -0.594454
H21   H     H_    0.848712 0.717121 0.481751 0.217785
H22   H     H_    0.848407 0.766147 0.546210 0.217877
N6    N     N_3   0.167810 0.283493 0.488819 -0.594454
H23   H     H_    0.151286 0.282878 0.518248 0.217785
H24   H     H_    0.151592 0.233852 0.453788 0.217877
N7    N     N_3   0.332185 0.216503 0.511176 -0.594454
H25   H     H_    0.348709 0.217118 0.481747 0.217785
H26   H     H_    0.348402 0.266144 0.546205 0.217877
N8    N     N_3   0.667822 0.783502 0.488831 -0.594455
H27   H     H_    0.651298 0.782886 0.518260 0.217785
H28   H     H_    0.651607 0.733861 0.453804 0.217876
N9    N     N_3   0.085241 0.402033 0.773912 -0.574051
H29   H     H_    0.138562 0.408073 0.843294 0.223458
H30   H     H_    0.067584 0.349936 0.768619 0.218318
N10   N     N_3   0.914760 0.597968 0.226089 -0.574051
H31   H     H_    0.861439 0.591930 0.156707 0.223458
H32   H     H_    0.932419 0.650065 0.231385 0.218318
N11   N     N_3   0.585243 0.902035 0.773915 -0.574050
H33   H     H_    0.638565 0.908077 0.843296 0.223458
H34   H     H_    0.567588 0.849938 0.768624 0.218318
N12   N     N_3   0.414751 0.097961 0.226079 -0.574047
H35   H     H_    0.361429 0.091914 0.156699 0.223458
H36   H     H_    0.432402 0.150059 0.231364 0.218318

loop_
_geom_bond_atom_site_label_1
_geom_bond_atom_site_label_2
_ccdc_geom_bond_type
C58   C62   A    
C62   N6    S    
N7    H25   S    
Cu1   O3    S    
Cu11  O37   S    
C53   N1    S    
N5    H21   S    
C56   C76   A    
C55   C59   A    
Cu12  O44   S    
C59   H7    S    
C66   H10   S    
C29   O29   A    
C58   H6    S    
C65   H9    S    
C72   C76   A    
C16   C72   A    
Cu11  O43   S    
Cu1   Cu2   S    
C67   H11   S    
Cu5   Cu6   S    
C35   O39   A    
Cu9   O41   S    
N7    H26   S    
Cu4   O8    S    
C7    C79   A    
C13   C69   A    
C46   O11   A    
Cu3   Cu4   S    
C64   C68   A    
C13   C29   S    
N2    H15   S    
C33   O35   A    
Cu11  O40   S    
Cu8   O23   S    
N11   H34   S    
C54   N2    S    
Cu11  O48   S    
C23   C39   S    
C6    C78   A    
C2    C18   S    
Cu3   O15   S    
C22   C38   S    
C39   O47   A    
C2    O3    A    
C40   O48   A    
Cu5   O20   S    
Cu7   O27   S    
Cu12  O39   S    
C9    C13   A    
N8    H27   S    
C38   O42   A    
C31   O27   A    
Cu5   O25   S    
C54   C74   A    
C27   O23   A    
N2    H16   S    
C73   C77   A    
C29   O25   A    
C20   C24   T    
N10   H32   S    
N9    H30   S    
C8    H4    S    
C70   C74   A    
Cu8   O22   S    
N3    H18   S    
C3    C19   S    
Cu2   O4    S    
C8    C12   A    
N1    H14   S    
Cu12  O38   S    
C61   N5    S    
C68   C72   A    
Cu5   O30   S    
C55   C75   A    
N6    H24   S    
C12   N12   S    
N5    H22   S    
C14   C70   A    
C75   C79   A    
C26   O20   A    
C14   C30   S    
Cu10  O45   S    
Cu7   O24   S    
Cu10  O34   S    
C28   O22   A    
Cu10  O35   S    
C48   O15   A    
N4    H20   S    
Cu1   O1    S    
C46   O10   A    
C12   C16   A    
C11   N11   S    
Cu2   O10   S    
C31   O31   A    
C10   C14   A    
C25   C41   S    
Cu11  Cu12  S    
C32   O32   A    
C62   C66   A    
C19   C23   T    
Cu6   O26   S    
C48   O14   A    
C6    H2    S    
C33   C50   S    
C30   O26   A    
C33   O33   A    
C15   C31   S    
C34   O34   A    
Cu4   O6    S    
C56   C60   A    
C56   N4    S    
Cu7   Cu8   S    
C7    C11   A    
N11   H33   S    
C63   C67   A    
C5    C9    A    
C45   O9    A    
Cu6   O29   S    
C63   N7    S    
N3    H17   S    
C3    O8    A    
Cu4   O16   S    
Cu9   O36   S    
C57   H5    S    
Cu1   O11   S    
Cu12  O47   S    
Cu3   O5    S    
Cu5   O17   S    
C69   C73   A    
C25   O19   A    
C36   C51   S    
C15   C71   A    
C35   O37   A    
N6    H23   S    
Cu6   O19   S    
C4    O7    A    
C11   C15   A    
C5    C77   A    
Cu3   O7    S    
C76   C80   A    
Cu8   O28   S    
C64   N8    S    
C32   O28   A    
C9    N9    S    
N10   H31   S    
C26   C42   S    
C46   C78   S    
N4    H19   S    
C54   C58   A    
C44   C50   T    
C27   C43   S    
C4    O6    A    
Cu9   O46   S    
C40   O44   A    
C53   C57   A    
Cu7   O21   S    
C18   C22   T    
C59   C63   A    
Cu7   O32   S    
C43   C49   T    
C68   H12   S    
Cu8   O31   S    
C37   O45   A    
C60   H8    S    
C6    C10   A    
C5    H1    S    
C57   C61   A    
C41   C51   T    
C16   C32   S    
C7    H3    S    
Cu9   O33   S    
C1    O1    A    
C60   C64   A    
C10   N10   S    
C30   O30   A    
C48   C80   S    
C36   O38   A    
C39   O43   A    
Cu9   Cu10  S    
Cu2   O12   S    
Cu10  O42   S    
C47   C79   S    
C71   C75   A    
C27   O21   A    
C45   O12   A    
Cu3   O13   S    
C66   C70   A    
C25   O17   A    
C3    O5    A    
C65   C69   A    
C53   C73   A    
C55   N3    S    
C24   C40   S    
C28   C44   S    
C67   C71   A    
Cu2   O2    S    
C36   O40   A    
Cu6   O18   S    
N8    H28   S    
C1    O4    A    
C2    O2    A    
C4    C20   S    
C61   C65   A    
C47   O13   A    
C21   C37   S    
C1    C17   S    
C34   C49   S    
Cu4   O14   S    
N9    H29   S    
C74   C78   A    
Cu1   O9    S    
C35   C52   S    
C8    C80   A    
C47   O16   A    
C45   C77   S    
C26   O18   A    
C37   O41   A    
N12   H35   S    
N12   H36   S    
C38   O46   A    
C28   O24   A    
C42   C52   T    
N1    H13   S    
C34   O36   A    
C17   C21   T    
