data_mof_unit_24283.cif
_audit_creation_date              2012-12-11T18:37:44-0500
_audit_creation_method            fapswitch 2.2
_symmetry_space_group_name_H-M    P1
_symmetry_Int_Tables_number       1
_space_group_crystal_system       triclinic
_cell_length_a                    8.209044
_cell_length_b                    14.4165
_cell_length_c                    26.987105
_cell_angle_alpha                 92.781911
_cell_angle_beta                  92.894266
_cell_angle_gamma                 87.825704
_cell_volume                      3183.95750934

loop_
_atom_site_label
_atom_site_type_symbol
_atom_type_description
_atom_site_fract_x
_atom_site_fract_y
_atom_site_fract_z
_atom_type_partial_charge
Ba1   Ba    Ba6+2 0.849670 0.455410 0.524690 1.647186
Ba2   Ba    Ba6+2 0.340150 0.544510 0.475310 1.661281
C1    C     C_3   0.687764 0.107426 0.659515 -0.381732
C2    C     C_R   0.835158 0.547807 0.169433 0.574348
C3    C     C_2   0.717492 0.501079 0.270100 -0.126428
C4    C     C_3   0.174232 0.211049 0.667905 0.403203
C5    C     C_3   0.686170 0.508413 0.325288 -0.093201
C6    C     C_1   0.975630 0.478943 0.342023 0.051430
C7    C     C_2   0.008409 0.475254 0.294035 -0.095892
C8    C     C_2   0.872178 0.486370 0.254401 0.183802
C9    C     C_R   0.991383 0.482995 0.100453 -0.079106
C10   C     C_R   0.057186 0.414311 0.131851 -0.034140
C11   C     C_R   0.166585 0.346647 0.112466 -0.058772
C12   C     C_3   0.656982 0.204480 0.640324 0.391339
C13   C     C_R   0.879471 0.549946 0.119524 -0.023460
C14   C     C_2   0.841661 0.522213 0.356483 -0.275504
C15   C     C_2   0.345422 0.470014 0.641276 -0.277383
C16   C     C_3   0.265644 0.122977 0.685335 -0.372258
C17   C     C_R   0.179238 0.411595 0.978986 0.020146
C18   C     C_R   0.025053 0.560168 0.969502 0.020426
C19   C     C_R   0.123955 0.486378 0.949163 0.049951
C20   C     C_R   0.268488 0.336962 0.956081 -0.103941
C21   C     C_R   0.305765 0.337091 0.906366 -0.062327
C22   C     C_R   0.257526 0.412008 0.877079 -0.023614
C23   C     C_3   0.532797 0.674877 0.622015 0.298170
C24   C     C_R   0.167558 0.487105 0.898400 -0.081083
C25   C     C_R   0.120950 0.562662 0.868959 -0.036512
C26   C     C_R   0.167631 0.562860 0.818939 0.597240
C27   C     C_R   0.296094 0.411884 0.826650 0.572996
C28   C     C_3   0.162041 0.264462 0.429701 0.316373
C29   C     C_2   0.436702 0.446614 0.729817 -0.099286
C30   C     C_3   0.445753 0.410770 0.676626 -0.049405
C31   C     C_1   0.213016 0.515745 0.656742 0.037628
C32   C     C_2   0.172529 0.518565 0.704349 -0.107876
C33   C     C_2   0.293205 0.485512 0.744852 0.184901
C34   C     C_3   0.527974 0.696970 0.677589 -0.364075
C35   C     C_R   0.142205 0.413099 0.030244 0.020444
C36   C     C_R   0.036072 0.484216 0.049813 0.050600
C37   C     C_R   0.973627 0.556366 0.019231 0.019994
C38   C     C_R   0.208093 0.345868 0.062967 -0.099148
C39   C     C_R   0.813280 0.618234 0.088302 -0.058018
C40   C     C_3   0.169479 0.159872 0.422584 -0.414977
C41   C     C_R   0.981923 0.635683 0.939192 -0.099971
C42   C     C_R   0.029533 0.636966 0.890296 -0.061063
C43   C     C_R   0.859615 0.621772 0.039503 -0.102949
C44   C     C_R   0.700314 0.065763 0.477506 -0.031995
C45   C     C_3   0.070936 0.884476 0.344597 0.276696
C46   C     C_R   0.518748 0.199533 0.505053 0.056416
C47   C     C_R   0.384584 0.231020 0.531883 -0.286592
C48   C     C_R   0.284461 0.168571 0.552406 0.001486
C49   C     C_R   0.327590 0.074022 0.551067 -0.154525
C50   C     C_R   0.468895 0.040907 0.527652 -0.005571
C51   C     C_R   0.564283 0.102887 0.503106 -0.029773
C52   C     C_3   0.034559 0.742092 0.575645 0.312735
C53   C     C_R   0.647344 0.909246 0.501901 -0.019882
C54   C     C_R   0.745108 0.970548 0.477939 0.014825
C55   C     C_R   0.688674 0.812976 0.499679 0.017745
C56   C     C_3   0.175643 0.968832 0.351959 -0.416145
C57   C     C_R   0.821503 0.779324 0.472789 -0.259990
C58   C     C_R   0.924547 0.839620 0.451712 -0.011855
C59   C     C_R   0.887374 0.935703 0.454928 -0.155326
C60   C     C_R   0.510996 0.945743 0.526945 -0.053825
C61   C     C_3   0.039970 0.846739 0.585924 -0.385729
C62   C     C_3   0.673822 0.319055 0.377246 0.306503
C63   C     C_3   0.722344 0.272657 0.328007 -0.366407
C64   C     C_3   0.854594 0.731274 0.280597 0.163326
C65   C     C_3   0.109539 0.271703 0.711592 -0.159634
C66   C     C_3   0.018151 0.219960 0.749197 -0.335585
C67   C     C_3   0.662772 0.758710 0.339568 0.832937
C68   C     C_3   0.577123 0.836653 0.369166 -0.196439
C69   C     C_R   0.013334 0.414818 0.182089 0.596866
H1    H     H_    0.710972 0.206306 0.603523 0.093754
H2    H     H_    0.784231 0.347899 0.396619 0.015976
H3    H     H_    0.580315 0.374944 0.370540 0.032736
H4    H     H_    0.819205 0.087038 0.659539 0.149286
H5    H     H_    0.807147 0.212255 0.334930 0.134324
H6    H     H_    0.784997 0.321721 0.305834 0.081755
H7    H     H_    0.612195 0.248262 0.306359 0.125441
H8    H     H_    0.523224 0.216517 0.635602 -0.084286
H9    H     H_    0.620432 0.056287 0.635020 0.073478
H10   H     H_    0.408146 0.658068 0.607514 0.016757
H11   H     H_    0.616820 0.613622 0.615982 0.071114
H12   H     H_    0.265370 0.139195 0.396252 0.132781
H13   H     H_    0.440899 0.756327 0.684909 0.132260
H14   H     H_    0.488128 0.635720 0.696489 0.068168
H15   H     H_    0.651371 0.715081 0.692974 0.134423
H16   H     H_    0.645617 0.104893 0.697835 0.114171
H17   H     H_    0.359211 0.140997 0.715040 0.100613
H18   H     H_    0.048108 0.874061 0.303974 0.087518
H19   H     H_    0.949855 0.898050 0.360202 0.021853
H20   H     H_    0.275119 0.964558 0.325626 0.124846
H21   H     H_    0.099001 0.031431 0.343233 0.091391
H22   H     H_    0.227714 0.974679 0.390665 0.129870
H23   H     H_    0.198728 0.126520 0.458029 0.071434
H24   H     H_    0.747544 0.720903 0.365992 -0.221368
H25   H     H_    0.664202 0.890156 0.382263 0.028779
H26   H     H_    0.520028 0.808807 0.401384 0.098122
H27   H     H_    0.481985 0.870087 0.345069 0.110738
H28   H     H_    0.133793 0.466505 0.283393 0.132027
H29   H     H_    0.221345 0.293469 0.135673 0.122068
H30   H     H_    0.533355 0.426153 0.756400 0.125232
H31   H     H_    0.373734 0.277560 0.890910 0.121705
H32   H     H_    0.308248 0.275689 0.975234 0.069433
H33   H     H_    0.295583 0.292337 0.051799 0.069738
H34   H     H_    0.048531 0.136149 0.407970 0.113716
H35   H     H_    0.613647 0.503825 0.243648 0.129485
H36   H     H_    0.725182 0.670265 0.101640 0.126291
H37   H     H_    0.914045 0.696434 0.952543 0.069753
H38   H     H_    0.263351 0.254483 0.650878 -0.060854
H39   H     H_    0.993045 0.696780 0.869024 0.121035
H40   H     H_    0.050181 0.541518 0.713795 0.138067
H41   H     H_    0.800364 0.675753 0.018174 0.070370
H42   H     H_    0.841014 0.561615 0.391831 0.077021
H43   H     H_    0.363781 0.458162 0.601912 0.082490
H44   H     H_    0.349184 0.304127 0.532916 0.063782
H45   H     H_    0.909013 0.723127 0.564431 -0.005983
H46   H     H_    0.248470 0.026220 0.567060 0.069408
H47   H     H_    0.967979 0.982960 0.439325 0.054918
H48   H     H_    0.850866 0.705466 0.470990 0.061432
H49   H     H_    0.773517 0.109695 0.457044 0.105402
H50   H     H_    0.179907 0.073986 0.699569 0.121923
H51   H     H_    0.434695 0.900685 0.545801 0.093078
H52   H     H_    0.327376 0.087006 0.653933 0.084048
H53   H     H_    0.283734 0.289118 0.441745 0.004403
H54   H     H_    0.074167 0.283722 0.458595 0.081808
H55   H     H_    0.782205 0.674780 0.263598 0.125406
H56   H     H_    0.116744 0.722126 0.545283 0.070212
H57   H     H_    0.948400 0.702738 0.307430 0.037000
H58   H     H_    0.917272 0.762582 0.250375 0.081331
H59   H     H_    0.926495 0.174377 0.730403 0.163385
H60   H     H_    0.105027 0.177105 0.772145 0.118896
H61   H     H_    0.955013 0.271100 0.774415 0.128767
H62   H     H_    0.214357 0.304349 0.731554 0.112511
H63   H     H_    0.029457 0.328594 0.696716 0.145998
H64   H     H_    0.950982 0.869425 0.614126 0.129149
H65   H     H_    0.009412 0.883825 0.551531 0.067922
H66   H     H_    0.164456 0.865690 0.599940 0.115392
N1    N     N_R   0.906230 0.482741 0.201209 -0.419785
N2    N     N_R   0.252863 0.487300 0.797583 -0.419802
O1    O     O_2   0.918080 0.549800 0.616640 -0.456038
O2    O     O_2   0.265229 0.829009 0.453656 -0.495000
O3    O     O_3   0.152900 0.804038 0.362121 -0.570515
O4    O     O_3   0.150070 0.549720 0.556460 -0.501036
O5    O     O_3   0.546340 0.387390 0.478340 -0.483083
O6    O     O_2   0.398940 0.728800 0.517420 -0.465414
O7    O     O_3   0.587511 0.752428 0.599078 -0.645002
O8    O     O_2   0.354057 0.569683 0.327480 -0.461975
O9    O     O_3   0.541809 0.703627 0.315287 -0.589796
O10   O     O_2   0.068849 0.353582 0.208508 -0.599122
O11   O     O_2   0.367000 0.343295 0.808650 -0.624668
O12   O     O_3   0.604585 0.252510 0.404433 -0.639541
O13   O     O_2   0.733167 0.604711 0.184364 -0.616589
O14   O     O_2   0.133788 0.631034 0.794759 -0.598766
O15   O     O_3   0.658250 0.379560 0.591530 -0.483888
O16   O     O_2   0.782886 0.450730 0.677437 -0.495590
O17   O     O_3   0.082821 0.698353 0.619266 -0.625901
O18   O     O_3   0.727495 0.271520 0.673756 -0.587337
O19   O     O_2   0.790750 0.271170 0.482550 -0.481488
O20   O     O_3   0.062300 0.331660 0.568480 -0.474283
O21   O     O_2   0.946940 0.166530 0.541401 -0.497372
O22   O     O_3   0.752338 0.799452 0.303494 -0.675137
O23   O     O_3   0.043081 0.186268 0.634727 -0.585700
O24   O     O_2   0.271610 0.450170 0.383330 -0.461025
O25   O     O_3   0.039630 0.450200 0.443530 -0.503051
O26   O     O_3   0.531440 0.620360 0.408460 -0.472910
O27   O     O_3   0.113322 0.301461 0.384204 -0.627367
O28   O     O_3   0.643350 0.612530 0.521650 -0.475200
O29   O     O_3   0.127390 0.668260 0.431510 -0.449434
P1    P     P_3+3 0.090020 0.577590 0.608380 0.992298
P2    P     P_3+3 0.614340 0.285150 0.467650 0.969599
P3    P     P_3+3 0.085290 0.211601 0.573909 0.947125
P4    P     P_3+3 0.099670 0.422330 0.391610 0.996366
P5    P     P_3+3 0.114417 0.789110 0.424723 0.971750
P6    P     P_3+3 0.655400 0.381456 0.655914 0.957553
P7    P     P_3+3 0.583685 0.728519 0.534834 0.938541
P8    P     P_3+3 0.528810 0.598153 0.343980 1.005280

loop_
_geom_bond_atom_site_label_1
_geom_bond_atom_site_label_2
_ccdc_geom_bond_type
C23   H10   S    
C53   C54   A    
O27   P4    S    
O1    P1    D    
Ba2   O4    S    
C9    C36   A    
Ba2   O5    S    
C39   C43   A    
Ba1   P2    S    
C58   P5    S    
C19   C24   A    
C31   P1    S    
C14   H42   S    
C43   H41   S    
Ba1   O15   S    
C69   O10   D    
Ba2   O6    S    
C45   O3    S    
C24   C25   A    
O9    P8    S    
C63   H5    S    
O20   P3    S    
C29   H30   S    
Ba1   O19   S    
C17   C19   A    
C56   H22   S    
C67   O22   S    
C32   C33   S    
C35   C38   A    
C52   O17   S    
C36   C37   A    
C55   C57   A    
C21   H31   S    
C52   C61   S    
Ba1   O28   S    
C53   C60   A    
O5    P2    S    
O17   P1    S    
Ba1   Ba2   S    
C66   H61   S    
C22   C27   A    
C11   C38   A    
C17   C35   A    
C33   N2    S    
C27   O11   D    
C55   P7    S    
C9    C13   A    
C25   C42   A    
O23   P3    S    
C4    O23   S    
Ba1   O25   S    
C6    C7    D    
C52   H45   S    
C21   C22   A    
C23   O7    S    
C69   N1    Am   
C1    H4    S    
C56   H20   S    
C68   H26   S    
O18   P6    S    
C37   C43   A    
C64   H58   S    
C28   H54   S    
C57   C58   A    
C6    C14   D    
O7    P7    S    
O2    P5    D    
C32   H40   S    
C61   H66   S    
O29   P5    S    
C26   N2    Am   
C15   C31   D    
C27   N2    Am   
C1    H9    S    
C15   H43   S    
C31   C32   D    
O3    P5    S    
C3    H35   S    
C46   C51   A    
C2    O13   D    
C4    C16   S    
C63   H6    S    
O15   P6    S    
C62   O12   S    
C1    H16   S    
C49   C50   A    
O6    P7    D    
Ba1   O20   S    
C65   H63   S    
C13   C39   A    
Ba2   O25   S    
C3    C5    S    
C18   C37   A    
O8    P8    D    
O19   P2    D    
C12   O18   S    
C34   H15   S    
C30   P6    S    
C16   H17   S    
C20   H32   S    
C64   H55   S    
C64   O22   S    
C58   C59   A    
O26   P8    S    
C61   H64   S    
C66   H60   S    
C68   H25   S    
C65   C66   S    
C35   C36   A    
Ba1   O4    S    
C38   H33   S    
C29   C30   S    
C62   H2    S    
C5    P8    S    
C17   C20   A    
C48   C49   A    
C44   H49   S    
C54   C59   A    
C12   H8    S    
C10   C11   A    
C66   H59   S    
O24   P4    D    
O12   P2    S    
Ba2   O26   S    
O4    P1    S    
C48   P3    S    
Ba1   O1    S    
C23   C34   S    
C46   P2    S    
O16   P6    D    
C4    C65   S    
C47   H44   S    
C10   C69   A    
C28   H53   S    
C45   H18   S    
C53   C55   A    
C41   C42   A    
C23   H11   S    
C4    H38   S    
C29   C33   D    
O25   P4    S    
Ba2   O29   S    
C60   H51   S    
C18   C41   A    
C50   C51   A    
O28   P7    S    
C7    C8    S    
C28   O27   S    
C15   C30   S    
C46   C47   A    
C57   H48   S    
C63   H7    S    
C39   H36   S    
C65   H62   S    
C59   H47   S    
C40   H23   S    
C12   H1    S    
C5    C14   S    
C40   H12   S    
C34   H13   S    
C22   C24   A    
C67   H24   S    
Ba2   O24   S    
C9    C10   A    
C1    C12   S    
C34   H14   S    
C52   H56   S    
C16   H52   S    
C62   C63   S    
C2    C13   A    
C3    C8    D    
Ba1   O5    S    
C50   C60   A    
C61   H65   S    
C45   C56   S    
C26   O14   D    
C11   H29   S    
C44   C51   A    
Ba1   P1    S    
C49   H46   S    
O21   P3    D    
C64   H57   S    
C41   H37   S    
C67   C68   S    
C40   H34   S    
C45   H19   S    
C16   H50   S    
C2    N1    Am   
C6    P4    S    
C18   C19   A    
C7    H28   S    
C47   C48   A    
C44   C54   A    
C25   C26   A    
C67   O9    S    
C62   H3    S    
C20   C21   A    
C28   C40   S    
C8    N1    S    
C56   H21   S    
Ba2   O28   S    
C68   H27   S    
Ba2   P4    S    
C42   H39   S    
