data_mof_unit_50048.cif
_audit_creation_date              2012-12-10T17:49:41-0500
_audit_creation_method            fapswitch 2.2
_symmetry_space_group_name_H-M    P1
_symmetry_Int_Tables_number       1
_space_group_crystal_system       triclinic
_cell_length_a                    10.515025
_cell_length_b                    10.707313
_cell_length_c                    9.942531
_cell_angle_alpha                 88.495113
_cell_angle_beta                  90.202018
_cell_angle_gamma                 94.110425
_cell_volume                      1116.1403347

loop_
_atom_site_label
_atom_site_type_symbol
_atom_type_description
_atom_site_fract_x
_atom_site_fract_y
_atom_site_fract_z
_atom_type_partial_charge
C1    C     C_R   0.502978 0.260660 0.502027 0.868900
C2    C     C_R   0.598474 0.071084 0.593924 0.101611
C3    C     C_R   0.512688 0.128894 0.506020 -0.048482
C4    C     C_R   0.257578 0.495527 0.499795 0.837590
C5    C     C_R   0.438015 0.061235 0.413367 -0.207852
C6    C     C_R   0.442483 0.934339 0.409221 -0.200555
C7    C     C_R   0.524437 0.874009 0.494930 -0.061703
C8    C     C_R   0.322659 0.339767 0.143467 -0.156749
C9    C     C_R   0.235371 0.260750 0.074901 -0.204046
C10   C     C_R   0.236658 0.259732 0.935494 -0.188373
C11   C     C_R   0.324995 0.338029 0.863694 -0.146386
C12   C     C_3   0.964611 0.580892 0.417287 -0.115864
C13   C     C_R   0.412349 0.421577 0.929625 0.169740
C14   C     C_R   0.411672 0.422182 0.074068 0.150176
C15   C     C_R   0.589376 0.570104 0.067758 0.020030
C16   C     C_R   0.507681 0.740101 0.498598 0.940310
C17   C     C_R   0.587785 0.570122 0.925249 -0.191620
C18   C     C_R   0.741891 0.493113 0.500223 0.975573
C19   C     C_3   0.036714 0.394470 0.581134 -0.248536
C20   C     C_3   0.951432 0.378475 0.455710 0.007210
C21   C     C_3   0.877069 0.487468 0.499732 0.009410
C22   C     C_3   0.960608 0.504664 0.625598 -0.169968
C23   C     C_3   0.040350 0.470934 0.372957 -0.259869
C24   C     C_3   0.049353 0.598909 0.543327 -0.143794
C25   C     C_2   0.900148 0.254536 0.404716 0.357436
C26   C     C_2   0.771610 0.778137 0.606849 0.369300
C27   C     C_2   0.696776 0.643667 0.129598 0.469482
C28   C     C_3   0.122563 0.489234 0.499077 0.033284
C29   C     C_R   0.676972 0.138806 0.687670 -0.147837
C30   C     C_R   0.758929 0.078231 0.772893 -0.150469
C31   C     C_R   0.775970 0.952599 0.756731 -0.225475
C32   C     C_R   0.710422 0.886859 0.655165 0.015265
C33   C     C_R   0.610336 0.941683 0.582479 0.091113
H1    H     H_    0.850042 0.910232 0.814435 0.127732
H2    H     H_    0.093583 0.689358 0.579085 0.131454
H3    H     H_    0.934870 0.655419 0.346822 0.197727
H4    H     H_    0.076191 0.456563 0.269968 0.157341
H5    H     H_    0.372660 0.106566 0.346572 0.144997
H6    H     H_    0.679569 0.238853 0.696610 0.176271
H7    H     H_    0.816130 0.131035 0.845537 0.147737
H8    H     H_    0.965021 0.182696 0.385812 0.065846
H9    H     H_    0.817139 0.716347 0.677168 0.039566
H10   H     H_    0.792176 0.638341 0.089760 -0.005991
H11   H     H_    0.378240 0.882419 0.341837 0.157976
H12   H     H_    0.319526 0.331889 0.250533 0.187165
H13   H     H_    0.167706 0.198430 0.130520 0.142037
H14   H     H_    0.170050 0.196574 0.882611 0.140022
H15   H     H_    0.324389 0.329022 0.757028 0.194085
H16   H     H_    0.658945 0.627267 0.868382 0.127895
H17   H     H_    0.070523 0.318377 0.647178 0.128644
H18   H     H_    0.925445 0.517876 0.729066 0.138728
N1    N     N_R   0.498800 0.498800 0.142780 -0.135454
N2    N     N_R   0.498760 0.498720 0.857170 -0.120838
O1    O     O_R   0.500000 0.316780 0.614690 -0.673086
O2    O     O_2   0.781247 0.763791 0.486285 -0.573864
O3    O     O_2   0.680115 0.717856 0.217199 -0.495571
O4    O     O_R   0.499990 0.316750 0.385360 -0.609671
O5    O     O_R   0.313960 0.499980 0.614650 -0.634062
O6    O     O_R   0.313940 0.499960 0.385310 -0.654565
O7    O     O_R   0.500010 0.683250 0.614640 -0.637924
O8    O     O_R   0.500000 0.683220 0.385310 -0.543199
O9    O     O_R   0.686060 0.500040 0.614690 -0.663370
O10   O     O_R   0.686040 0.500020 0.385350 -0.567616
O11   O     O_2   0.786504 0.233919 0.383083 -0.567676
Zn1   Zn    Zn3+2 0.500010 0.500020 0.653130 0.923889
Zn2   Zn    Zn3+2 0.499990 0.499980 0.346870 1.004930

loop_
_geom_bond_atom_site_label_1
_geom_bond_atom_site_label_2
_ccdc_geom_bond_type
C8    C9    A    
C1    O1    A    
C26   C32   S    
C29   C30   A    
C1    O4    A    
C12   H3    S    
C18   C21   S    
N2    Zn1   S    
C9    C10   A    
C12   C24   S    
O5    Zn1   S    
C15   C27   S    
C31   C32   A    
C12   C23   S    
C20   C23   S    
O4    Zn2   S    
C3    C5    A    
C26   O2    D    
C29   H6    S    
C2    C3    A    
C31   H1    S    
C30   H7    S    
C9    H13   S    
O1    Zn1   S    
C6    H11   S    
C15   N1    A    
C32   C33   A    
C19   C28   S    
C7    C33   A    
C19   H17   S    
C11   H15   S    
C6    C7    A    
C2    C29   A    
O8    Zn2   S    
C2    C33   A    
C7    C16   S    
C4    C28   S    
C23   H4    S    
O7    Zn1   S    
C5    H5    S    
C13   N2    A    
C8    H12   S    
O6    Zn2   S    
C16   O7    A    
C5    C6    A    
C27   O3    D    
C22   C24   S    
C18   O10   A    
O10   Zn2   S    
C24   H2    S    
C23   C28   S    
C16   O8    A    
C17   H16   S    
O9    Zn1   S    
C4    O6    A    
C17   N2    A    
C11   C13   A    
C19   C22   S    
N1    Zn2   S    
C20   C21   S    
C26   H9    S    
C24   C28   S    
C10   C11   A    
C25   H8    S    
C10   H14   S    
C15   C17   A    
C27   H10   S    
C30   C31   A    
C18   O9    A    
C8    C14   A    
C13   C14   A    
C4    O5    A    
C21   C22   S    
C12   C21   S    
C25   O11   D    
C14   N1    A    
C19   C20   S    
C22   H18   S    
C1    C3    S    
C20   C25   S    
