data_mof_unit_16858.cif
_audit_creation_date              2013-03-05T15:43:29-0500
_audit_creation_method            fapswitch 2.2
_symmetry_space_group_name_H-M    P1
_symmetry_Int_Tables_number       1
_space_group_crystal_system       triclinic
_cell_length_a                    10.754903
_cell_length_b                    10.919354
_cell_length_c                    9.685749
_cell_angle_alpha                 89.448416
_cell_angle_beta                  89.899984
_cell_angle_gamma                 89.913573
_cell_volume                      1137.40565713

loop_
_atom_site_label
_atom_site_type_symbol
_atom_site_description
_atom_site_fract_x
_atom_site_fract_y
_atom_site_fract_z
_atom_type_partial_charge
O1    O     O_R   0.500020 0.321960 0.617040 -0.590067
O2    O     O_R   0.499980 0.321920 0.382900 -0.573254
C1    C     C_R   0.496972 0.265269 0.500753 0.878993
O3    O     O_R   0.317710 0.500000 0.617070 -0.564131
O4    O     O_R   0.317670 0.499960 0.382930 -0.534078
C2    C     C_R   0.259972 0.503492 0.500383 0.834292
Cu1   Cu    Cu3+1 0.500030 0.500020 0.638630 0.996144
Cu2   Cu    Cu3+1 0.499970 0.499980 0.361370 1.028710
O5    O     O_R   0.500020 0.678080 0.617100 -0.562113
O6    O     O_R   0.499980 0.678040 0.382960 -0.532131
O7    O     O_R   0.682330 0.500040 0.617070 -0.603298
O8    O     O_R   0.682290 0.500000 0.382930 -0.580539
C3    C     C_R   0.496370 0.734766 0.499120 0.907345
C4    C     C_R   0.739893 0.502433 0.500028 0.820544
C5    C     C_3   0.070463 0.530361 0.650968 0.150720
H1    H     H_    0.092536 0.448029 0.715664 0.113014
C6    C     C_3   0.927978 0.540998 0.646214 -0.425187
H2    H     H_    0.889199 0.477948 0.726423 0.173393
H3    H     H_    0.897603 0.633601 0.676636 0.212226
H4    H     H_    0.095757 0.699106 0.436367 0.242114
C7    C     C_3   0.071500 0.606423 0.400492 -0.336081
C8    C     C_3   0.071480 0.375991 0.460740 0.152637
C9    C     C_3   0.122030 0.505719 0.501731 -0.141276
H5    H     H_    0.105832 0.308621 0.539197 0.102221
C10   C     C_3   0.877432 0.505362 0.500481 0.020418
C11   C     C_3   0.929367 0.592724 0.384483 0.090663
C12   C     C_3   0.927051 0.374732 0.468275 -0.516753
H6    H     H_    0.896519 0.309544 0.550691 0.162937
H7    H     H_    0.886588 0.340630 0.370179 0.216574
H8    H     H_    0.115926 0.599087 0.297228 0.229744
H9    H     H_    0.914953 0.543918 0.285322 0.185336
C13   C     C_2   0.453895 0.935597 0.390666 0.368240
C14   C     C_2   0.498019 0.867355 0.497080 -0.414265
H10   H     H_    0.545573 0.908725 0.583407 0.131632
C15   C     C_2   0.473166 0.068830 0.388556 -0.176241
C16   C     C_2   0.484215 0.133448 0.504617 -0.364381
H11   H     H_    0.471853 0.115407 0.288943 0.211879
H12   H     H_    0.476309 0.090920 0.605859 0.169189
C17   C     C_2   0.425044 0.432858 0.922928 0.018578
N1    N     N_2   0.498630 0.498660 0.846910 -0.275476
H13   H     H_    0.357529 0.374970 0.872214 0.160057
H14   H     H_    0.565204 0.551232 0.893270 0.196391
C18   C     C_2   0.427531 0.430226 0.078713 -0.005894
N2    N     N_2   0.498590 0.498630 0.153040 -0.283640
H15   H     H_    0.364851 0.367273 0.130931 0.201980
H16   H     H_    0.555654 0.561172 0.105246 0.205683
N3    N     N_R   0.126541 0.636287 0.720296 0.157190
O9    O     O_R   0.112389 0.747321 0.673293 -0.373426
O10   O     O_R   0.183417 0.620086 0.837576 -0.308752
N4    N     N_R   0.387504 0.881971 0.277228 0.161214
O11   O     O_R   0.401896 0.925745 0.152814 -0.335045
O12   O     O_R   0.296666 0.806067 0.301269 -0.348930
N5    N     N_2   0.865207 0.709891 0.364692 -0.431100
H17   H     H_    0.893297 0.755873 0.276446 0.277408
C19   C     C_3   0.841275 0.790938 0.478977 -0.614157
H18   H     H_    0.799678 0.877496 0.439217 0.218973
H19   H     H_    0.928493 0.814237 0.532907 0.270798
H20   H     H_    0.772258 0.750057 0.550687 0.206561
N6    N     N_R   0.116536 0.335068 0.325347 0.146850
O13   O     O_R   0.078679 0.386782 0.211328 -0.376611
O14   O     O_R   0.190211 0.240681 0.318302 -0.353824

loop_
_geom_bond_atom_site_label_1
_geom_bond_atom_site_label_2
_geom_bond_distance
_ccdc_geom_bond_type
O1    C1    1.290927 A    
O4    Cu2   1.971345 S    
N4    O12   1.301359 A    
C18   N2    1.293913 D    
C13   C15   1.469769 S    
C3    C14   1.447873 S    
C12   H7    1.113342 S    
C7    H8    1.111237 S    
N3    O9    1.299788 A    
C5    N3    1.473420 S    
Cu2   O8    1.972286 S    
C6    C10   1.566287 S    
C13   C14   1.352277 D    
C19   H18   1.110895 S    
C5    C9    1.572768 S    
C6    H2    1.113964 S    
N6    O13   1.301198 A    
C17   H13   1.084751 S    
C19   H19   1.105652 S    
N5    H17   1.032098 S    
Cu1   O7    1.971345 S    
C18   H15   1.084566 S    
C13   N4    1.440942 S    
C1    C16   1.446245 S    
O3    Cu1   1.972285 S    
C2    C9    1.483748 S    
C16   H12   1.084217 S    
C6    H3    1.104715 S    
C7    C11   1.544371 S    
N2    H16   1.025426 S    
N4    O11   1.301166 A    
O2    C1    1.293469 A    
C8    C12   1.554985 S    
N5    C19   1.446349 S    
C4    C10   1.479636 S    
O4    C2    1.295779 A    
O7    C4    1.290775 A    
C8    H5    1.115584 S    
N6    O14   1.301319 A    
O3    C2    1.290723 A    
C10   C12   1.556399 S    
C5    H1    1.116366 S    
C17   N1    1.293914 D    
C11   N5    1.463827 S    
Cu1   O5    1.953455 S    
Cu1   Cu2   2.685476 S    
C14   H10   1.083606 S    
H4    C7    1.104945 S    
N3    O10   1.301558 A    
C19   H20   1.107198 S    
C8    N6    1.470583 S    
C5    C6    1.537365 S    
O5    C3    1.294968 A    
C8    C9    1.572809 S    
C17   C18   1.509180 S    
C15   H11   1.086424 S    
C10   C11   1.569414 S    
O1    Cu1   1.957514 S    
Cu1   N1    2.017291 S    
C11   H9    1.114063 S    
C7    C9    1.563757 S    
O6    C3    1.290046 A    
Cu2   O6    1.957514 S    
O2    Cu2   1.953455 S    
C15   C16   1.338528 D    
O8    C4    1.293818 A    
N1    H14   1.025255 S    
C12   H6    1.113802 S    
Cu2   N2    2.018108 S    
