data_mof_unit_47786.cif
_audit_creation_date              2012-12-10T17:03:39-0500
_audit_creation_method            fapswitch 2.2
_symmetry_space_group_name_H-M    P1
_symmetry_Int_Tables_number       1
_space_group_crystal_system       triclinic
_cell_length_a                    10.156498
_cell_length_b                    10.648686
_cell_length_c                    13.007125
_cell_angle_alpha                 89.867862
_cell_angle_beta                  70.819851
_cell_angle_gamma                 91.483586
_cell_volume                      1328.14263312

loop_
_atom_site_label
_atom_site_type_symbol
_atom_type_description
_atom_site_fract_x
_atom_site_fract_y
_atom_site_fract_z
_atom_type_partial_charge
C1    C     C_R   0.504172 0.737156 0.494024 0.756280
C2    C     C_R   0.369802 0.498290 0.822860 -0.128220
C3    C     C_2   0.581031 0.066937 0.546851 -0.123632
C4    C     C_R   0.421908 0.498146 0.704104 0.881675
C5    C     C_2   0.479510 0.131568 0.529840 -0.235590
C6    C     C_2   0.567818 0.931846 0.551179 -0.276303
C7    C     C_2   0.515867 0.871208 0.482288 0.378767
C8    C     C_2   0.064569 0.401168 0.507561 0.426579
C9    C     C_2   0.909215 0.411755 0.538363 0.483020
C10   C     C_R   0.495166 0.262993 0.507320 0.920857
C11   C     C_R   0.577236 0.497604 0.296148 0.932580
C12   C     C_R   0.419948 0.471813 0.990069 -0.107814
C13   C     C_R   0.710441 0.306610 0.046699 0.438846
C14   C     C_R   0.619931 0.466809 0.181503 -0.263344
C15   C     C_R   0.255462 0.571724 0.876772 -0.404549
C16   C     C_R   0.211081 0.581446 0.990522 0.482477
C17   C     C_R   0.293764 0.531897 0.047537 0.516560
C18   C     C_3   0.397301 0.883029 0.356266 -0.205290
C19   C     C_3   0.071894 0.626158 0.642133 -0.178317
C20   C     C_3   0.907608 0.674870 0.397232 0.086151
C21   C     C_3   0.595258 0.071641 0.868294 -0.207542
C22   C     C_3   0.564450 0.722351 0.079087 -0.339300
C23   C     C_R   0.440897 0.435767 0.882839 -0.073691
C24   C     C_3   0.181591 0.412647 0.196192 -0.146116
C25   C     C_3   0.975704 0.599200 0.024683 -0.269451
C26   C     C_R   0.523503 0.442125 0.036176 -0.119780
C27   C     C_R   0.615604 0.341991 0.992736 -0.146047
C28   C     C_R   0.607100 0.281444 0.898287 0.594328
C29   C     C_R   0.528118 0.335391 0.840103 -0.214686
C30   C     C_R   0.542290 0.514289 0.120836 0.555786
C31   C     C_R   0.707091 0.366062 0.142980 -0.369337
Cl1   Cl    Cl    0.129401 0.248775 0.484197 -0.609812
Cl2   Cl    Cl    0.805360 0.301312 0.630449 -0.602686
Cl3   Cl    Cl    0.831658 0.186091 0.002919 -0.555002
H1    H     H_    0.768420 0.330145 0.190246 0.220052
H2    H     H_    0.163149 0.680144 0.648945 0.189226
H3    H     H_    0.056353 0.536621 0.689696 0.145541
H4    H     H_    0.978795 0.683050 0.680339 0.140259
H5    H     H_    0.866371 0.721171 0.477813 0.133967
H6    H     H_    0.835464 0.681752 0.349633 0.155162
H7    H     H_    0.004435 0.727804 0.350569 0.159872
H8    H     H_    0.526297 0.057946 0.954266 0.138744
H9    H     H_    0.659464 0.987018 0.845125 0.195670
H10   H     H_    0.532060 0.077949 0.813113 0.137630
H11   H     H_    0.667627 0.732152 0.091184 0.163179
H12   H     H_    0.381745 0.085677 0.531654 0.206629
H13   H     H_    0.512486 0.813705 0.099172 0.204133
H14   H     H_    0.578049 0.703143 0.992145 0.161532
H15   H     H_    0.258373 0.336649 0.169849 0.131939
H16   H     H_    0.090461 0.393242 0.168434 0.150516
H17   H     H_    0.143514 0.411205 0.286011 0.224642
H18   H     H_    0.972078 0.494558 0.022524 0.173258
H19   H     H_    0.971136 0.639449 0.947111 0.156696
H20   H     H_    0.881164 0.628228 0.090606 0.189267
H21   H     H_    0.598392 0.882341 0.612684 0.131291
H22   H     H_    0.200959 0.620946 0.830720 0.172560
H23   H     H_    0.530105 0.294629 0.763510 0.182679
H24   H     H_    0.674667 0.111241 0.554038 0.234678
H25   H     H_    0.296589 0.876427 0.424565 0.185905
H26   H     H_    0.425954 0.790479 0.317388 0.212416
H27   H     H_    0.382375 0.946966 0.293802 0.191774
N1    N     N_2   0.148270 0.498670 0.498870 0.082123
N2    N     N_2   0.852610 0.498640 0.498840 0.037634
O1    O     O_R   0.386950 0.680940 0.500020 -0.609070
O2    O     O_3   0.084536 0.608465 0.531823 -0.545050
O3    O     O_3   0.941650 0.549104 0.405486 -0.572059
O4    O     O_3   0.685396 0.177708 0.856572 -0.507959
O5    O     O_3   0.480038 0.629066 0.148981 -0.572680
O6    O     O_3   0.242864 0.532068 0.160032 -0.538156
O7    O     O_3   0.093808 0.647017 0.047680 -0.571843
O8    O     O_R   0.613110 0.680900 0.499980 -0.658463
O9    O     O_R   0.330780 0.500000 0.653640 -0.631075
O10   O     O_R   0.556930 0.499960 0.653610 -0.587575
O11   O     O_R   0.386890 0.319100 0.500020 -0.567469
O12   O     O_R   0.613050 0.319060 0.499980 -0.587043
O13   O     O_R   0.443070 0.500040 0.346390 -0.550454
O14   O     O_R   0.669220 0.500000 0.346360 -0.612758
O15   O     O_3   0.505213 0.933789 0.390669 -0.615563
Zn1   Zn    Zn3+2 0.349000 0.500030 0.500020 1.040206
Zn2   Zn    Zn3+2 0.651000 0.499970 0.499980 1.000639

loop_
_geom_bond_atom_site_label_1
_geom_bond_atom_site_label_2
_ccdc_geom_bond_type
C22   H14   S    
C17   O6    S    
O13   Zn1   S    
C6    H21   S    
C3    C6    S    
C20   H7    S    
C12   C23   A    
C26   C27   A    
C1    O8    A    
C23   C29   A    
C20   O3    S    
C28   C29   A    
C25   H19   S    
O9    Zn1   S    
C19   H2    S    
C20   H6    S    
C11   C14   S    
C15   C16   A    
C19   H3    S    
C21   H9    S    
C8    C9    S    
C12   C17   A    
C11   O14   A    
O12   Zn2   S    
C14   C31   A    
C24   H17   S    
C22   H13   S    
N2    O3    S    
C1    C7    S    
C21   O4    S    
C9    Cl2   S    
C14   C30   A    
O8    Zn2   S    
C24   O6    S    
N2    Zn2   S    
C24   H16   S    
C8    Cl1   S    
N1    Zn1   S    
C28   O4    S    
C16   O7    S    
C25   H20   S    
C20   H5    S    
C16   C17   A    
C12   C26   A    
C2    C4    S    
C19   H4    S    
C21   H10   S    
C10   O12   A    
C18   O15   S    
C2    C23   A    
C2    C15   A    
C22   O5    S    
C4    O10   A    
C7    O15   S    
C18   H26   S    
C29   H23   S    
C26   C30   A    
O11   Zn1   S    
O1    Zn1   S    
C31   H1    S    
C1    O1    A    
C4    O9    A    
O14   Zn2   S    
C24   H15   S    
N1    O2    S    
C9    N2    D    
C13   C31   A    
C3    C5    D    
C18   H27   S    
C6    C7    D    
C5    H12   S    
C11   O13   A    
C15   H22   S    
C25   H18   S    
C13   Cl3   S    
C10   O11   A    
O10   Zn2   S    
C19   O2    S    
C21   H8    S    
C3    H24   S    
C18   H25   S    
C5    C10   S    
C22   H11   S    
C27   C28   A    
C13   C27   A    
C25   O7    S    
C30   O5    S    
C8    N1    D    
