data_mof_unit_45278.cif
_audit_creation_date              2012-12-11T14:07:21-0500
_audit_creation_method            fapswitch 2.2
_symmetry_space_group_name_H-M    P1
_symmetry_Int_Tables_number       1
_space_group_crystal_system       triclinic
_cell_length_a                    19.745102
_cell_length_b                    17.135736
_cell_length_c                    15.415677
_cell_angle_alpha                 90.000114
_cell_angle_beta                  53.724625
_cell_angle_gamma                 89.999672
_cell_volume                      4204.92440295

loop_
_atom_site_label
_atom_site_type_symbol
_atom_type_description
_atom_site_fract_x
_atom_site_fract_y
_atom_site_fract_z
_atom_type_partial_charge
C1    C     C_R   0.374516 0.196636 0.996127 -0.117712
C2    C     C_R   0.374516 0.803364 0.996128 -0.117720
C3    C     C_R   0.874516 0.696636 0.996127 -0.117724
C4    C     C_R   0.874516 0.303364 0.996128 -0.117719
C5    C     C_R   0.664891 0.911640 0.059207 -0.149258
C6    C     C_R   0.664891 0.088360 0.059209 -0.149261
C7    C     C_R   0.164891 0.411640 0.059207 -0.149254
C8    C     C_R   0.164891 0.588360 0.059208 -0.149256
C9    C     C_R   0.705656 0.151557 0.989959 0.155309
C10   C     C_R   0.705658 0.848444 0.989956 0.155309
C11   C     C_R   0.205657 0.651557 0.989958 0.155308
C12   C     C_R   0.205658 0.348444 0.989956 0.155302
C13   C     C_R   0.615199 0.819223 0.693530 0.024671
C14   C     C_R   0.615207 0.180772 0.693527 0.024717
C15   C     C_R   0.115199 0.319223 0.693530 0.024670
C16   C     C_R   0.115201 0.680775 0.693530 0.024672
C17   C     C_3   0.192331 0.139854 0.508023 -0.505911
C18   C     C_3   0.192334 0.860141 0.508018 -0.505912
C19   C     C_3   0.692331 0.639854 0.508023 -0.505905
C20   C     C_3   0.692327 0.360128 0.508005 -0.505938
C21   C     C_3   0.134548 0.185744 0.613748 0.660926
C22   C     C_3   0.134550 0.814252 0.613744 0.660934
C23   C     C_3   0.634548 0.685744 0.613749 0.660929
C24   C     C_3   0.634531 0.314237 0.613726 0.660945
C25   C     C_3   0.313390 0.230142 0.455634 -0.399949
C26   C     C_3   0.313394 0.769858 0.455641 -0.399951
C27   C     C_3   0.813390 0.730141 0.455634 -0.399949
C28   C     C_3   0.813399 0.269873 0.455659 -0.399955
C29   C     C_3   0.718396 0.761098 0.400855 -0.418570
C30   C     C_3   0.718443 0.238868 0.400836 -0.418581
C31   C     C_3   0.218396 0.261098 0.400855 -0.418569
C32   C     C_3   0.218410 0.738893 0.400851 -0.418565
C33   C     C_3   0.261753 0.194557 0.419213 0.317941
C34   C     C_3   0.261761 0.805438 0.419213 0.317939
C35   C     C_3   0.761753 0.694557 0.419213 0.317936
C36   C     C_3   0.761770 0.305430 0.419210 0.317942
C37   C     C_3   0.664499 0.772192 0.595689 0.210656
C38   C     C_3   0.664511 0.227799 0.595684 0.210661
C39   C     C_3   0.164499 0.272192 0.595689 0.210660
C40   C     C_3   0.164503 0.727805 0.595688 0.210660
C41   C     C_3   0.756262 0.775950 0.559099 -0.357707
C42   C     C_3   0.756265 0.224076 0.559133 -0.357757
C43   C     C_3   0.256262 0.275950 0.559099 -0.357707
C44   C     C_3   0.256265 0.724050 0.559105 -0.357705
C45   C     C_R   0.356694 0.821854 0.217827 -0.142750
C46   C     C_R   0.356688 0.178142 0.217827 -0.142752
C47   C     C_R   0.856698 0.321851 0.217826 -0.142753
C48   C     C_R   0.856688 0.678142 0.217827 -0.142749
C49   C     C_3   0.660883 0.806854 0.504969 -0.528013
C50   C     C_3   0.660935 0.193109 0.504946 -0.528008
C51   C     C_3   0.160883 0.306854 0.504969 -0.528014
C52   C     C_3   0.160894 0.693140 0.504965 -0.528017
C53   C     C_2   0.277914 0.690396 0.970682 -0.187490
C54   C     C_2   0.277914 0.309604 0.970682 -0.187477
C55   C     C_2   0.777914 0.190396 0.970683 -0.187493
C56   C     C_2   0.777914 0.809604 0.970681 -0.187496
C57   C     C_2   0.807366 0.255222 0.910886 -0.204360
C58   C     C_2   0.807367 0.744778 0.910884 -0.204358
C59   C     C_2   0.307366 0.755222 0.910886 -0.204358
C60   C     C_2   0.307367 0.244778 0.910884 -0.204339
C61   C     C_R   0.364403 0.889552 0.897960 -0.148365
C62   C     C_R   0.364403 0.110448 0.897959 -0.148367
C63   C     C_R   0.864403 0.389552 0.897960 -0.148368
C64   C     C_R   0.864403 0.610448 0.897959 -0.148366
C65   C     C_R   0.367085 0.088952 0.316018 -0.145271
C66   C     C_R   0.367091 0.911044 0.316018 -0.145275
C67   C     C_R   0.867085 0.588952 0.316018 -0.145270
C68   C     C_R   0.867093 0.411041 0.316018 -0.145277
C69   C     C_R   0.345920 0.186027 0.935008 0.150595
C70   C     C_R   0.345919 0.813973 0.935009 0.150594
C71   C     C_R   0.845920 0.686027 0.935008 0.150599
C72   C     C_R   0.845919 0.313973 0.935009 0.150596
C73   C     C_R   0.320634 0.848764 0.320831 0.043329
C74   C     C_R   0.320626 0.151230 0.320830 0.043329
C75   C     C_R   0.820641 0.348757 0.320830 0.043339
C76   C     C_R   0.820625 0.651229 0.320830 0.043330
C77   C     C_R   0.657580 0.180155 0.958893 -0.129962
C78   C     C_R   0.657581 0.819846 0.958891 -0.129962
C79   C     C_R   0.157580 0.680154 0.958893 -0.129963
C80   C     C_R   0.157581 0.319846 0.958891 -0.129964
C81   C     C_R   0.604412 0.802792 0.788858 -0.118141
C82   C     C_R   0.604415 0.197207 0.788856 -0.118113
C83   C     C_R   0.104412 0.302791 0.788859 -0.118140
C84   C     C_R   0.104412 0.697208 0.788859 -0.118137
C85   C     C_R   0.594738 0.103803 0.695365 -0.149920
C86   C     C_R   0.594736 0.896195 0.695366 -0.149878
C87   C     C_R   0.094737 0.603804 0.695365 -0.149883
C88   C     C_R   0.094736 0.396195 0.695366 -0.149879
H1    H     H_    0.383871 0.251394 0.022263 0.089683
H2    H     H_    0.383869 0.748606 0.022266 0.089676
H3    H     H_    0.883871 0.751394 0.022263 0.089677
H4    H     H_    0.883869 0.248606 0.022265 0.089674
H5    H     H_    0.154632 0.115289 0.482256 0.128238
H6    H     H_    0.154637 0.884701 0.482246 0.128238
H7    H     H_    0.654632 0.615289 0.482256 0.128242
H8    H     H_    0.654642 0.384682 0.482211 0.128248
H9    H     H_    0.568780 0.683608 0.639233 0.013954
H10   H     H_    0.568773 0.316347 0.639168 0.013952
H11   H     H_    0.068780 0.183608 0.639233 0.013949
H12   H     H_    0.068783 0.816386 0.639224 0.013946
H13   H     H_    0.345210 0.183771 0.469933 0.161810
H14   H     H_    0.345208 0.816232 0.469945 0.161812
H15   H     H_    0.845210 0.683771 0.469933 0.161809
H16   H     H_    0.845205 0.316256 0.469959 0.161792
H17   H     H_    0.761269 0.751482 0.622050 0.183866
H18   H     H_    0.761244 0.248573 0.622093 0.183857
H19   H     H_    0.261268 0.251482 0.622050 0.183867
H20   H     H_    0.261266 0.748519 0.622059 0.183866
H21   H     H_    0.765734 0.802397 0.338306 0.165974
H22   H     H_    0.765799 0.197576 0.338292 0.165978
H23   H     H_    0.265734 0.302397 0.338306 0.165974
H24   H     H_    0.265753 0.697594 0.338305 0.165975
H25   H     H_    0.681540 0.736929 0.373602 0.164946
H26   H     H_    0.681588 0.263017 0.373570 0.164941
H27   H     H_    0.181540 0.236929 0.373602 0.164944
H28   H     H_    0.181558 0.763058 0.373590 0.164943
H29   H     H_    0.595296 0.805639 0.529644 0.162473
H30   H     H_    0.595355 0.194292 0.529596 0.162463
H31   H     H_    0.095296 0.305639 0.529644 0.162471
H32   H     H_    0.095309 0.694354 0.529634 0.162472
H33   H     H_    0.683029 0.868425 0.487561 0.188444
H34   H     H_    0.683108 0.131544 0.487548 0.188454
H35   H     H_    0.183029 0.368425 0.487561 0.188444
H36   H     H_    0.183040 0.631568 0.487561 0.188444
H37   H     H_    0.363225 0.269384 0.391936 0.161329
H38   H     H_    0.363234 0.730617 0.391946 0.161327
H39   H     H_    0.863225 0.769384 0.391936 0.161328
H40   H     H_    0.863243 0.230628 0.391977 0.161338
H41   H     H_    0.340473 0.771100 0.192500 0.090766
H42   H     H_    0.340466 0.228895 0.192500 0.090767
H43   H     H_    0.840479 0.271097 0.192497 0.090767
H44   H     H_    0.840466 0.728895 0.192500 0.090767
H45   H     H_    0.778083 0.837684 0.545587 0.158789
H46   H     H_    0.778103 0.162348 0.545647 0.158798
H47   H     H_    0.278083 0.337684 0.545588 0.158790
H48   H     H_    0.278087 0.662316 0.545595 0.158790
H49   H     H_    0.296178 0.672807 0.021664 0.123928
H50   H     H_    0.296177 0.327191 0.021664 0.123927
H51   H     H_    0.796178 0.172807 0.021664 0.123927
H52   H     H_    0.796177 0.827192 0.021664 0.123928
H53   H     H_    0.790857 0.271744 0.857708 0.130465
H54   H     H_    0.790860 0.728256 0.857705 0.130476
H55   H     H_    0.290857 0.771744 0.857708 0.130476
H56   H     H_    0.290860 0.228256 0.857705 0.130473
H57   H     H_    0.359534 0.915413 0.837821 0.100541
H58   H     H_    0.359534 0.084585 0.837821 0.100541
H59   H     H_    0.859534 0.415413 0.837821 0.100534
H60   H     H_    0.859534 0.584585 0.837821 0.100538
H61   H     H_    0.362599 0.061882 0.382266 0.090764
H62   H     H_    0.362606 0.938114 0.382266 0.090764
H63   H     H_    0.862599 0.561881 0.382266 0.090762
H64   H     H_    0.862606 0.438114 0.382266 0.090760
H65   H     H_    0.667142 0.231296 0.912092 0.097737
H66   H     H_    0.667144 0.768705 0.912089 0.097754
H67   H     H_    0.167142 0.731296 0.912092 0.097752
H68   H     H_    0.167144 0.268704 0.912089 0.097755
H69   H     H_    0.610151 0.747260 0.816882 0.171803
H70   H     H_    0.610162 0.252738 0.816872 0.171774
H71   H     H_    0.110151 0.247260 0.816882 0.171803
H72   H     H_    0.110155 0.752739 0.816880 0.171798
H73   H     H_    0.588341 0.072699 0.639646 0.092412
H74   H     H_    0.588339 0.927300 0.639647 0.092402
H75   H     H_    0.088340 0.572700 0.639647 0.092402
H76   H     H_    0.088339 0.427300 0.639647 0.092400
H77   H     H_    0.681885 0.938229 0.107138 0.090089
H78   H     H_    0.681886 0.061771 0.107137 0.090090
H79   H     H_    0.181885 0.438229 0.107138 0.090089
H80   H     H_    0.181886 0.561771 0.107137 0.090089
H81   H     H_    0.220565 0.089657 0.521861 0.202454
H82   H     H_    0.220564 0.910340 0.521857 0.202453
H83   H     H_    0.720565 0.589657 0.521861 0.202454
H84   H     H_    0.720544 0.410331 0.521858 0.202459
N1    N     N_R   0.408680 0.130160 0.995800 -0.043727
N2    N     N_R   0.408680 0.869840 0.995800 -0.043726
N3    N     N_R   0.908680 0.630160 0.995800 -0.043726
N4    N     N_R   0.908680 0.369840 0.995800 -0.043726
N5    N     N_R   0.421680 0.867580 0.153120 -0.038090
N6    N     N_R   0.421680 0.132420 0.153120 -0.038092
N7    N     N_R   0.921680 0.367580 0.153120 -0.038090
N8    N     N_R   0.921680 0.632420 0.153120 -0.038092
N9    N     N_R   0.403730 0.921770 0.935950 -0.040776
N10   N     N_R   0.403730 0.078230 0.935950 -0.040776
N11   N     N_R   0.903730 0.421770 0.935950 -0.040775
N12   N     N_R   0.903730 0.578230 0.935950 -0.040776
N13   N     N_R   0.426630 0.075970 0.212960 -0.035992
N14   N     N_R   0.426630 0.924030 0.212960 -0.035990
N15   N     N_R   0.926630 0.575970 0.212960 -0.035992
N16   N     N_R   0.926630 0.424030 0.212960 -0.035990
N17   N     N_R   0.591320 0.134600 0.004200 -0.049044
N18   N     N_R   0.591320 0.865400 0.004200 -0.049045
N19   N     N_R   0.091320 0.634600 0.004200 -0.049045
N20   N     N_R   0.091320 0.365400 0.004200 -0.049044
N21   N     N_R   0.578320 0.867660 0.846880 -0.048294
N22   N     N_R   0.578320 0.132340 0.846880 -0.048295
N23   N     N_R   0.078320 0.367660 0.846880 -0.048293
N24   N     N_R   0.078320 0.632340 0.846880 -0.048293
N25   N     N_R   0.573370 0.074390 0.787040 -0.035237
N26   N     N_R   0.573370 0.925610 0.787040 -0.035238
N27   N     N_R   0.073370 0.574390 0.787040 -0.035238
N28   N     N_R   0.073370 0.425610 0.787040 -0.035238
N29   N     N_R   0.596270 0.927870 0.064040 -0.041791
N30   N     N_R   0.596270 0.072130 0.064040 -0.041791
N31   N     N_R   0.096270 0.427870 0.064040 -0.041791
N32   N     N_R   0.096270 0.572130 0.064040 -0.041791
Ni1   Ni    Ni4+2 0.500000 0.131190 0.000000 0.214513
Ni2   Ni    Ni4+2 0.500000 0.868810 0.000000 0.214506
Ni3   Ni    Ni4+2 1.000000 0.631190 0.000000 0.214506
Ni4   Ni    Ni4+2 1.000000 0.368810 0.000000 0.214506
Ni5   Ni    Ni4+2 0.488650 0.000000 0.862740 0.206542
Ni6   Ni    Ni4+2 0.988650 0.500000 0.862740 0.206540
Ni7   Ni    Ni4+2 0.511350 0.000000 0.137260 0.210990
Ni8   Ni    Ni4+2 0.011350 0.500000 0.137260 0.210990
F1    F     F_    0.136286 0.150040 0.693027 -0.720870
F2    F     F_    0.136284 0.849958 0.693024 -0.720868
F3    F     F_    0.636286 0.650040 0.693027 -0.720868
F4    F     F_    0.636214 0.349959 0.693036 -0.720853

loop_
_geom_bond_atom_site_label_1
_geom_bond_atom_site_label_2
_ccdc_geom_bond_type
C61   C70   A    
C44   H48   S    
N4    N11   A    
C87   H75   S    
N12   Ni6   S    
C6    H78   S    
C45   H41   S    
C51   H35   S    
C48   C76   A    
C39   C51   S    
C50   H34   S    
C87   N27   A    
N30   Ni7   S    
C45   C73   A    
C25   H13   S    
C25   C43   S    
C6    C9    A    
C41   H45   S    
C84   H72   S    
C26   C44   S    
C23   H9    S    
C54   C60   D    
C31   H27   S    
C68   C75   A    
C1    N1    A    
C41   H17   S    
C46   N6    A    
C30   H22   S    
C37   C41   S    
C53   H49   S    
C3    H3    S    
N8    N15   A    
C19   H83   S    
C38   C42   S    
N1    Ni1   S    
C5    N29   A    
C82   H70   S    
C17   H81   S    
C28   H16   S    
N22   N25   A    
C62   N10   A    
N21   N26   A    
N6    Ni1   S    
C13   C81   A    
C16   C84   A    
C55   H51   S    
N5    Ni2   S    
N9    Ni5   S    
C26   H38   S    
C64   C71   A    
C28   C42   S    
C2    H2    S    
N26   Ni5   S    
C25   H37   S    
C85   H73   S    
C32   C52   S    
C61   H57   S    
C8    H80   S    
C81   H69   S    
C77   H65   S    
N6    N13   A    
C27   H39   S    
N18   Ni2   S    
C49   H29   S    
N23   Ni4   S    
C20   C24   S    
N17   Ni1   S    
C78   N18   A    
C13   C86   A    
C16   C87   A    
C24   C38   S    
C31   C33   S    
C15   C88   A    
C86   H74   S    
N3    Ni3   S    
N8    Ni3   S    
C10   C56   S    
C13   C37   S    
C11   C53   S    
C45   N5    A    
C52   H36   S    
C44   H20   S    
C20   H8    S    
C59   H55   S    
C79   N19   A    
N14   Ni7   S    
C64   H60   S    
C83   N23   A    
C80   N20   A    
C11   C79   A    
C17   C33   S    
N24   N27   A    
N2    N9    A    
C63   H59   S    
C67   N15   A    
C80   H68   S    
C18   H82   S    
C10   C78   A    
C7    C12   A    
C30   C50   S    
C65   N13   A    
C35   C76   S    
C48   N8    A    
C63   N11   A    
C67   H63   S    
C8    N32   A    
C22   H12   S    
C26   H14   S    
C65   C74   A    
C21   H11   S    
C19   C23   S    
C78   H66   S    
C20   C36   S    
C29   C49   S    
N7    N16   A    
C34   C73   S    
C27   C35   S    
C40   C52   S    
C66   C73   A    
C81   N21   A    
N10   Ni5   S    
C1    C69   A    
N5    N14   A    
C62   C69   A    
C47   H43   S    
N11   Ni6   S    
C32   C34   S    
C3    C71   A    
C68   H64   S    
C36   C75   S    
C14   C38   S    
C18   C34   S    
C27   C41   S    
C51   H31   S    
C21   C39   S    
C88   H76   S    
C23   F3    S    
C22   C40   S    
N32   Ni8   S    
N13   Ni7   S    
C43   H19   S    
C32   H28   S    
C43   H47   S    
C42   H18   S    
C46   C74   A    
C15   C39   S    
C37   C49   S    
C47   N7    A    
C86   N26   A    
C9    C55   S    
C52   H32   S    
C85   N25   A    
C20   H84   S    
C16   C40   S    
N1    N10   A    
N20   Ni4   S    
C5    H77   S    
C50   H30   S    
C22   F2    S    
C4    N4    A    
C18   H6    S    
C68   N16   A    
C21   F1    S    
N31   Ni8   S    
C17   H5    S    
C7    N31   A    
C14   C82   A    
C4    C72   A    
C19   H7    S    
C3    N3    A    
N23   N28   A    
C30   H26   S    
C29   H21   S    
N22   Ni1   S    
C7    H79   S    
N7    Ni4   S    
C1    H1    S    
C58   H54   S    
C32   H24   S    
C66   H62   S    
C26   C34   S    
N19   Ni3   S    
C14   C85   A    
C31   C51   S    
N15   Ni8   S    
C46   H42   S    
C15   C83   A    
N18   N29   A    
C6    N30   A    
C38   C50   S    
C18   C22   S    
C30   C36   S    
N17   N30   A    
C53   C59   D    
C29   C35   S    
C61   N9    A    
C57   H53   S    
C42   H46   S    
N27   Ni6   S    
C77   N17   A    
C88   N28   A    
N24   Ni3   S    
C55   C57   D    
C9    C77   A    
C47   C75   A    
C5    C10   A    
C66   N14   A    
C23   C37   S    
C60   H56   S    
N16   Ni8   S    
N4    Ni4   S    
C54   H50   S    
C60   C69   S    
C84   N24   A    
C8    C11   A    
C56   H52   S    
C12   C80   A    
C27   H15   S    
N20   N31   A    
C56   C58   D    
C49   H33   S    
C57   C72   S    
C65   H61   S    
C58   C71   S    
N28   Ni6   S    
C82   N22   A    
N25   Ni5   S    
N19   N32   A    
C2    N2    A    
C59   C70   S    
C79   H67   S    
C24   H10   S    
C64   N12   A    
C28   H40   S    
C33   C74   S    
C40   C44   S    
C83   H71   S    
C63   C72   A    
C28   C36   S    
C62   H58   S    
C39   C43   S    
C29   H25   S    
N2    Ni2   S    
C31   H23   S    
C48   H44   S    
C19   C35   S    
N21   Ni2   S    
C2    C70   A    
N29   Ni7   S    
C12   C54   S    
C67   C76   A    
C24   F4    S    
C25   C33   S    
N3    N12   A    
C4    H4    S    
C17   C21   S    
