data_mof_unit_16092.cif
_audit_creation_date              2012-10-26T21:33:00-0400
_audit_creation_method            fapswitch 2.2
_symmetry_space_group_name_H-M    P1
_symmetry_Int_Tables_number       1
_space_group_crystal_system       triclinic
_cell_length_a                    28.179205
_cell_length_b                    18.449226
_cell_length_c                    17.030922
_cell_angle_alpha                 90.000078
_cell_angle_beta                  60.881677
_cell_angle_gamma                 90.000101
_cell_volume                      7735.10030593

loop_
_atom_site_label
_atom_site_type_symbol
_atom_type_description
_atom_site_fract_x
_atom_site_fract_y
_atom_site_fract_z
_atom_type_partial_charge
C1    C     C_R   0.701715 0.268428 0.675985 0.915674
C2    C     C_R   0.969566 0.632432 0.437870 -0.235377
C3    C     C_R   0.073962 0.900003 0.934225 0.925534
C4    C     C_R   0.573920 0.600043 0.934283 0.925929
C5    C     C_R   0.426038 0.400004 0.065776 0.925533
C6    C     C_R   0.426089 0.600047 0.065715 0.925598
C7    C     C_R   0.573899 0.399936 0.934276 0.926111
C8    C     C_R   0.529042 0.001590 0.564239 0.018298
C9    C     C_R   0.440542 0.002393 0.530544 0.018756
C10   C     C_R   0.059457 0.502393 0.469461 0.018754
C11   C     C_R   0.970957 0.501590 0.435765 0.018306
C12   C     C_R   0.509909 0.067600 0.547954 0.052923
C13   C     C_R   0.979136 0.372133 0.410322 -0.216098
C14   C     C_R   0.452745 0.938789 0.564164 0.048398
C15   C     C_R   0.469942 0.066695 0.520720 0.047235
C16   C     C_R   0.500344 0.936663 0.573210 0.042625
C17   C     C_R   0.030056 0.566695 0.479286 0.047227
C18   C     C_R   0.999655 0.436663 0.426793 0.042631
C19   C     C_R   0.990090 0.567600 0.452052 0.052934
C20   C     C_R   0.047254 0.438789 0.435840 0.048404
C21   C     C_R   0.601822 0.934669 0.573012 0.067748
C22   C     C_R   0.386457 0.064543 0.472612 0.079122
C23   C     C_R   0.366973 0.939180 0.521414 0.061223
C24   C     C_R   0.039344 0.626913 0.520737 -0.226349
C25   C     C_R   0.603349 0.066861 0.568793 0.071832
C26   C     C_R   0.133026 0.439180 0.478588 0.061223
C27   C     C_R   0.896650 0.566861 0.431209 0.071835
C28   C     C_R   0.898177 0.434669 0.426990 0.067746
C29   C     C_R   0.113542 0.564543 0.527391 0.079122
C30   C     C_R   0.656067 0.935057 0.559829 -0.129845
C31   C     C_R   0.340052 0.064129 0.459281 -0.131554
C32   C     C_R   0.329343 0.937581 0.488037 -0.114249
C33   C     C_R   0.656651 0.065380 0.558622 -0.128257
C34   C     C_R   0.170656 0.437581 0.511964 -0.114250
C35   C     C_R   0.520863 0.872133 0.589680 -0.216096
C36   C     C_R   0.843349 0.565380 0.441378 -0.128257
C37   C     C_R   0.843933 0.435057 0.440171 -0.129844
C38   C     C_R   0.159948 0.564129 0.540721 -0.131556
C39   C     C_R   0.681020 0.000107 0.557150 -0.297452
C40   C     C_R   0.316319 0.999715 0.458149 -0.303204
C41   C     C_R   0.183681 0.499715 0.541852 -0.303202
C42   C     C_R   0.818980 0.500106 0.442850 -0.297453
C43   C     C_R   0.577870 0.000950 0.569536 0.075388
C44   C     C_R   0.398343 0.001883 0.507525 0.071008
C45   C     C_R   0.101656 0.501883 0.492479 0.071007
C46   C     C_R   0.460654 0.126914 0.479270 -0.226341
C47   C     C_R   0.922130 0.500950 0.430467 0.075378
C48   C     C_R   0.126425 0.381392 0.430346 -0.180222
C49   C     C_R   0.925817 0.631520 0.421860 -0.191141
C50   C     C_R   0.929663 0.371263 0.410099 -0.183955
C51   C     C_R   0.079220 0.625088 0.546487 -0.180370
C52   C     C_R   0.570336 0.871263 0.589902 -0.183954
C53   C     C_R   0.420779 0.125089 0.453519 -0.180370
C54   C     C_R   0.373574 0.881392 0.569656 -0.180222
C55   C     C_R   0.574182 0.131520 0.578145 -0.191151
C56   C     C_3   0.650233 0.164074 0.053879 -0.428124
C57   C     C_R   0.416582 0.880119 0.587894 -0.223542
C58   C     C_3   0.605050 0.185424 0.147937 -0.310307
C59   C     C_3   0.553939 0.140181 0.176050 -0.880167
C60   C     C_3   0.348932 0.833333 0.946627 -0.408687
C61   C     C_3   0.336811 0.898501 0.009420 -0.353257
C62   C     C_3   0.387119 0.945760 0.979814 -0.877959
C63   C     C_3   0.349141 0.164240 0.946758 -0.429268
C64   C     C_3   0.394908 0.185808 0.853349 -0.312285
C65   C     C_3   0.445399 0.139295 0.825479 -0.878108
C66   C     C_3   0.652592 0.834562 0.050293 -0.405300
C67   C     C_3   0.665781 0.898669 0.985629 -0.355486
C68   C     C_R   0.530432 0.132432 0.562136 -0.235352
C69   C     C_3   0.616108 0.946776 0.013150 -0.878117
C70   C     C_3   0.150850 0.664271 0.053255 -0.429190
C71   C     C_3   0.105106 0.685819 0.146694 -0.312299
C72   C     C_3   0.054563 0.639432 0.174496 -0.877900
C73   C     C_3   0.847405 0.334567 0.949715 -0.405302
C74   C     C_3   0.834213 0.398673 0.014383 -0.355482
C75   C     C_3   0.883884 0.446784 0.986866 -0.878113
C76   C     C_3   0.849769 0.664078 0.946115 -0.428122
C77   C     C_3   0.894951 0.685430 0.852058 -0.310310
C78   C     C_3   0.946062 0.640187 0.823941 -0.880175
C79   C     C_R   0.719398 0.260230 0.954437 0.118144
C80   C     C_3   0.151068 0.333323 0.053383 -0.408688
C81   C     C_3   0.163181 0.398487 0.990588 -0.353238
C82   C     C_3   0.112870 0.445742 0.020206 -0.877988
C83   C     C_R   0.279642 0.738054 0.046299 0.118368
C84   C     C_R   0.280180 0.260611 0.046070 0.119309
C85   C     C_R   0.298154 0.731316 0.324083 0.934220
C86   C     C_R   0.720829 0.737423 0.953161 0.118483
C87   C     C_R   0.219823 0.760623 0.953928 0.119305
C88   C     C_R   0.779171 0.237422 0.046839 0.118484
C89   C     C_R   0.780602 0.760230 0.045563 0.118144
C90   C     C_R   0.220362 0.238050 0.953697 0.118365
C91   C     C_R   0.767445 0.298926 0.930643 -0.223319
C92   C     C_R   0.231449 0.699571 0.070546 -0.230637
C93   C     C_R   0.231831 0.298780 0.070617 -0.231103
C94   C     C_R   0.768772 0.698530 0.929509 -0.229850
C95   C     C_R   0.268173 0.798790 0.929383 -0.231118
C96   C     C_R   0.298248 0.268492 0.324047 0.894326
C97   C     C_R   0.731230 0.198527 0.070488 -0.229847
C98   C     C_R   0.732554 0.798923 0.069361 -0.223322
C99   C     C_R   0.268555 0.199566 0.929448 -0.230654
C100  C     C_R   0.797426 0.288564 0.976074 0.144947
C101  C     C_R   0.201172 0.710099 0.025568 0.145191
C102  C     C_R   0.201713 0.288363 0.025432 0.147161
C103  C     C_R   0.799167 0.709413 0.974233 0.143521
C104  C     C_R   0.298290 0.788370 0.974569 0.147163
C105  C     C_R   0.700834 0.209410 0.025764 0.143516
C106  C     C_R   0.702572 0.788561 0.023929 0.144951
C107  C     C_R   0.701878 0.731248 0.675891 0.913848
C108  C     C_R   0.298829 0.210086 0.974431 0.145228
C109  C     C_R   0.642465 0.323065 0.948121 0.610633
C110  C     C_R   0.357135 0.676286 0.052132 0.598088
C111  C     C_R   0.357227 0.323435 0.052146 0.610958
C112  C     C_R   0.643128 0.675923 0.947642 0.600362
C113  C     C_R   0.142775 0.823440 0.947853 0.610997
C114  C     C_R   0.856872 0.175923 0.052358 0.600365
C115  C     C_R   0.857535 0.823065 0.051879 0.610631
C116  C     C_R   0.142867 0.176284 0.947867 0.598087
C117  C     C_R   0.615843 0.345463 0.899747 -0.191456
C118  C     C_R   0.201753 0.768495 0.675952 0.894328
C119  C     C_R   0.383914 0.654187 0.100378 -0.190100
C120  C     C_R   0.383987 0.345662 0.100377 -0.193115
C121  C     C_R   0.616185 0.654064 0.899556 -0.189908
C122  C     C_R   0.116014 0.845665 0.899622 -0.193127
C123  C     C_R   0.883815 0.154064 0.100444 -0.189909
C124  C     C_R   0.884156 0.845463 0.100253 -0.191459
C125  C     C_R   0.116087 0.154186 0.899621 -0.190097
C126  C     C_R   0.632656 0.320873 0.814097 -0.347457
C127  C     C_R   0.367054 0.678726 0.186033 -0.340656
C128  C     C_R   0.367231 0.321011 0.185974 -0.346956
C129  C     C_R   0.798122 0.231247 0.324109 0.913848
C130  C     C_R   0.632979 0.678704 0.813963 -0.345030
C131  C     C_R   0.132771 0.821015 0.814025 -0.346967
C132  C     C_R   0.867021 0.178704 0.186037 -0.345031
C133  C     C_R   0.867344 0.820873 0.185902 -0.347461
C134  C     C_R   0.132946 0.178726 0.813967 -0.340656
C135  C     C_R   0.678969 0.279949 0.771549 -0.046920
C136  C     C_R   0.320598 0.719324 0.228703 -0.047914
C137  C     C_R   0.320888 0.280162 0.228578 -0.039579
C138  C     C_R   0.679527 0.719107 0.771185 -0.041488
C139  C     C_R   0.179115 0.780169 0.771420 -0.039579
C140  C     C_R   0.798285 0.768428 0.324014 0.915675
C141  C     C_R   0.820473 0.219107 0.228815 -0.041488
C142  C     C_R   0.821031 0.779948 0.228450 -0.046921
C143  C     C_R   0.179402 0.219324 0.771297 -0.047915
C144  C     C_R   0.706662 0.257085 0.817994 -0.301089
C145  C     C_R   0.292549 0.741529 0.182588 -0.309949
C146  C     C_R   0.293075 0.257453 0.182292 -0.311736
C147  C     C_R   0.707778 0.740966 0.817076 -0.310248
C148  C     C_R   0.206932 0.757467 0.817703 -0.311723
C149  C     C_R   0.792222 0.240966 0.182924 -0.310248
C150  C     C_R   0.793338 0.757084 0.182005 -0.301088
C151  C     C_R   0.201847 0.231316 0.675917 0.934222
C152  C     C_R   0.207452 0.241527 0.817410 -0.309950
C153  C     C_R   0.688026 0.278004 0.907275 -0.057450
C154  C     C_R   0.311249 0.720795 0.093242 -0.044233
C155  C     C_R   0.311643 0.278395 0.093066 -0.054634
C156  C     C_R   0.689164 0.720151 0.906337 -0.045462
C157  C     C_R   0.188363 0.778409 0.906930 -0.054665
C158  C     C_R   0.810836 0.220151 0.093663 -0.045463
C159  C     C_R   0.811974 0.778003 0.092725 -0.057450
C160  C     C_R   0.188753 0.220793 0.906756 -0.044230
C161  C     C_R   0.691348 0.129440 0.535115 0.899692
C162  C     C_R   0.083417 0.380119 0.412108 -0.223540
C163  C     C_R   0.303104 0.872070 0.483375 0.906438
C164  C     C_R   0.308455 0.129049 0.467085 0.896732
C165  C     C_R   0.690994 0.870556 0.535968 0.896170
C166  C     C_R   0.191545 0.629049 0.532916 0.896735
C167  C     C_R   0.809006 0.370556 0.464032 0.896169
C168  C     C_R   0.808652 0.629440 0.464885 0.899693
C169  C     C_R   0.196896 0.372070 0.516625 0.906442
C170  C     C_R   0.073912 0.100047 0.934285 0.925596
C171  C     C_R   0.926101 0.899936 0.065724 0.926110
C172  C     C_R   0.926080 0.100043 0.065717 0.925929
F1    F     F_    0.626335 0.347944 0.032504 -0.674086
F2    F     F_    0.373772 0.652245 0.967202 -0.666435
F3    F     F_    0.373209 0.348518 0.967899 -0.674498
F4    F     F_    0.626469 0.651978 0.032613 -0.663290
F5    F     F_    0.126787 0.848515 0.032105 -0.674481
F6    F     F_    0.873531 0.151979 0.967386 -0.663288
F7    F     F_    0.873665 0.847944 0.967497 -0.674087
F8    F     F_    0.126231 0.152242 0.032796 -0.666442
H1    H     H_    0.722076 0.999934 0.547094 0.200804
H2    H     H_    0.418502 0.171040 0.416147 0.170226
H3    H     H_    0.135392 0.353330 0.123328 0.198292
H4    H     H_    0.345273 0.836833 0.595936 0.177400
H5    H     H_    0.583982 0.182359 0.598041 0.178956
H6    H     H_    0.080362 0.333435 0.376630 0.142052
H7    H     H_    0.988414 0.684103 0.435311 0.147466
H8    H     H_    0.999367 0.320683 0.401169 0.146268
H9    H     H_    0.014266 0.674938 0.537624 0.146982
H10   H     H_    0.500632 0.820683 0.598832 0.146269
H11   H     H_    0.485732 0.174939 0.462384 0.146980
H12   H     H_    0.419637 0.833434 0.623371 0.142053
H13   H     H_    0.284616 0.998941 0.439403 0.194821
H14   H     H_    0.511584 0.184103 0.564697 0.147473
H15   H     H_    0.780945 0.338882 0.877362 0.148294
H16   H     H_    0.217890 0.659794 0.124027 0.149871
H17   H     H_    0.218110 0.338250 0.124470 0.145893
H18   H     H_    0.782155 0.658392 0.876456 0.149766
H19   H     H_    0.281894 0.838262 0.875532 0.145895
H20   H     H_    0.717847 0.158387 0.123538 0.149766
H21   H     H_    0.719053 0.838876 0.122644 0.148294
H22   H     H_    0.282114 0.159791 0.875964 0.149887
H23   H     H_    0.611969 0.338411 0.777810 0.201977
H24   H     H_    0.215384 0.498941 0.560597 0.194821
H25   H     H_    0.387921 0.661530 0.222160 0.203429
H26   H     H_    0.388003 0.338417 0.222173 0.202757
H27   H     H_    0.611973 0.661754 0.777968 0.201346
H28   H     H_    0.111997 0.838417 0.777827 0.202760
H29   H     H_    0.888027 0.161754 0.222032 0.201345
H30   H     H_    0.888031 0.838411 0.222190 0.201978
H31   H     H_    0.112078 0.161531 0.777841 0.203428
H32   H     H_    0.743573 0.225311 0.784290 0.189006
H33   H     H_    0.255450 0.772910 0.216467 0.184013
H34   H     H_    0.256130 0.225749 0.216071 0.186270
H35   H     H_    0.777924 0.499934 0.452905 0.200804
H36   H     H_    0.744941 0.772212 0.783114 0.183811
H37   H     H_    0.243878 0.725766 0.783924 0.186273
H38   H     H_    0.755059 0.272211 0.216886 0.183811
H39   H     H_    0.756427 0.725310 0.215710 0.189005
H40   H     H_    0.244552 0.272908 0.783531 0.184018
H41   H     H_    0.538384 0.148031 0.127938 0.264437
H42   H     H_    0.562797 0.081840 0.178561 0.261102
H43   H     H_    0.521978 0.157232 0.243944 0.251528
H44   H     H_    0.618996 0.177296 0.198144 0.215138
H45   H     H_    0.594709 0.243576 0.148534 0.276106
H46   H     H_    0.154726 0.336834 0.404064 0.177401
H47   H     H_    0.634746 0.169406 0.005406 0.205205
H48   H     H_    0.660801 0.105965 0.053703 0.202457
H49   H     H_    0.420076 0.914201 0.981850 0.266422
H50   H     H_    0.401610 0.966164 0.910486 0.260464
H51   H     H_    0.376975 0.992929 0.025743 0.251249
H52   H     H_    0.304036 0.931893 0.009135 0.234039
H53   H     H_    0.322785 0.879546 0.079224 0.232352
H54   H     H_    0.381757 0.799711 0.946072 0.227315
H55   H     H_    0.364614 0.853337 0.876680 0.198291
H56   H     H_    0.459742 0.143996 0.875563 0.263616
H57   H     H_    0.916017 0.682359 0.401963 0.178956
H58   H     H_    0.436400 0.081632 0.819305 0.261731
H59   H     H_    0.478328 0.158006 0.759382 0.257372
H60   H     H_    0.381330 0.179193 0.802455 0.216704
H61   H     H_    0.405834 0.243567 0.853834 0.276067
H62   H     H_    0.364122 0.168775 0.995981 0.204443
H63   H     H_    0.338396 0.106301 0.946169 0.203344
H64   H     H_    0.582928 0.915411 0.011582 0.266662
H65   H     H_    0.601571 0.968552 0.081895 0.259985
H66   H     H_    0.627019 0.993020 0.965717 0.251248
H67   H     H_    0.698773 0.931792 0.985572 0.234633
H68   H     H_    0.917649 0.320237 0.394204 0.176771
H69   H     H_    0.679956 0.878585 0.916238 0.232224
H70   H     H_    0.619409 0.801329 0.051474 0.227254
H71   H     H_    0.637032 0.855787 0.119680 0.201003
H72   H     H_    0.040197 0.644335 0.124456 0.263580
H73   H     H_    0.063509 0.581711 0.180510 0.261709
H74   H     H_    0.021671 0.658091 0.240655 0.257338
H75   H     H_    0.118680 0.679052 0.197576 0.216619
H76   H     H_    0.094244 0.743620 0.146296 0.276075
H77   H     H_    0.135848 0.668845 0.004062 0.204501
H78   H     H_    0.161588 0.606324 0.053804 0.203273
H79   H     H_    0.081497 0.671039 0.583859 0.170225
H80   H     H_    0.917065 0.415421 0.988432 0.266662
H81   H     H_    0.898419 0.468563 0.918123 0.259985
H82   H     H_    0.872970 0.493025 0.034303 0.251247
H83   H     H_    0.801220 0.431794 0.014440 0.234633
H84   H     H_    0.820038 0.378587 0.083773 0.232224
H85   H     H_    0.880588 0.301336 0.948534 0.227250
H86   H     H_    0.862965 0.355795 0.880329 0.201003
H87   H     H_    0.961618 0.648035 0.872053 0.264439
H88   H     H_    0.937205 0.581847 0.821426 0.261104
H89   H     H_    0.978024 0.657241 0.756048 0.251528
H90   H     H_    0.582350 0.820236 0.605795 0.176772
H91   H     H_    0.881005 0.677304 0.801851 0.215139
H92   H     H_    0.905292 0.743582 0.851463 0.276109
H93   H     H_    0.865256 0.669410 0.994588 0.205204
H94   H     H_    0.839202 0.605968 0.946288 0.202456
H95   H     H_    0.079910 0.414181 0.018186 0.266426
H96   H     H_    0.098386 0.466150 0.089530 0.260445
H97   H     H_    0.123007 0.492910 0.974276 0.251251
H98   H     H_    0.195958 0.431882 0.990861 0.234042
H99   H     H_    0.177200 0.379530 0.920788 0.232352
H100  H     H_    0.118242 0.299696 0.053950 0.227323
O1    O     O_R   0.746490 0.236330 0.638080 -0.633003
O2    O     O_R   0.325830 0.813840 0.483730 -0.639098
O3    O     O_R   0.325830 0.186160 0.483730 -0.638633
O4    O     O_R   0.674170 0.813840 0.516270 -0.636385
O5    O     O_R   0.174170 0.686160 0.516270 -0.638632
O6    O     O_R   0.825830 0.313840 0.483730 -0.636384
O7    O     O_R   0.825830 0.686160 0.483730 -0.639908
O8    O     O_R   0.174170 0.313840 0.516270 -0.639098
O9    O     O_R   0.739960 0.127620 0.525000 -0.626648
O10   O     O_R   0.260040 0.872380 0.475000 -0.629333
O11   O     O_R   0.260040 0.127620 0.475000 -0.620861
O12   O     O_R   0.253510 0.763670 0.361920 -0.633358
O13   O     O_R   0.739960 0.872380 0.525000 -0.624967
O14   O     O_R   0.239960 0.627620 0.525000 -0.620859
O15   O     O_R   0.760040 0.372380 0.475000 -0.624967
O16   O     O_R   0.760040 0.627620 0.475000 -0.626648
O17   O     O_R   0.239960 0.372380 0.525000 -0.629333
O18   O     O_R   0.680700 0.294870 0.629350 -0.635154
O19   O     O_R   0.319300 0.705130 0.370650 -0.622257
O20   O     O_R   0.319300 0.294870 0.370650 -0.636630
O21   O     O_R   0.680700 0.705130 0.629350 -0.635112
O22   O     O_R   0.180700 0.794870 0.629350 -0.636630
O23   O     O_R   0.253510 0.236330 0.361920 -0.651235
O24   O     O_R   0.819300 0.205130 0.370650 -0.635112
O25   O     O_R   0.819300 0.794870 0.370650 -0.635153
O26   O     O_R   0.180700 0.205130 0.629350 -0.622258
O27   O     O_R   0.062020 0.072840 0.007170 -0.549495
O28   O     O_R   0.937980 0.927160 0.992830 -0.550200
O29   O     O_R   0.937980 0.072840 0.992830 -0.548610
O30   O     O_R   0.062020 0.927160 0.007170 -0.550508
O31   O     O_R   0.562020 0.572840 0.007170 -0.548610
O32   O     O_R   0.437980 0.427160 0.992830 -0.550511
O33   O     O_R   0.437980 0.572840 0.992830 -0.549493
O34   O     O_R   0.746490 0.763670 0.638080 -0.635320
O35   O     O_R   0.562020 0.427160 0.007170 -0.550199
O36   O     O_R   0.947860 0.073950 0.109290 -0.640380
O37   O     O_R   0.052140 0.926050 0.890710 -0.640780
O38   O     O_R   0.052140 0.073950 0.890710 -0.639208
O39   O     O_R   0.947860 0.926050 0.109290 -0.640966
O40   O     O_R   0.447860 0.573950 0.109290 -0.639209
O41   O     O_R   0.552140 0.426050 0.890710 -0.640969
O42   O     O_R   0.552140 0.573950 0.890710 -0.640380
O43   O     O_R   0.447860 0.426050 0.109290 -0.640780
O44   O     O_R   0.246490 0.736330 0.638080 -0.651236
O45   O     O_R   0.753510 0.263670 0.361920 -0.635320
O46   O     O_R   0.753510 0.736330 0.361920 -0.633003
O47   O     O_R   0.246490 0.263670 0.638080 -0.633357
O48   O     O_R   0.674170 0.186160 0.516270 -0.639908
Zn1   Zn    Zn3+2 0.792340 0.208750 0.507670 0.954126
Zn2   Zn    Zn3+2 0.494040 0.500000 0.919480 1.037832
Zn3   Zn    Zn3+2 0.005960 0.000000 0.080520 1.037835
Zn4   Zn    Zn3+2 0.994040 0.000000 0.919480 1.041700
Zn5   Zn    Zn3+2 0.207660 0.791250 0.492330 0.950015
Zn6   Zn    Zn3+2 0.207660 0.208750 0.492330 0.953030
Zn7   Zn    Zn3+2 0.792340 0.791250 0.507670 0.947979
Zn8   Zn    Zn3+2 0.292340 0.708750 0.507670 0.953031
Zn9   Zn    Zn3+2 0.707660 0.291250 0.492330 0.947979
Zn10  Zn    Zn3+2 0.707660 0.708750 0.492330 0.954127
Zn11  Zn    Zn3+2 0.292340 0.291250 0.507670 0.950018
Zn12  Zn    Zn3+2 0.505960 0.500000 0.080520 1.041701

loop_
_geom_bond_atom_site_label_1
_geom_bond_atom_site_label_2
_ccdc_geom_bond_type
C113  F5    S    
C28   C47   A    
C36   C42   A    
C72   H73   S    
C83   C154  S    
C67   C69   S    
O13   Zn7   S    
C124  C133  A    
O12   Zn5   S    
O10   Zn5   S    
C109  F1    S    
C48   C162  A    
O17   Zn11  S    
C32   C163  S    
C36   C168  S    
C118  O22   A    
C166  O14   A    
C80   H3    S    
C37   C42   A    
C86   C156  S    
C134  C143  A    
C52   H90   S    
C113  C122  A    
C10   C20   A    
C96   O23   A    
C88   C158  S    
C91   C100  A    
C117  C126  A    
C88   C97   A    
C97   C105  A    
C74   H83   S    
C76   C103  S    
C143  C151  S    
C171  O39   A    
C8    C16   A    
C97   H20   S    
C128  H26   S    
C50   H68   S    
O26   Zn6   S    
C171  O28   A    
C150  C159  A    
C56   H48   S    
C1    O18   A    
C127  C136  A    
O15   Zn9   S    
C57   H12   S    
C49   H57   S    
C74   C75   S    
O6    Zn1   S    
C64   H61   S    
C29   C45   A    
O33   Zn2   S    
C33   C161  S    
C48   H46   S    
C168  O7    A    
C77   H92   S    
C146  H34   S    
C13   C18   A    
C69   H65   S    
C35   H10   S    
C116  F8    S    
C99   H22   S    
O29   Zn4   S    
C130  C138  A    
C83   C104  A    
C6    O40   A    
C14   C57   A    
O40   Zn12  S    
C2    C19   A    
C81   H99   S    
C132  H29   S    
C25   C55   A    
C166  O5    A    
C92   H16   S    
C69   H64   S    
O7    Zn7   S    
O36   Zn3   S    
C98   C106  A    
C107  C138  S    
O3    Zn11  S    
C9    C15   A    
C16   C35   A    
C64   C65   S    
C1    O1    A    
C6    O33   A    
C122  C131  A    
O14   Zn8   S    
C46   C53   A    
C76   H93   S    
C84   C93   A    
C3    O37   A    
C127  H25   S    
C64   H60   S    
O45   Zn9   S    
C73   H86   S    
O8    Zn6   S    
C140  O46   A    
C113  C157  A    
C111  C155  A    
O44   Zn8   S    
C66   H70   S    
C11   C18   A    
C123  C132  A    
C7    O41   A    
C169  O8    A    
C61   H53   S    
C118  O44   A    
C7    C117  S    
C65   H56   S    
C93   H17   S    
O21   Zn10  S    
C46   H11   S    
C25   C43   A    
C70   C101  S    
C99   C108  A    
C12   C68   A    
C133  C142  A    
C110  C154  A    
O27   Zn3   S    
C167  O6    A    
C61   H52   S    
C78   H89   S    
C2    H7    S    
C90   C102  A    
C42   H35   S    
C107  O21   A    
C26   C45   A    
C87   C101  A    
C67   H67   S    
C70   H77   S    
C114  F6    S    
C87   C95   A    
C29   C38   A    
C150  H39   S    
C149  C158  A    
C170  O27   A    
C79   C91   A    
C123  C172  S    
C66   C67   S    
O43   Zn12  S    
C89   C103  A    
C165  O4    A    
C86   C106  A    
C60   H55   S    
C89   C159  S    
C40   H13   S    
C110  F2    S    
C139  C148  A    
C38   C41   A    
C165  O13   A    
C87   C157  S    
C80   C102  S    
C161  O9    A    
C59   H42   S    
C79   C153  S    
C170  O38   A    
C8    C12   A    
C20   C162  A    
C10   C45   A    
C41   H24   S    
C71   H75   S    
C34   C169  S    
C114  C123  A    
C112  F4    S    
C116  C125  A    
C3    O30   A    
C65   H58   S    
C145  C154  A    
C90   C99   A    
C29   C51   A    
C27   C47   A    
C132  C141  A    
C85   O12   A    
C31   C164  S    
C134  H31   S    
C30   C165  S    
C72   H74   S    
C63   C64   S    
C110  C119  A    
O22   Zn5   S    
C126  H23   S    
C89   C98   A    
C78   H87   S    
C82   H95   S    
C112  C121  A    
C53   H2    S    
C85   O19   A    
C28   C37   A    
C24   C51   A    
C56   C58   S    
C30   C39   A    
C148  C157  A    
C61   C62   S    
C163  O10   A    
C131  C139  A    
C85   C136  S    
C13   C50   A    
C112  C156  A    
C68   H14   S    
C15   C46   A    
C63   C108  S    
C60   C104  S    
C27   C49   A    
C25   C33   A    
C54   C57   A    
C74   H84   S    
C125  C134  A    
C73   C100  S    
C73   C74   S    
C6    C119  S    
C98   H21   S    
C11   C47   A    
C8    C43   A    
C75   H81   S    
C55   C68   A    
C109  C117  A    
C37   C167  S    
C77   C78   S    
C11   C19   A    
C172  O36   A    
C140  C142  S    
C116  C160  A    
C129  C141  S    
O42   Zn2   S    
C31   C40   A    
C114  C158  A    
C146  C155  A    
C77   H91   S    
C70   C71   S    
C109  C153  A    
C121  C130  A    
C26   C48   A    
C34   C41   A    
O47   Zn11  S    
C5    C120  S    
C81   H98   S    
O16   Zn10  S    
C60   H54   S    
O35   Zn12  S    
C58   H44   S    
C58   C59   S    
C63   H62   S    
O2    Zn8   S    
C23   C44   A    
C115  C159  A    
C60   C61   S    
C9    C14   A    
C137  C146  A    
C12   C15   A    
C5    O43   A    
C76   H94   S    
C125  C170  S    
C88   C100  A    
C58   H45   S    
C73   H85   S    
O34   Zn7   S    
C145  H33   S    
O9    Zn1   S    
C143  C152  A    
C94   C103  A    
C54   H4    S    
C118  C139  S    
C151  O47   A    
C144  H32   S    
C38   C166  S    
C51   H79   S    
C66   H71   S    
C151  O26   A    
C115  C124  A    
C56   H47   S    
C129  O45   A    
C93   C102  A    
C120  C128  A    
C27   C36   A    
C21   C30   A    
O11   Zn6   S    
C23   C32   A    
C142  C150  A    
C4    O31   A    
C124  C171  S    
O39   Zn3   S    
C7    O35   A    
C84   C108  A    
C4    C121  S    
C149  H38   S    
C90   C160  S    
O46   Zn10  S    
C56   C105  S    
O41   Zn2   S    
O30   Zn3   S    
C69   H66   S    
C70   H78   S    
O5    Zn5   S    
C62   H51   S    
C35   C52   A    
C80   H100  S    
O23   Zn6   S    
C152  C160  A    
O20   Zn11  S    
C81   C82   S    
C141  C149  A    
C83   C92   A    
C33   C39   A    
C111  F3    S    
C84   C155  S    
C10   C17   A    
C91   H15   S    
C79   C105  A    
C96   O20   A    
C144  C153  A    
C130  H27   S    
C5    O32   A    
C21   C43   A    
C28   C50   A    
C26   C34   A    
C22   C44   A    
C163  O2    A    
C24   H9    S    
C86   C94   A    
C18   C20   A    
O48   Zn9   S    
C3    C122  S    
C32   C40   A    
C140  O25   A    
C75   H82   S    
C13   H8    S    
C148  H37   S    
C4    O42   A    
C133  H30   S    
O38   Zn4   S    
O18   Zn9   S    
C66   C106  S    
C131  H28   S    
C22   C53   A    
O37   Zn4   S    
C167  O15   A    
C168  O16   A    
C17   C24   A    
O32   Zn2   S    
C22   C31   A    
O4    Zn10  S    
C76   C77   S    
C147  H36   S    
C96   C137  S    
C162  H6    S    
C161  O48   A    
C62   H50   S    
O19   Zn8   S    
C172  O29   A    
O25   Zn7   S    
C164  O3    A    
C111  C120  A    
C94   H18   S    
C78   H88   S    
C82   H96   S    
C128  C137  A    
C147  C156  A    
C2    C49   A    
C138  C147  A    
C62   H49   S    
C63   H63   S    
C72   H72   S    
C39   H1    S    
C59   H43   S    
C92   C101  A    
C135  C144  A    
C14   C16   A    
C82   H97   S    
C67   H69   S    
C95   C104  A    
C23   C54   A    
C9    C44   A    
O24   Zn1   S    
C136  C145  A    
C80   C81   S    
O28   Zn4   S    
C126  C135  A    
C164  O11   A    
C129  O24   A    
C1    C135  S    
C107  O34   A    
C152  H40   S    
C17   C19   A    
C59   H41   S    
O1    Zn1   S    
C55   H5    S    
C71   H76   S    
C71   C72   S    
C75   H80   S    
C95   H19   S    
C65   H59   S    
O31   Zn12  S    
C169  O17   A    
C21   C52   A    
C115  F7    S    
C119  C127  A    
