data_mof_unit_43496.cif
_audit_creation_date              2012-12-10T17:31:14-0500
_audit_creation_method            fapswitch 2.2
_symmetry_space_group_name_H-M    P1
_symmetry_Int_Tables_number       1
_space_group_crystal_system       triclinic
_cell_length_a                    12.075232
_cell_length_b                    13.075104
_cell_length_c                    15.437831
_cell_angle_alpha                 85.720741
_cell_angle_beta                  115.996033
_cell_angle_gamma                 92.098932
_cell_volume                      2184.66677881

loop_
_atom_site_label
_atom_site_type_symbol
_atom_type_description
_atom_site_fract_x
_atom_site_fract_y
_atom_site_fract_z
_atom_type_partial_charge
C1    C     C_R   0.478109 0.299825 0.497619 0.900588
C2    C     C_R   0.649419 0.966027 0.497068 -0.286886
C3    C     C_R   0.365578 0.138340 0.503800 0.170711
C4    C     C_R   0.643232 0.860026 0.503805 0.177084
C5    C     C_R   0.558529 0.132005 0.486981 0.126906
C6    C     C_R   0.429817 0.871949 0.479879 0.130349
C7    C     C_R   0.553029 0.025131 0.493495 0.052775
C8    C     C_R   0.446973 0.976417 0.493285 0.062253
C9    C     C_R   0.007089 0.611521 0.420328 0.146892
C10   C     C_R   0.005866 0.403468 0.596716 0.129429
C11   C     C_R   0.117567 0.586653 0.415069 0.319739
C12   C     C_R   0.520287 0.700492 0.498128 0.907525
C13   C     C_R   0.882074 0.410889 0.585281 0.332991
C14   C     C_R   0.167077 0.462897 0.545058 -0.099679
C15   C     C_R   0.840218 0.547687 0.465482 -0.109808
C16   C     C_R   0.576218 0.491231 0.680686 0.879097
C17   C     C_R   0.422876 0.506322 0.319001 0.876105
C18   C     C_R   0.045737 0.469253 0.539201 -0.036985
C19   C     C_R   0.963863 0.544688 0.475527 -0.036425
C20   C     C_R   0.622966 0.482972 0.785599 -0.118421
C21   C     C_R   0.374095 0.523041 0.213842 -0.089306
C22   C     C_R   0.787817 0.477141 0.948307 0.229768
C23   C     C_R   0.643397 0.521206 0.114183 0.182210
C24   C     C_R   0.240596 0.617098 0.063289 0.249707
C25   C     C_R   0.748215 0.481517 0.847904 -0.256246
C26   C     C_R   0.272620 0.586568 0.160400 -0.299393
C27   C     C_R   0.537775 0.482434 0.823191 -0.180748
C28   C     C_R   0.443813 0.490631 0.170040 -0.232423
C29   C     C_R   0.573429 0.502657 0.918719 0.032851
C30   C     C_R   0.424157 0.531429 0.078346 0.017431
C31   C     C_R   0.699237 0.486807 0.985766 -0.041457
C32   C     C_R   0.313474 0.583711 0.019126 0.045888
C33   C     C_R   0.484685 0.533415 0.948501 -0.026197
C34   C     C_R   0.368996 0.580333 0.884531 0.128526
C35   C     C_R   0.516909 0.524614 0.047398 -0.064434
C36   C     C_3   0.859572 0.407953 0.251814 -0.812425
C37   C     C_3   0.068735 0.575858 0.816800 -0.796389
C38   C     C_3   0.847185 0.343154 0.653087 -0.848942
C39   C     C_3   0.135171 0.620510 0.327177 -0.836526
C40   C     C_3   0.942718 0.710778 0.370978 -0.966801
C41   C     C_3   0.097435 0.327012 0.670485 -0.973893
C42   C     C_3   0.983440 0.389490 0.008058 -0.837207
C43   C     C_3   0.193170 0.795992 0.017614 -0.778621
C44   C     C_3   0.650965 0.683890 0.184906 -0.784669
C45   C     C_R   0.731470 0.486170 0.086192 0.166157
C46   C     C_3   0.399122 0.710983 0.776857 -0.780712
C47   C     C_3   0.234300 0.866889 0.338836 -0.821494
C48   C     C_3   0.627171 0.197262 0.367325 -0.744277
C49   C     C_3   0.834399 0.779809 0.614772 -0.742324
C50   C     C_3   0.163064 0.213568 0.427165 -0.752898
C51   C     C_R   0.283932 0.605195 0.920288 0.136028
C52   C     C_R   0.531693 0.811865 0.494021 -0.161691
C53   C     C_R   0.465937 0.188917 0.494898 -0.158695
C54   C     C_R   0.356637 0.032970 0.501618 -0.289826
H1    H     H_    0.519000 0.437820 0.210140 0.145153
H2    H     H_    0.944079 0.360756 0.290080 0.231830
H3    H     H_    0.779043 0.360553 0.247067 0.225594
H4    H     H_    0.871932 0.473923 0.295437 0.275003
H5    H     H_    0.169366 0.704897 0.806001 0.229705
H6    H     H_    0.980298 0.616871 0.774975 0.242466
H7    H     H_    0.060716 0.527116 0.875704 0.250428
H8    H     H_    0.085541 0.526618 0.768270 0.236454
H9    H     H_    0.858843 0.261377 0.644544 0.207462
H10   H     H_    0.906294 0.362013 0.728754 0.207062
H11   H     H_    0.753230 0.349756 0.642760 0.286965
H12   H     H_    0.441873 0.468542 0.776421 0.180764
H13   H     H_    0.062782 0.672297 0.274661 0.214731
H14   H     H_    0.224873 0.659019 0.347440 0.283677
H15   H     H_    0.129624 0.551196 0.288222 0.245917
H16   H     H_    0.011870 0.773484 0.386701 0.242770
H17   H     H_    0.894605 0.704513 0.292006 0.273383
H18   H     H_    0.877573 0.734820 0.398094 0.234784
H19   H     H_    0.062862 0.279220 0.715502 0.254066
H20   H     H_    0.127374 0.273225 0.632600 0.242842
H21   H     H_    0.178860 0.368926 0.721563 0.237361
H22   H     H_    0.957235 0.545998 0.996969 0.229510
H23   H     H_    0.223086 0.618820 0.195207 0.158897
H24   H     H_    0.080423 0.394495 0.063583 0.254914
H25   H     H_    0.983246 0.384467 0.936545 0.232705
H26   H     H_    0.941423 0.318405 0.024886 0.243652
H27   H     H_    0.078519 0.687876 0.039537 0.212140
H28   H     H_    0.239517 0.819897 0.093019 0.225058
H29   H     H_    0.115374 0.848858 0.974717 0.237072
H30   H     H_    0.259514 0.802230 0.985406 0.245409
H31   H     H_    0.678404 0.538573 0.257600 0.234971
H32   H     H_    0.549707 0.693660 0.151628 0.248523
H33   H     H_    0.688769 0.725628 0.138345 0.243349
H34   H     H_    0.815293 0.483491 0.818851 0.165785
H35   H     H_    0.687404 0.719079 0.255281 0.229915
H36   H     H_    0.254025 0.605516 0.736708 0.231524
H37   H     H_    0.381490 0.726676 0.700206 0.243946
H38   H     H_    0.500403 0.709005 0.821918 0.255258
H39   H     H_    0.358916 0.773857 0.798408 0.221419
H40   H     H_    0.262408 0.831331 0.481670 0.223177
H41   H     H_    0.139414 0.836178 0.312858 0.234777
H42   H     H_    0.275719 0.841074 0.292600 0.245062
H43   H     H_    0.227290 0.951778 0.330852 0.249391
H44   H     H_    0.742528 0.161404 0.513477 0.213248
H45   H     H_    0.277855 0.996069 0.506725 0.153639
H46   H     H_    0.701026 0.244791 0.359903 0.227477
H47   H     H_    0.623156 0.122058 0.336980 0.224957
H48   H     H_    0.538119 0.237856 0.325873 0.236774
H49   H     H_    0.791283 0.835325 0.475097 0.209203
H50   H     H_    0.908512 0.730176 0.617147 0.234108
H51   H     H_    0.787718 0.738101 0.655015 0.249420
H52   H     H_    0.876639 0.851444 0.650362 0.220391
H53   H     H_    0.252868 0.158966 0.569846 0.210583
H54   H     H_    0.099660 0.260989 0.442004 0.230315
H55   H     H_    0.115255 0.140945 0.397747 0.219421
H56   H     H_    0.732988 0.000185 0.498624 0.148369
H57   H     H_    0.186244 0.256752 0.372456 0.255437
H58   H     H_    0.774676 0.602365 0.415010 0.169154
H59   H     H_    0.234319 0.409714 0.596338 0.171072
H60   H     H_    0.876434 0.385305 0.129994 0.257320
N1    N     N_R   0.799120 0.480200 0.517090 -0.112388
N2    N     N_2   0.653358 0.182796 0.468224 -0.270331
N3    N     N_2   0.747861 0.803424 0.515260 -0.281928
N4    N     N_2   0.273274 0.192163 0.515761 -0.281281
N5    N     N_R   0.200880 0.519800 0.482910 -0.114716
N6    N     N_2   0.846446 0.442602 0.156448 -0.274983
N7    N     N_2   0.167770 0.649376 0.856438 -0.276956
N8    N     N_2   0.916778 0.479184 0.008743 -0.310531
N9    N     N_2   0.146704 0.692180 0.016277 -0.279533
N10   N     N_2   0.685517 0.576482 0.199500 -0.290306
N11   N     N_2   0.343863 0.613727 0.787559 -0.313880
N12   N     N_2   0.307817 0.830752 0.438647 -0.279948
O1    O     O_R   0.580150 0.341050 0.504560 -0.601689
O2    O     O_R   0.419850 0.658950 0.495440 -0.605226
O3    O     O_R   0.388090 0.353760 0.493600 -0.589866
O4    O     O_R   0.611910 0.646240 0.506400 -0.586672
O5    O     O_R   0.650890 0.490020 0.640860 -0.632980
O6    O     O_R   0.349110 0.509980 0.359140 -0.625556
O7    O     O_R   0.458830 0.502730 0.629890 -0.612822
O8    O     O_R   0.541170 0.497270 0.370110 -0.617398
Zn1   Zn    Zn3+2 0.628240 0.491510 0.507320 0.938470
Zn2   Zn    Zn3+2 0.371760 0.508490 0.492680 0.939549

loop_
_geom_bond_atom_site_label_1
_geom_bond_atom_site_label_2
_ccdc_geom_bond_type
H5    N7    S    
C21   C26   A    
C42   H26   S    
C23   C45   A    
C40   H17   S    
C27   C29   A    
C43   H29   S    
C39   H14   S    
C14   C18   A    
C46   N11   S    
O4    Zn1   S    
C11   N5    A    
C49   H50   S    
C37   H8    S    
C7    C8    A    
C15   C19   A    
C34   C51   A    
C12   O4    A    
C30   C35   A    
C4    C52   A    
C5    C53   A    
O1    Zn1   S    
C1    O3    A    
O2    Zn2   S    
C3    C54   A    
C46   H38   S    
C20   C25   A    
C29   C33   A    
H31   N10   S    
C18   C19   A    
C25   H34   S    
C16   O5    A    
C1    C53   S    
C41   H20   S    
C9    C19   A    
C49   N3    S    
C2    C7    A    
C22   C25   A    
O7    Zn2   S    
C47   H42   S    
C44   H33   S    
H53   N4    S    
O6    Zn2   S    
C48   N2    S    
C42   H25   S    
C10   C41   S    
C50   H54   S    
C43   H30   S    
H49   N3    S    
C44   H32   S    
C16   O7    A    
C12   C52   S    
C28   H1    S    
C22   N8    S    
C38   H10   S    
H40   N12   S    
C48   H46   S    
C26   H23   S    
C22   C31   A    
C6    N12   S    
C36   H3    S    
C8    C54   A    
C5    C7    A    
C6    C8    A    
C46   H37   S    
C44   N10   S    
C24   N9    S    
C17   C21   S    
C9    C40   S    
C36   N6    S    
C2    C4    A    
C24   C32   A    
C32   C51   A    
C36   H2    S    
C3    N4    S    
C41   H21   S    
O3    Zn2   S    
O5    Zn1   S    
H44   N2    S    
C38   H11   S    
C16   C20   S    
C48   H48   S    
C33   C34   A    
C39   H15   S    
C11   C39   S    
C9    C11   A    
C13   C38   S    
C13   N1    A    
C40   H16   S    
C37   N7    S    
C45   N6    S    
C21   C28   A    
H27   N9    S    
C42   H24   S    
C23   C35   A    
C5    N2    S    
C51   N7    S    
C15   N1    A    
C4    N3    S    
C43   N9    S    
C37   H7    S    
C42   N8    S    
C47   N12   S    
C38   H9    S    
C2    H56   S    
C40   H18   S    
C50   N4    S    
C39   H13   S    
C15   H58   S    
C1    O1    A    
C24   C26   A    
C10   C13   A    
C49   H51   S    
C49   H52   S    
C12   O2    A    
C20   C27   A    
C14   H59   S    
O8    Zn1   S    
C36   H4    S    
N5    Zn2   S    
C47   H43   S    
H22   N8    S    
C28   C30   A    
C29   C31   A    
C27   H12   S    
C30   C32   A    
C3    C53   A    
C46   H39   S    
N1    Zn1   S    
C10   C18   A    
C34   N11   S    
C48   H47   S    
C50   H57   S    
C33   C35   A    
H36   N11   S    
C50   H55   S    
C54   H45   S    
C37   H6    S    
C41   H19   S    
C14   N5    A    
C31   C45   A    
C17   O8    A    
C43   H28   S    
C47   H41   S    
C6    C52   A    
C23   N10   S    
H60   N6    S    
C44   H35   S    
C17   O6    A    
