data_mof_unit_37601.cif
_audit_creation_date              2013-03-05T16:35:53-0500
_audit_creation_method            fapswitch 2.2
_symmetry_space_group_name_H-M    P1
_symmetry_Int_Tables_number       1
_space_group_crystal_system       triclinic
_cell_length_a                    23.565632
_cell_length_b                    9.289056
_cell_length_c                    7.749515
_cell_angle_alpha                 90.00216
_cell_angle_beta                  90.001449
_cell_angle_gamma                 88.689641
_cell_volume                      1695.94439385

loop_
_atom_site_label
_atom_site_type_symbol
_atom_site_description
_atom_site_fract_x
_atom_site_fract_y
_atom_site_fract_z
_atom_type_partial_charge
O1    O     O_R   0.500000 0.288390 0.642760 -0.585462
O2    O     O_R   0.500000 0.711610 0.357240 -0.585836
O3    O     O_R   0.500000 0.711610 0.642760 -0.585425
O4    O     O_R   0.500000 0.288390 0.357240 -0.585729
C1    C     C_R   0.500059 0.219578 0.499997 0.816786
C2    C     C_R   0.499940 0.780422 0.500001 0.816653
O5    O     O_R   0.417880 0.500000 0.642820 -0.544110
O6    O     O_R   0.582120 0.500000 0.357180 -0.542857
O7    O     O_R   0.582120 0.500000 0.642820 -0.544157
O8    O     O_R   0.417880 0.500000 0.357180 -0.543017
C3    C     C_R   0.208037 0.529471 0.499248 0.219174
C4    C     C_R   0.791967 0.470635 0.499271 0.219495
C5    C     C_R   0.390385 0.503156 0.499987 0.839914
C6    C     C_R   0.609616 0.496861 0.499990 0.840192
Cu1   Cu    Cu3+1 0.500000 0.500000 0.669080 1.031642
Cu2   Cu    Cu3+1 0.500000 0.500000 0.330920 1.031941
H1    H     H_    0.214976 0.567423 0.226790 0.155512
H2    H     H_    0.785040 0.432944 0.226772 0.155241
H3    H     H_    0.213625 0.487563 0.771321 0.153628
H4    H     H_    0.786376 0.512357 0.771378 0.153515
C7    C     C_R   0.297356 0.544920 0.345552 0.389873
C8    C     C_R   0.702646 0.455245 0.345529 0.389806
C9    C     C_R   0.296524 0.491517 0.654563 0.392301
C10   C     C_R   0.703477 0.508482 0.654588 0.392015
C11   C     C_R   0.327434 0.512585 0.499915 -0.260713
C12   C     C_R   0.672569 0.487476 0.499917 -0.260372
C13   C     C_R   0.876618 0.610145 0.500909 0.585719
C14   C     C_R   0.123385 0.389965 0.500857 0.585735
C15   C     C_R   0.884832 0.354452 0.482687 0.572473
C16   C     C_R   0.115170 0.645657 0.482653 0.572530
N1    N     N_R   0.852573 0.477931 0.495611 -0.448886
N2    N     N_R   0.147430 0.522178 0.495565 -0.448871
C17   C     C_R   0.944472 0.361378 0.476218 -0.195961
C18   C     C_R   0.055530 0.638730 0.476201 -0.195969
C19   C     C_R   0.936079 0.621820 0.499130 -0.185550
C20   C     C_R   0.063923 0.378290 0.499099 -0.185547
C21   C     C_R   0.970053 0.495751 0.489928 -0.146002
C22   C     C_R   0.029950 0.504358 0.489915 -0.146002
C23   C     C_R   0.979538 0.238147 0.455606 0.421550
C24   C     C_R   0.020462 0.761961 0.455604 0.421541
C25   C     C_R   0.962580 0.755691 0.496934 0.412645
C26   C     C_R   0.037423 0.244419 0.496913 0.412638
C27   C     C_1   0.500019 0.064948 0.499993 -0.180705
C28   C     C_1   0.499979 0.935052 0.499998 -0.180738
C29   C     C_R   0.237957 0.549930 0.346331 -0.203460
C30   C     C_R   0.762050 0.450284 0.346322 -0.203775
C31   C     C_R   0.237217 0.502978 0.653019 -0.209174
C32   C     C_R   0.762785 0.497022 0.653057 -0.209394
N3    N     N_1   0.500000 0.500000 0.076820 -0.031656
N4    N     N_1   0.500000 0.500000 0.923180 -0.032001
O9    O     O_2   0.842768 0.729323 0.502857 -0.493859
O10   O     O_2   0.157234 0.270785 0.502778 -0.493865
O11   O     O_2   0.859277 0.225963 0.480615 -0.488107
O12   O     O_2   0.140725 0.774146 0.480584 -0.488090
O13   O     O_3   0.958611 0.113027 0.388355 -0.451730
C33   C     C_3   0.950474 0.131389 0.208847 -0.162390
H5    H     H_    0.990744 0.158989 0.142831 0.091593
H6    H     H_    0.917263 0.214833 0.179951 0.138343
H7    H     H_    0.935631 0.028720 0.153763 0.172312
O14   O     O_3   0.041386 0.887077 0.388346 -0.451737
C34   C     C_3   0.049514 0.868703 0.208835 -0.162359
H8    H     H_    0.009240 0.841098 0.142832 0.091585
H9    H     H_    0.082724 0.785257 0.179929 0.138363
H10   H     H_    0.064353 0.971369 0.153746 0.172320
O15   O     O_3   0.932038 0.881036 0.528175 -0.454041
C35   C     C_3   0.930225 0.903495 0.708407 -0.140791
H11   H     H_    0.973119 0.895656 0.768395 0.074788
H12   H     H_    0.901794 0.825625 0.771853 0.141032
H13   H     H_    0.912814 0.013446 0.733684 0.192901
O16   O     O_3   0.067967 0.119076 0.528146 -0.454047
C36   C     C_3   0.069791 0.096633 0.708379 -0.140748
H14   H     H_    0.026901 0.104481 0.768386 0.074774
H15   H     H_    0.098228 0.174508 0.771807 0.141040
H16   H     H_    0.087203 0.986683 0.733652 0.192922
O17   O     O_3   0.325636 0.561893 0.190838 -0.532676
C37   C     C_3   0.327045 0.710017 0.151668 -0.190285
H17   H     H_    0.352334 0.723815 0.032289 0.199871
H18   H     H_    0.348079 0.771536 0.256236 0.127431
H19   H     H_    0.283693 0.755223 0.126454 0.146605
O18   O     O_3   0.674342 0.438427 0.190812 -0.532898
C38   C     C_3   0.673339 0.290460 0.150596 -0.189913
H20   H     H_    0.647814 0.276705 0.031675 0.199984
H21   H     H_    0.652781 0.227901 0.255128 0.127240
H22   H     H_    0.716769 0.246383 0.124095 0.146760
O19   O     O_3   0.324121 0.466115 0.809422 -0.534642
C39   C     C_3   0.321511 0.318111 0.848295 -0.183122
H23   H     H_    0.340613 0.250807 0.743412 0.128668
H24   H     H_    0.277136 0.285759 0.873967 0.147927
H25   H     H_    0.346468 0.296775 0.967338 0.199454
O20   O     O_3   0.675873 0.533819 0.809441 -0.534950
C40   C     C_3   0.678548 0.681754 0.848558 -0.182998
H26   H     H_    0.659551 0.749235 0.743700 0.128653
H27   H     H_    0.722925 0.713881 0.874523 0.147979
H28   H     H_    0.653536 0.703079 0.967485 0.199555

loop_
_geom_bond_atom_site_label_1
_geom_bond_atom_site_label_2
_geom_bond_distance
_ccdc_geom_bond_type
C35   H12   1.111787 S    
O13   C33   1.414049 S    
C24   O14   1.375427 S    
C3    C31   1.394884 A    
C37   H19   1.112916 S    
C4    C32   1.394848 A    
O3    C2    1.277703 A    
C38   H20   1.109480 S    
O19   C39   1.410162 S    
C16   O12   1.349204 S    
C17   C23   1.405508 A    
O1    C1    1.277687 A    
C37   H18   1.114369 S    
C19   C21   1.405186 A    
C10   C12   1.418349 A    
C39   H24   1.112578 S    
C35   H13   1.109363 S    
Cu1   Cu2   2.620577 S    
C15   C17   1.409284 A    
C26   O16   1.376214 S    
C33   H5    1.113199 S    
Cu1   N4    1.969151 S    
C34   H9    1.111635 S    
C20   C26   1.404344 A    
C23   O13   1.375429 S    
O16   C36   1.412703 S    
O1    Cu1   1.976205 S    
O2    Cu2   1.976204 S    
O5    Cu1   1.945877 S    
C35   H11   1.113473 S    
C1    C27   1.436389 S    
O6    Cu2   1.945875 S    
C2    C28   1.436389 S    
C5    C11   1.484061 S    
O2    C2    1.277671 A    
H2    C30   1.083420 S    
C38   H21   1.114253 S    
C13   O9    1.349710 S    
C23   C26   1.403651 A    
C7    C29   1.399509 A    
C37   H17   1.109487 S    
C9    C31   1.399289 A    
C16   C18   1.409291 A    
C13   N1    1.364882 A    
C10   C32   1.399302 A    
C14   N2    1.364887 A    
Cu2   N3    1.969151 S    
C4    C30   1.394167 A    
C40   H26   1.113936 S    
C36   H15   1.111788 S    
O7    C6    1.282584 A    
C39   H23   1.114109 S    
O18   C38   1.410084 S    
C25   O15   1.376213 S    
C13   C19   1.407975 A    
O8    C5    1.282422 A    
C17   C21   1.402524 A    
O14   C34   1.414048 S    
O4    Cu2   1.976220 S    
C34   H10   1.108752 S    
O17   C37   1.410165 S    
C21   C22   1.415600 A    
C40   H27   1.112403 S    
C6    C12   1.484100 S    
H4    C32   1.083383 S    
C24   C25   1.403656 A    
C8    C30   1.399611 A    
C3    N2    1.431674 S    
O15   C35   1.412703 S    
C4    N1    1.431667 S    
C9    O19   1.382666 S    
C18   C24   1.405508 A    
C3    C29   1.394185 A    
C38   H22   1.112694 S    
O3    Cu1   1.976219 S    
C7    C11   1.419106 A    
O6    C6    1.282420 A    
C18   C22   1.402522 A    
H1    C29   1.083438 S    
O4    C1    1.277687 A    
C39   H25   1.109454 S    
C10   O20   1.382627 S    
C36   H16   1.109363 S    
C7    O17   1.382509 S    
C33   H7    1.108751 S    
C20   C22   1.405182 A    
O7    Cu1   1.945885 S    
C8    O18   1.382586 S    
C36   H14   1.113473 S    
C15   N1    1.365167 A    
O8    Cu2   1.945888 S    
C40   H28   1.109392 S    
C16   N2    1.365170 A    
C14   O10   1.349712 S    
O20   C40   1.410022 S    
C15   O11   1.349204 S    
C27   C28   1.206625 T    
C33   H6    1.111635 S    
H3    C31   1.083396 S    
C9    C11   1.418364 A    
C34   H8    1.113200 S    
C19   C25   1.404345 A    
O5    C5    1.282562 A    
C14   C20   1.407969 A    
N3    N4    1.190636 T    
C8    C12   1.419074 A    
