data_mof_unit_46232.cif
_audit_creation_date              2013-03-05T15:41:44-0500
_audit_creation_method            fapswitch 2.2
_symmetry_space_group_name_H-M    P1
_symmetry_Int_Tables_number       1
_space_group_crystal_system       triclinic
_cell_length_a                    6.944814
_cell_length_b                    13.613237
_cell_length_c                    20.4627
_cell_angle_alpha                 102.176116
_cell_angle_beta                  90.339716
_cell_angle_gamma                 90.641558
_cell_volume                      1890.86538138

loop_
_atom_site_label
_atom_site_type_symbol
_atom_site_description
_atom_site_fract_x
_atom_site_fract_y
_atom_site_fract_z
_atom_type_partial_charge
O1    O     O_R   0.506860 0.599390 0.449240 -0.564871
O2    O     O_R   0.180220 0.594600 0.586780 -0.577534
O3    O     O_R   0.004500 0.400610 0.550760 -0.555276
C1    C     C_R   0.349416 0.615893 0.613522 0.850731
O4    O     O_R   0.177490 0.611290 0.451970 -0.552527
O5    O     O_R   0.001750 0.417420 0.414990 -0.547197
C2    C     C_R   0.346691 0.637554 0.434963 0.887798
O6    O     O_R   0.509610 0.582580 0.585010 -0.545983
O7    O     O_3   0.337420 0.436370 0.488020 -0.255101
V1    V     V_3+5 0.064680 0.511800 0.502220 1.235743
O8    O     O_R   0.671710 0.405400 0.413220 -0.519641
C3    C     C_R   0.838442 0.387294 0.385533 0.873005
O9    O     O_R   0.674440 0.388710 0.548030 -0.532337
C4    C     C_R   0.843220 0.362333 0.565103 0.986921
V2    V     V_3+5 0.564010 0.488200 0.497780 1.272561
O10   O     O_3   0.841140 0.563630 0.511980 -0.300171
C5    C     C_R   0.949478 0.118842 0.617054 -0.113727
H1    H     H_    0.975613 0.994986 0.700092 0.062634
H2    H     H_    0.996058 0.043570 0.594643 0.118043
C6    C     C_R   0.854961 0.284836 0.605219 -0.234457
C7    C     C_R   0.839432 0.319224 0.930592 0.311712
C8    C     C_R   0.836135 0.394112 0.893334 -0.102249
C9    C     C_R   0.848574 0.370390 0.824008 -0.061473
C10   C     C_R   0.854634 0.269741 0.788315 0.085600
C11   C     C_R   0.873501 0.193372 0.826013 -0.036440
C12   C     C_R   0.857952 0.243098 0.716577 0.004712
C13   C     C_R   0.915140 0.144477 0.685800 -0.020802
C14   C     C_R   0.937645 0.071204 0.723726 -0.057654
C15   C     C_R   0.910363 0.094202 0.792276 -0.068972
C16   C     C_R   0.808931 0.310012 0.674011 0.247864
C17   C     C_R   0.926916 0.188849 0.576651 0.287959
C18   C     C_R   0.861463 0.218050 0.896934 -0.180261
H3    H     H_    0.863122 0.433001 0.799839 0.149579
H4    H     H_    0.829446 0.472447 0.918413 0.121111
H5    H     H_    0.927063 0.033943 0.818854 0.052716
C19   C     C_2   0.997356 0.287563 0.286150 -0.122356
C20   C     C_2   0.837403 0.333442 0.314365 0.154921
C21   C     C_2   0.013023 0.232436 0.215239 0.356024
C22   C     C_2   0.866667 0.174127 0.183347 -0.213276
H6    H     H_    0.733823 0.167799 0.209862 0.109925
C23   C     C_2   0.204313 0.790381 0.782010 -0.094902
C24   C     C_2   0.363005 0.815497 0.820052 -0.197371
H7    H     H_    0.066482 0.820496 0.800898 0.094974
H8    H     H_    0.501529 0.785667 0.802353 0.082353
C25   C     C_2   0.203392 0.721842 0.714560 -0.084845
C26   C     C_2   0.361725 0.683926 0.680367 -0.167021
C27   C     C_R   0.439217 0.881802 0.384105 -0.017367
H9    H     H_    0.450930 0.008730 0.302469 0.111920
C28   C     C_R   0.359264 0.712317 0.393261 -0.143611
C29   C     C_R   0.345838 0.683591 0.070100 -0.105894
C30   C     C_R   0.349703 0.607014 0.105427 0.013294
C31   C     C_R   0.357346 0.629675 0.175044 0.033849
C32   C     C_R   0.353472 0.730364 0.211510 0.046275
C33   C     C_R   0.365150 0.808301 0.174811 0.002763
C34   C     C_R   0.354882 0.756157 0.283095 -0.010243
C35   C     C_R   0.404212 0.856642 0.315088 0.024671
C36   C     C_R   0.419249 0.931493 0.278027 -0.058369
C37   C     C_R   0.393142 0.908401 0.209235 -0.093391
C38   C     C_R   0.312302 0.686546 0.324477 0.287894
C39   C     C_R   0.425240 0.808969 0.422257 -0.142386
C40   C     C_R   0.356638 0.783944 0.104054 -0.093961
H10   H     H_    0.340991 0.664553 0.015945 0.073705
H11   H     H_    0.376100 0.567081 0.198942 0.176147
H12   H     H_    0.350440 0.529397 0.078662 0.152985
O11   O     O_R   0.203230 0.917310 0.915020 -0.572792
O12   O     O_R   0.535500 0.888690 0.048040 -0.568509
O13   O     O_R   0.711080 0.082610 0.085000 -0.531194
C41   C     C_R   0.366389 0.861758 0.064495 0.818941
O14   O     O_R   0.532630 0.905370 0.913230 -0.574217
O15   O     O_R   0.708190 0.099410 0.949230 -0.560090
C42   C     C_R   0.363983 0.884173 0.886549 0.822965
O16   O     O_R   0.206120 0.900510 0.050790 -0.565789
O17   O     O_3   0.375360 0.063570 0.011990 -0.233572
V3    V     V_3+5 0.648170 0.988200 0.997780 1.192088
O18   O     O_R   0.038240 0.111390 0.951940 -0.548332
C43   C     C_R   0.869591 0.138386 0.935493 0.897169
O19   O     O_R   0.041120 0.094710 0.086750 -0.517980
C44   C     C_R   0.874030 0.114322 0.113956 0.910810
V4    V     V_3+5 0.148810 0.011930 0.002180 1.225591
O20   O     O_3   0.871750 0.936430 0.988010 -0.300494
N1    N     N_R   0.971194 0.159800 0.506496 0.088621
O21   O     O_R   0.872032 0.194074 0.462162 -0.405314
O22   O     O_R   0.097625 0.090453 0.485920 -0.365717
N2    N     N_R   0.668648 0.340857 0.274637 0.092587
O23   O     O_R   0.498946 0.323356 0.296469 -0.297664
O24   O     O_R   0.682587 0.376300 0.220518 -0.257163
N3    N     N_R   0.193816 0.239144 0.183017 0.136819
O25   O     O_R   0.247874 0.324421 0.169534 -0.221699
O26   O     O_R   0.319733 0.168565 0.181033 -0.355891
H13   H     H_    0.062215 0.702808 0.692033 0.116495
H14   H     H_    0.504844 0.702444 0.700838 0.087259
H15   H     H_    0.459956 0.828871 0.475145 0.077368
H16   H     H_    0.482008 0.957611 0.408389 0.124361
N4    N     N_R   0.200946 0.596561 0.299630 0.060359
O27   O     O_R   0.258256 0.510036 0.309316 -0.315651
O28   O     O_R   0.038610 0.601532 0.268460 -0.340554
H17   H     H_    0.404382 0.969325 0.182936 0.111434
N5    N     N_R   0.692603 0.396799 0.697735 0.063725
O29   O     O_R   0.748458 0.485448 0.690471 -0.400440
O30   O     O_R   0.528821 0.386940 0.726401 -0.367923
N6    N     N_R   0.825702 0.347932 0.002350 0.093252
O31   O     O_R   0.730289 0.427639 0.029730 -0.337706
O32   O     O_R   0.925945 0.302505 0.040738 -0.334174
H18   H     H_    0.127580 0.291836 0.316255 0.154305

loop_
_geom_bond_atom_site_label_1
_geom_bond_atom_site_label_2
_geom_bond_distance
_ccdc_geom_bond_type
O12   C41   1.293928 A    
N3    O25   1.300498 A    
N6    O31   1.301698 A    
O11   V4    2.008178 S    
C34   C38   1.427476 A    
O17   V3    2.156634 S    
C1    O6    1.300430 A    
N1    O21   1.301274 A    
H9    C36   1.084325 S    
C6    C16   1.416157 A    
C32   C33   1.425170 A    
C37   H17   1.082083 S    
C12   C13   1.419518 A    
C28   C39   1.395401 A    
C19   C20   1.352191 D    
C10   C12   1.436297 A    
O16   V4    2.023296 S    
O5    C3    1.301927 A    
C21   C22   1.358167 D    
V2    O10   2.160148 S    
O12   V3    2.019548 S    
C35   C36   1.396015 A    
C23   C24   1.344084 D    
C3    C20   1.485818 S    
O14   C42   1.292866 A    
C27   C39   1.388237 A    
O8    V2    2.008852 S    
C9    H3    1.075995 S    
O15   V3    2.019388 S    
C9    C10   1.411406 A    
C20   N2    1.438937 S    
O1    V2    2.019464 S    
C38   N4    1.438249 S    
O7    V1    2.156570 S    
C7    N6    1.441644 S    
C11   C18   1.422090 A    
C32   C34   1.432422 A    
N6    O32   1.300830 A    
V3    O20   1.707731 S    
O9    C4    1.297077 A    
C23   H7    1.086301 S    
O13   C44   1.300497 A    
C24   H8    1.082777 S    
N1    O22   1.301809 A    
O19   V4    2.008872 S    
C11   C15   1.407612 A    
C8    H4    1.083164 S    
C7    C18   1.414402 A    
C30   C31   1.393080 A    
C5    C13   1.398671 A    
C22   C44   1.481820 S    
C4    C6    1.469660 S    
H1    C14   1.084403 S    
C10   C11   1.425920 A    
C2    C28   1.461825 S    
C22   H6    1.084806 S    
O4    C2    1.295245 A    
C1    C26   1.482724 S    
C26   H14   1.082513 S    
O19   C44   1.296015 A    
O2    C1    1.296923 A    
O18   C43   1.295089 A    
O5    V1    2.009629 S    
C41   O16   1.291380 A    
C34   C35   1.423470 A    
C29   C30   1.388634 A    
C27   H16   1.084120 S    
O14   V3    2.012200 S    
O13   V3    2.009631 S    
N2    O23   1.300070 A    
N4    O28   1.301457 A    
C25   H13   1.086043 S    
O3    C4    1.291330 A    
C12   C16   1.429139 A    
O6    V2    2.007742 S    
N5    O30   1.301366 A    
O9    V2    2.020193 S    
O15   C43   1.292399 A    
C29   H10   1.083760 S    
O2    V1    2.012199 S    
C31   C32   1.416323 A    
C33   C37   1.406563 A    
C16   N5    1.438138 S    
C14   C15   1.385928 A    
O1    C2    1.290614 A    
C30   H12   1.082804 S    
N2    O24   1.301616 A    
O17   V4    1.709347 S    
C31   H11   1.076890 S    
C17   N1    1.442307 S    
C18   C43   1.470930 S    
O8    C3    1.295296 A    
C33   C40   1.416261 A    
C15   H5    1.082464 S    
C28   C38   1.412164 A    
C21   N3    1.432552 S    
C19   H18   1.085304 S    
N3    O26   1.300872 A    
O7    V2    1.710551 S    
O4    V1    2.019578 S    
O3    V1    2.019246 S    
O11   C42   1.302840 A    
C40   C41   1.463803 S    
C36   C37   1.386438 A    
C5    C17   1.396605 A    
C19   C21   1.491588 S    
C24   C42   1.479433 S    
C5    H2    1.084401 S    
N4    O27   1.301215 A    
V4    O20   2.160118 S    
C25   C26   1.354467 D    
N5    O29   1.301843 A    
C13   C14   1.396520 A    
C29   C40   1.396915 A    
C23   C25   1.494021 S    
C8    C9    1.390312 A    
V1    O10   1.707795 S    
C7    C8    1.396177 A    
C39   H15   1.083750 S    
O18   V4    2.020114 S    
C27   C35   1.400341 A    
C6    C17   1.412363 A    
