data_mof_unit_31319.cif
_audit_creation_date              2012-12-11T15:08:47-0500
_audit_creation_method            fapswitch 2.2
_symmetry_space_group_name_H-M    P1
_symmetry_Int_Tables_number       1
_space_group_crystal_system       triclinic
_cell_length_a                    19.434817
_cell_length_b                    11.3162
_cell_length_c                    18.735467
_cell_angle_alpha                 90.206212
_cell_angle_beta                  89.974406
_cell_angle_gamma                 89.7268
_cell_volume                      4120.38498852

loop_
_atom_site_label
_atom_site_type_symbol
_atom_type_description
_atom_site_fract_x
_atom_site_fract_y
_atom_site_fract_z
_atom_type_partial_charge
C1    C     C_R   0.271576 0.046011 0.853593 0.527016
C2    C     C_3   0.695531 0.508142 0.959909 -0.275494
C3    C     C_R   0.226837 0.543373 0.354235 0.534964
C4    C     C_R   0.468734 0.822896 0.645416 0.540675
C5    C     C_R   0.531292 0.823300 0.354641 0.539475
C6    C     C_R   0.968734 0.322896 0.645416 0.540676
C7    C     C_R   0.031292 0.323300 0.354641 0.539475
C8    C     C_R   0.261101 0.640201 0.643463 0.540915
C9    C     C_R   0.738880 0.640759 0.356579 0.538460
C10   C     C_R   0.761101 0.140201 0.643463 0.540915
C11   C     C_R   0.238880 0.140759 0.356579 0.538460
C12   C     C_3   0.467999 0.902688 0.039235 -0.064973
C13   C     C_3   0.814357 0.023234 0.043572 -0.278206
C14   C     C_3   0.507945 0.923460 0.968811 -0.029283
C15   C     C_3   0.967999 0.402688 0.039235 -0.064973
C16   C     C_3   0.007945 0.423461 0.968811 -0.029283
C17   C     C_3   0.430772 0.797724 0.004131 -0.167364
C18   C     C_3   0.564646 0.837843 0.993476 -0.118132
C19   C     C_3   0.930772 0.297724 0.004131 -0.167362
C20   C     C_3   0.064646 0.337844 0.993476 -0.118132
C21   C     C_3   0.470940 0.819437 0.935218 0.049904
C22   C     C_3   0.524883 0.818689 0.063643 0.074432
C23   C     C_3   0.970940 0.319438 0.935217 0.049906
C24   C     C_3   0.195531 0.008143 0.959909 -0.275494
C25   C     C_3   0.024883 0.318689 0.063643 0.074431
C26   C     C_3   0.591672 0.172727 0.050141 0.017587
C27   C     C_3   0.518875 0.183489 0.079095 -0.381830
C28   C     C_3   0.394572 0.220518 0.938655 0.009448
C29   C     C_3   0.462661 0.252280 0.903521 -0.375906
C30   C     C_3   0.091672 0.672728 0.050143 0.017587
C31   C     C_3   0.018874 0.683490 0.079093 -0.381831
C32   C     C_3   0.894574 0.720513 0.938653 0.009446
C33   C     C_3   0.962661 0.752268 0.903512 -0.375904
C34   C     C_3   0.320224 0.541092 0.961802 -0.251453
C35   C     C_3   0.690809 0.518445 0.042087 -0.261163
C36   C     C_3   0.820224 0.041092 0.961802 -0.251453
C37   C     C_3   0.190808 0.018445 0.042087 -0.261162
C38   C     C_3   0.182143 0.527764 0.026421 0.170526
C39   C     C_3   0.825842 0.551497 0.972978 0.176335
C40   C     C_3   0.682143 0.027764 0.026421 0.170526
C41   C     C_R   0.728665 0.044823 0.146813 0.541929
C42   C     C_3   0.325842 0.051498 0.972978 0.176335
C43   C     C_3   0.254322 0.707460 0.059569 -0.254410
C44   C     C_3   0.732249 0.707116 0.944351 -0.255600
C45   C     C_3   0.754322 0.207460 0.059569 -0.254410
C46   C     C_3   0.232249 0.207116 0.944351 -0.255599
C47   C     C_3   0.244587 0.576283 0.071800 0.060855
C48   C     C_3   0.757246 0.580206 0.929631 0.057492
C49   C     C_3   0.744587 0.076283 0.071799 0.060856
C50   C     C_3   0.257245 0.080206 0.929631 0.057492
C51   C     C_3   0.257035 0.611897 0.933118 0.027737
C52   C     C_R   0.771576 0.546010 0.853593 0.527018
C53   C     C_3   0.743849 0.609654 0.068875 0.031627
C54   C     C_3   0.757035 0.111896 0.933118 0.027738
C55   C     C_3   0.243848 0.109654 0.068875 0.031628
C56   C     C_3   0.192018 0.539646 0.945217 -0.224032
C57   C     C_3   0.817067 0.566873 0.053161 -0.213829
C58   C     C_3   0.692018 0.039645 0.945217 -0.224032
C59   C     C_3   0.317067 0.066872 0.053161 -0.213830
C60   C     C_3   0.248253 0.726885 0.977993 -0.225229
C61   C     C_3   0.729185 0.723440 0.026611 -0.228151
C62   C     C_3   0.748253 0.226884 0.977993 -0.225229
C63   C     C_R   0.228665 0.544823 0.146813 0.541928
C64   C     C_3   0.229185 0.223440 0.026611 -0.228150
C65   C     C_3   0.503891 0.701602 0.460140 -0.227188
C66   C     C_3   0.496337 0.701330 0.539407 -0.228732
C67   C     C_3   0.003891 0.201602 0.460140 -0.227188
C68   C     C_3   0.996337 0.201330 0.539407 -0.228732
C69   C     C_R   0.443651 0.817188 0.862046 0.550647
C70   C     C_R   0.553204 0.817020 0.137430 0.561447
C71   C     C_R   0.943652 0.317188 0.862046 0.550649
C72   C     C_R   0.053204 0.317020 0.137430 0.561447
C73   C     C_3   0.564339 0.904947 0.473596 -0.215851
C74   C     C_3   0.526845 0.733264 0.959838 -0.140322
C75   C     C_3   0.435380 0.904646 0.526959 -0.215146
C76   C     C_3   0.064339 0.404947 0.473596 -0.215851
C77   C     C_3   0.935380 0.404646 0.526959 -0.215146
C78   C     C_3   0.440837 0.887464 0.444995 -0.264053
C79   C     C_3   0.559021 0.886945 0.555424 -0.263672
C80   C     C_3   0.940837 0.387464 0.444995 -0.264053
C81   C     C_3   0.059021 0.386945 0.555424 -0.263672
C82   C     C_3   0.510568 0.829480 0.430978 0.063925
C83   C     C_3   0.489492 0.828960 0.569162 0.063118
C84   C     C_3   0.010568 0.329480 0.430978 0.063925
C85   C     C_3   0.487366 0.712833 0.029831 -0.131295
C86   C     C_3   0.989491 0.328960 0.569162 0.063118
C87   C     C_3   0.179557 0.646737 0.459584 -0.228761
C88   C     C_3   0.820010 0.646372 0.540659 -0.227795
C89   C     C_3   0.679557 0.146737 0.459584 -0.228761
C90   C     C_3   0.320010 0.146372 0.540659 -0.227795
C91   C     C_3   0.184738 0.660028 0.538732 -0.226900
C92   C     C_3   0.815075 0.659486 0.461518 -0.227162
C93   C     C_3   0.684738 0.160028 0.538732 -0.226900
C94   C     C_3   0.315075 0.159487 0.461518 -0.227162
C95   C     C_3   0.252540 0.455081 0.472598 -0.213738
C96   C     C_3   0.026846 0.233264 0.959838 -0.140323
C97   C     C_3   0.747603 0.454962 0.526610 -0.214380
C98   C     C_3   0.752540 0.955081 0.472598 -0.213738
C99   C     C_3   0.247603 0.954962 0.526610 -0.214380
C100  C     C_3   0.304493 0.647609 0.442327 -0.264022
C101  C     C_3   0.695313 0.647735 0.558003 -0.263468
C102  C     C_3   0.804493 0.147609 0.442327 -0.264022
C103  C     C_3   0.195313 0.147734 0.558003 -0.263468
C104  C     C_3   0.240522 0.572621 0.429914 0.067294
C105  C     C_3   0.759402 0.572199 0.570010 0.066900
C106  C     C_3   0.740522 0.072621 0.429914 0.067294
C107  C     C_3   0.987367 0.212833 0.029831 -0.131294
C108  C     C_3   0.259402 0.072199 0.570010 0.066900
C109  C     C_3   0.253034 0.606012 0.567434 0.064657
C110  C     C_3   0.747003 0.606326 0.432528 0.064508
C111  C     C_3   0.753034 0.106012 0.567434 0.064656
C112  C     C_3   0.247002 0.106327 0.432528 0.064508
C113  C     C_3   0.247544 0.473259 0.554330 -0.264710
C114  C     C_3   0.752659 0.473429 0.444962 -0.263681
C115  C     C_3   0.747544 0.973259 0.554330 -0.264710
C116  C     C_3   0.252659 0.973429 0.444962 -0.263681
C117  C     C_R   0.263171 0.644839 0.856014 0.539092
C118  C     C_3   0.314357 0.523234 0.043572 -0.278207
C119  C     C_R   0.738212 0.639737 0.146012 0.535375
C120  C     C_R   0.763172 0.144839 0.856014 0.539092
C121  C     C_R   0.238212 0.139737 0.146012 0.535374
C122  C     C_3   0.317384 0.648073 0.523899 -0.217363
C123  C     C_3   0.682624 0.648937 0.476371 -0.217250
C124  C     C_3   0.817384 0.148073 0.523899 -0.217363
C125  C     C_3   0.182624 0.148938 0.476371 -0.217250
C126  C     C_R   0.273237 0.042847 0.645673 0.534600
C127  C     C_R   0.726837 0.043373 0.354235 0.534964
C128  C     C_R   0.773237 0.542847 0.645673 0.534601
Cr1   Cr    Cr6+3 0.229620 0.836040 0.749110 0.987291
Cr2   Cr    Cr6+3 0.613980 0.676590 0.250790 0.989965
Cr3   Cr    Cr6+3 0.886020 0.176590 0.749210 0.989203
Cr4   Cr    Cr6+3 0.113980 0.176590 0.250790 0.989964
Cr5   Cr    Cr6+3 0.770380 0.836040 0.250890 0.987441
Cr6   Cr    Cr6+3 0.729620 0.336040 0.749110 0.987292
Cr7   Cr    Cr6+3 0.270380 0.336040 0.250890 0.987441
Cr8   Cr    Cr6+3 0.387630 0.990680 0.750730 1.006705
Cr9   Cr    Cr6+3 0.612370 0.990680 0.249270 1.004877
Cr10  Cr    Cr6+3 0.887630 0.490680 0.750730 1.006697
Cr11  Cr    Cr6+3 0.112370 0.490680 0.249270 1.004878
Cr12  Cr    Cr6+3 0.386020 0.676590 0.749210 0.989203
H1    H     H_    0.376956 0.778630 0.006015 0.093518
H2    H     H_    0.680498 0.719510 0.920557 0.104390
H3    H     H_    0.193798 0.929340 0.537444 0.118682
H4    H     H_    0.289902 0.425829 0.581996 0.108369
H5    H     H_    0.710434 0.426395 0.417009 0.108880
H6    H     H_    0.789902 0.925829 0.581996 0.108369
H7    H     H_    0.210434 0.926395 0.417009 0.108879
H8    H     H_    0.324019 0.431410 0.058191 0.119338
H9    H     H_    0.697094 0.419523 0.941063 0.133801
H10   H     H_    0.824019 0.931409 0.058191 0.119338
H11   H     H_    0.197095 0.919523 0.941063 0.133801
H12   H     H_    0.358448 0.567856 0.070013 0.120001
H13   H     H_    0.803965 0.237558 0.081643 0.104727
H14   H     H_    0.645988 0.538378 0.936457 0.114011
H15   H     H_    0.858448 0.067855 0.070013 0.120001
H16   H     H_    0.145987 0.038378 0.936457 0.114011
H17   H     H_    0.368745 0.588423 0.949680 0.150444
H18   H     H_    0.637563 0.545888 0.056851 0.146466
H19   H     H_    0.868745 0.088423 0.949680 0.150443
H20   H     H_    0.137563 0.045890 0.056850 0.146465
H21   H     H_    0.323550 0.454051 0.934651 0.102304
H22   H     H_    0.700371 0.433620 0.067575 0.106478
H23   H     H_    0.823550 0.954051 0.934651 0.102303
H24   H     H_    0.180497 0.219510 0.920557 0.104389
H25   H     H_    0.200370 0.933620 0.067575 0.106477
H26   H     H_    0.688186 0.934543 0.036872 0.111780
H27   H     H_    0.332547 0.956118 0.965671 0.119922
H28   H     H_    0.188186 0.434543 0.036872 0.111780
H29   H     H_    0.832546 0.456117 0.965673 0.119923
H30   H     H_    0.697965 0.952536 0.918639 0.070435
H31   H     H_    0.325730 0.981475 0.081207 0.069127
H32   H     H_    0.197964 0.452537 0.918639 0.070435
H33   H     H_    0.825731 0.481476 0.081208 0.069127
H34   H     H_    0.593207 0.211398 0.996434 0.094132
H35   H     H_    0.281984 0.795815 0.957822 0.089242
H36   H     H_    0.620361 0.226591 0.087878 0.155511
H37   H     H_    0.515172 0.141877 0.132527 0.177361
H38   H     H_    0.504138 0.278188 0.083890 0.078078
H39   H     H_    0.482402 0.141056 0.042591 0.171424
H40   H     H_    0.388806 0.268258 0.990172 0.105733
H41   H     H_    0.358335 0.252368 0.898695 0.160230
H42   H     H_    0.461853 0.227222 0.846092 0.153985
H43   H     H_    0.471625 0.348910 0.907977 0.089306
H44   H     H_    0.505682 0.204715 0.927997 0.140034
H45   H     H_    0.093209 0.711402 0.996437 0.094132
H46   H     H_    0.766903 0.788588 0.042051 0.120974
H47   H     H_    0.120360 0.726590 0.087882 0.155513
H48   H     H_    0.015170 0.641883 0.132527 0.177355
H49   H     H_    0.004136 0.778189 0.083884 0.078077
H50   H     H_    0.982403 0.641051 0.042589 0.171428
H51   H     H_    0.888813 0.768257 0.990170 0.105732
H52   H     H_    0.858335 0.752365 0.898695 0.160230
H53   H     H_    0.961854 0.727174 0.846088 0.154013
H54   H     H_    0.971618 0.848904 0.907946 0.089305
H55   H     H_    0.005685 0.704728 0.927999 0.140017
H56   H     H_    0.781984 0.295815 0.957822 0.089242
H57   H     H_    0.266903 0.288588 0.042051 0.120973
H58   H     H_    0.195110 0.754200 0.969397 0.121258
H59   H     H_    0.677625 0.751618 0.043905 0.106062
H60   H     H_    0.695109 0.254199 0.969397 0.121258
H61   H     H_    0.616086 0.851256 0.973730 0.099346
H62   H     H_    0.177626 0.251618 0.043905 0.106062
H63   H     H_    0.146209 0.581969 0.920476 0.138042
H64   H     H_    0.855967 0.630060 0.073619 0.146411
H65   H     H_    0.646209 0.081968 0.920476 0.138041
H66   H     H_    0.355967 0.130058 0.073620 0.146410
H67   H     H_    0.547091 0.644767 0.445770 0.136943
H68   H     H_    0.452987 0.645307 0.553354 0.136271
H69   H     H_    0.047091 0.144767 0.445770 0.136943
H70   H     H_    0.952987 0.145307 0.553354 0.136271
H71   H     H_    0.459009 0.657116 0.435451 0.114629
H72   H     H_    0.876956 0.278629 0.006014 0.093517
H73   H     H_    0.541210 0.656144 0.563876 0.114599
H74   H     H_    0.959009 0.157116 0.435451 0.114629
H75   H     H_    0.041210 0.156144 0.563876 0.114599
H76   H     H_    0.616263 0.896355 0.453244 0.112789
H77   H     H_    0.383503 0.895540 0.547158 0.113433
H78   H     H_    0.116263 0.396355 0.453244 0.112789
H79   H     H_    0.883503 0.395540 0.547158 0.113433
H80   H     H_    0.601203 0.830469 0.575328 0.109524
H81   H     H_    0.398898 0.831205 0.424629 0.109104
H82   H     H_    0.101204 0.330469 0.575328 0.109524
H83   H     H_    0.116086 0.351257 0.973730 0.099346
H84   H     H_    0.898898 0.331205 0.424629 0.109104
H85   H     H_    0.443724 0.966639 0.076138 0.115809
H86   H     H_    0.518287 0.008136 0.941774 0.161231
H87   H     H_    0.943724 0.466637 0.076139 0.115809
H88   H     H_    0.018287 0.508137 0.941775 0.161235
H89   H     H_    0.437549 0.973568 0.417024 0.108545
H90   H     H_    0.562134 0.972905 0.583970 0.109334
H91   H     H_    0.937549 0.473568 0.417024 0.108545
H92   H     H_    0.062134 0.472905 0.583970 0.109334
H93   H     H_    0.449399 0.997477 0.537484 0.118676
H94   H     H_    0.219932 0.760809 0.092151 0.093344
H95   H     H_    0.550017 0.998058 0.463795 0.117383
H96   H     H_    0.949399 0.497477 0.537484 0.118676
H97   H     H_    0.050017 0.498058 0.463795 0.117383
H98   H     H_    0.129571 0.609385 0.446560 0.134783
H99   H     H_    0.870215 0.609795 0.553815 0.134557
H100  H     H_    0.629571 0.109385 0.446560 0.134783
H101  H     H_    0.370215 0.109795 0.553815 0.134557
H102  H     H_    0.178555 0.735350 0.434270 0.114029
H103  H     H_    0.820395 0.735011 0.566253 0.113976
H104  H     H_    0.678555 0.235350 0.434270 0.114029
H105  H     H_    0.759983 0.779218 0.918945 0.084352
H106  H     H_    0.320395 0.235011 0.566253 0.113976
H107  H     H_    0.178777 0.753345 0.552003 0.135337
H108  H     H_    0.820991 0.752570 0.448549 0.134685
H109  H     H_    0.678777 0.253345 0.552003 0.135337
H110  H     H_    0.320991 0.252570 0.448549 0.134685
H111  H     H_    0.139957 0.617063 0.564531 0.115493
H112  H     H_    0.859934 0.616037 0.435671 0.115297
H113  H     H_    0.639957 0.117063 0.564531 0.115493
H114  H     H_    0.359934 0.116037 0.435671 0.115297
H115  H     H_    0.721810 0.881844 0.453500 0.113374
H116  H     H_    0.719933 0.260809 0.092151 0.093344
H117  H     H_    0.278274 0.881220 0.545282 0.112646
H118  H     H_    0.221810 0.381844 0.453500 0.113374
H119  H     H_    0.778274 0.381220 0.545282 0.112646
H120  H     H_    0.698425 0.939214 0.575403 0.109129
H121  H     H_    0.301804 0.938960 0.423672 0.108724
H122  H     H_    0.198425 0.439215 0.575403 0.109129
H123  H     H_    0.801804 0.438960 0.423672 0.108724
H124  H     H_    0.349176 0.609052 0.413393 0.109859
H125  H     H_    0.650731 0.609290 0.586615 0.110118
H126  H     H_    0.849176 0.109052 0.413393 0.109859
H127  H     H_    0.259983 0.279218 0.918945 0.084352
H128  H     H_    0.150731 0.109290 0.586615 0.110118
H129  H     H_    0.296434 0.738189 0.422011 0.108029
H130  H     H_    0.703129 0.738067 0.579043 0.107785
H131  H     H_    0.796434 0.238189 0.422011 0.108029
H132  H     H_    0.203129 0.238067 0.579043 0.107785
H133  H     H_    0.551014 0.663209 0.926655 0.123836
H134  H     H_    0.478900 0.625190 0.054639 0.120755
H135  H     H_    0.051015 0.163210 0.926655 0.123836
H136  H     H_    0.978901 0.125190 0.054639 0.120754
H137  H     H_    0.338513 0.730651 0.543031 0.112422
H138  H     H_    0.303965 0.737559 0.081643 0.104727
H139  H     H_    0.661559 0.731924 0.457848 0.112639
H140  H     H_    0.838513 0.230651 0.543031 0.112422
H141  H     H_    0.161559 0.231924 0.457848 0.112639
H142  H     H_    0.357764 0.581014 0.533554 0.117435
H143  H     H_    0.642445 0.582373 0.466264 0.118016
H144  H     H_    0.857764 0.081015 0.533554 0.117435
H145  H     H_    0.142445 0.082373 0.466264 0.118016
H146  H     H_    0.306391 0.429066 0.461469 0.119538
H147  H     H_    0.693798 0.429340 0.537444 0.118682
H148  H     H_    0.806391 0.929066 0.461469 0.119538
O1    O     O_R   0.214130 0.708570 0.829890 -0.530779
O2    O     O_R   0.542830 0.717300 0.331620 -0.531534
O3    O     O_R   0.957170 0.217300 0.668380 -0.531688
O4    O     O_R   0.042830 0.217300 0.331620 -0.531535
O5    O     O_R   0.320870 0.624890 0.673130 -0.510768
O6    O     O_R   0.679130 0.624890 0.326870 -0.511342
O7    O     O_R   0.820870 0.124890 0.673130 -0.510768
O8    O     O_R   0.179130 0.124890 0.326870 -0.511342
O9    O     O_3   0.334430 0.834430 0.749680 -0.286455
O10   O     O_3   0.665570 0.834430 0.250320 -0.281744
O11   O     O_3   0.834430 0.334430 0.749680 -0.286454
O12   O     O_R   0.785870 0.708570 0.170110 -0.534296
O13   O     O_3   0.165570 0.334430 0.250320 -0.281744
O14   O     O_R   0.236050 0.959150 0.825270 -0.524591
O15   O     O_R   0.763950 0.959150 0.174730 -0.523471
O16   O     O_R   0.736050 0.459150 0.825270 -0.524590
O17   O     O_R   0.263950 0.459150 0.174730 -0.523471
O18   O     O_R   0.332100 0.076650 0.832310 -0.482034
O19   O     O_R   0.667900 0.076650 0.167690 -0.485957
O20   O     O_R   0.832100 0.576650 0.832310 -0.482038
O21   O     O_R   0.167900 0.576650 0.167690 -0.485959
O22   O     O_R   0.446500 0.918620 0.826240 -0.483369
O23   O     O_R   0.714130 0.208570 0.829890 -0.530778
O24   O     O_R   0.553500 0.918620 0.173760 -0.481461
O25   O     O_R   0.946500 0.418620 0.826240 -0.483372
O26   O     O_R   0.053500 0.418620 0.173760 -0.481459
O27   O     O_R   0.457310 0.715830 0.831280 -0.532041
O28   O     O_R   0.542690 0.715830 0.168720 -0.535841
O29   O     O_R   0.957310 0.215830 0.831280 -0.532041
O30   O     O_R   0.042690 0.215830 0.168720 -0.535841
O31   O     O_R   0.321000 0.623520 0.824130 -0.518590
O32   O     O_R   0.679000 0.623520 0.175870 -0.517612
O33   O     O_R   0.821000 0.123520 0.824130 -0.518591
O34   O     O_R   0.285870 0.208570 0.170110 -0.534296
O35   O     O_R   0.179000 0.123520 0.175870 -0.517611
O36   O     O_R   0.213990 0.710040 0.667000 -0.532979
O37   O     O_R   0.786010 0.710040 0.333000 -0.534102
O38   O     O_R   0.713990 0.210040 0.667000 -0.532979
O39   O     O_R   0.286010 0.210040 0.333000 -0.534102
O40   O     O_R   0.235920 0.960520 0.674260 -0.512328
O41   O     O_R   0.764080 0.960520 0.325740 -0.513014
O42   O     O_R   0.735920 0.460520 0.674260 -0.512327
O43   O     O_R   0.264080 0.460520 0.325740 -0.513014
O44   O     O_R   0.331960 0.078120 0.669410 -0.539717
O45   O     O_R   0.446360 0.919990 0.675230 -0.510915
O46   O     O_R   0.668040 0.078120 0.330590 -0.539880
O47   O     O_R   0.831960 0.578120 0.669410 -0.539718
O48   O     O_R   0.168040 0.578120 0.330590 -0.539880
O49   O     O_3   0.613112 0.052748 0.050116 -0.546224
O50   O     O_3   0.390436 0.096516 0.947790 -0.558495
O51   O     O_3   0.113112 0.552749 0.050116 -0.546223
O52   O     O_3   0.890437 0.596512 0.947790 -0.558498
O53   O     O_R   0.553640 0.919990 0.324770 -0.512884
O54   O     O_R   0.946360 0.419990 0.675230 -0.510916
O55   O     O_R   0.053640 0.419990 0.324770 -0.512884
O56   O     O_R   0.457170 0.717300 0.668380 -0.531688

loop_
_geom_bond_atom_site_label_1
_geom_bond_atom_site_label_2
_ccdc_geom_bond_type
C128  O47   A    
C55   C59   S    
C35   C53   S    
C62   H56   S    
C69   O22   A    
C34   H21   S    
C41   O15   A    
C17   C85   S    
C10   O38   A    
C37   H20   S    
C99   H3    S    
C87   C91   S    
C94   H114  S    
C123  H139  S    
C8    O5    A    
C97   H147  S    
C100  C104  S    
C85   H134  S    
C100  H124  S    
C98   H148  S    
C46   H127  S    
C89   C106  S    
C52   O20   A    
C4    O56   A    
C119  O12   A    
C81   C86   S    
C6    O54   A    
C60   H58   S    
C97   C105  S    
C124  H144  S    
C111  C124  S    
C87   H98   S    
C101  C105  S    
C127  O41   A    
C59   H31   S    
C41   C49   S    
C100  H129  S    
C125  H145  S    
Cr1   O14   S    
C40   C58   S    
C102  H131  S    
C19   H72   S    
Cr1   O36   S    
C99   C116  S    
C117  O31   A    
C58   H65   S    
C88   H99   S    
C106  C127  S    
C17   C21   S    
Cr4   O8    S    
C32   H51   S    
Cr11  O55   S    
C76   H97   S    
C15   C19   S    
C24   H11   S    
C110  C123  S    
Cr11  O26   S    
C7    O4    A    
C78   C82   S    
C42   O50   S    
C16   C20   S    
C10   C111  S    
C28   H40   S    
C112  C125  S    
C44   H105  S    
C71   O25   A    
C57   H33   S    
C59   H66   S    
C72   O30   A    
C33   H54   S    
Cr4   O13   S    
C120  O23   A    
Cr12  O56   S    
C42   H27   S    
C25   C107  S    
C30   O51   S    
C16   H88   S    
C11   C112  S    
C7    O55   A    
C43   H94   S    
C116  H7    S    
C37   H25   S    
C9    C110  S    
C95   H146  S    
Cr2   O6    S    
C98   C106  S    
C113  H4    S    
Cr3   O3    S    
C30   H47   S    
C66   H73   S    
C39   H29   S    
C5    C82   S    
C65   C82   S    
C57   H64   S    
Cr1   O9    S    
C67   H69   S    
C18   H61   S    
C32   O52   S    
C14   C21   S    
Cr8   O18   S    
C48   C52   S    
Cr11  O48   S    
C99   H117  S    
Cr10  O54   S    
C108  C126  S    
C43   C47   S    
C24   H16   S    
C34   C118  S    
C55   C121  S    
C27   H38   S    
C68   H70   S    
C61   H59   S    
C88   H103  S    
C92   H108  S    
Cr7   O34   S    
C81   H82   S    
C115  H6    S    
C34   C51   S    
Cr2   O10   S    
C8    O36   A    
Cr5   O41   S    
C15   C25   S    
C75   H77   S    
C40   C49   S    
C12   C22   S    
C45   C62   S    
C22   C85   S    
C68   H75   S    
C53   C61   S    
C36   H23   S    
Cr5   O10   S    
C73   H76   S    
C110  C114  S    
Cr10  O20   S    
C20   C96   S    
C4    O45   A    
C2    H14   S    
C89   H100  S    
C94   H110  S    
C98   H115  S    
C92   H112  S    
C24   C50   S    
Cr2   O28   S    
C29   H42   S    
C30   H45   S    
Cr4   O30   S    
Cr8   O44   S    
Cr12  O5    S    
C77   H79   S    
Cr5   O37   S    
Cr9   O53   S    
Cr12  O27   S    
C21   C69   S    
C26   H36   S    
C24   C37   S    
C73   C79   S    
C118  H12   S    
C42   C50   S    
C63   O21   A    
C125  H141  S    
C16   C23   S    
C1    O14   A    
Cr1   O40   S    
C112  C116  S    
Cr8   O9    S    
C126  O44   A    
C18   C22   S    
C114  H5    S    
C9    O37   A    
C42   C59   S    
C39   O52   S    
Cr12  O9    S    
C65   H67   S    
C44   C61   S    
C6    C86   S    
C90   C108  S    
Cr9   O24   S    
C71   O29   A    
C88   C105  S    
C92   C110  S    
C98   C115  S    
C94   C112  S    
C51   C117  S    
Cr5   O12   S    
C113  H122  S    
C74   C85   S    
C89   C93   S    
Cr8   O45   S    
C103  C125  S    
Cr11  O13   S    
C36   C54   S    
C37   C55   S    
C34   H17   S    
C44   C48   S    
C38   C56   S    
C67   H74   S    
C51   C60   S    
C97   C114  S    
C22   C70   S    
C19   C107  S    
C2    C35   S    
C95   H118  S    
Cr10  O47   S    
C29   H44   S    
C69   O27   A    
C70   O28   A    
C80   C84   S    
C5    O2    A    
C76   C84   S    
C56   H63   S    
C91   H111  S    
C38   H28   S    
C97   H119  S    
C26   C27   S    
C15   H87   S    
C28   C29   S    
C27   H39   S    
C13   H10   S    
C14   H86   S    
C26   O49   S    
C47   C63   S    
C30   C31   S    
C93   H113  S    
C20   C25   S    
C26   H34   S    
C119  O32   A    
C32   H52   S    
C17   H1    S    
C14   C18   S    
C116  H121  S    
C36   H19   S    
C66   C83   S    
C40   O49   S    
C121  O35   A    
C47   C118  S    
C76   H78   S    
C12   C17   S    
C1    C50   S    
Cr9   O19   S    
Cr6   O23   S    
C117  O1    A    
C33   H53   S    
C128  O42   A    
C64   H57   S    
C56   H32   S    
Cr5   O15   S    
Cr3   O11   S    
C102  C124  S    
C70   O24   A    
C90   C94   S    
C124  H140  S    
C91   H107  S    
C67   C68   S    
C23   C71   S    
C53   C57   S    
C87   H102  S    
C54   C62   S    
C2    C48   S    
C77   H96   S    
C78   H89   S    
C114  H123  S    
C99   C108  S    
C38   O51   S    
C80   H84   S    
C66   H68   S    
C120  O33   A    
C31   H50   S    
C45   C49   S    
C89   H104  S    
C103  H128  S    
C107  H136  S    
C122  H142  S    
C93   C111  S    
C96   C107  S    
Cr2   O32   S    
Cr6   O42   S    
Cr3   O29   S    
C45   H13   S    
C73   C82   S    
Cr10  O25   S    
C6    O3    A    
C101  H130  S    
C77   C80   S    
Cr12  O31   S    
C101  H125  S    
C27   H37   S    
C3    O43   A    
C31   H49   S    
C74   H133  S    
C115  H120  S    
C32   C33   S    
C118  H8    S    
C35   H18   S    
C62   H60   S    
C79   C83   S    
C75   C83   S    
C79   H80   S    
C4    C83   S    
C90   H106  S    
C20   H83   S    
Cr6   O11   S    
C73   H95   S    
C45   H116  S    
C28   O50   S    
C87   C104  S    
C33   H55   S    
C44   H2    S    
C126  O40   A    
Cr6   O38   S    
C60   H35   S    
Cr10  O11   S    
C39   C48   S    
C3    C104  S    
Cr4   O35   S    
C54   C120  S    
C68   C86   S    
C52   O16   A    
C19   C23   S    
C63   O17   A    
C72   O26   A    
C101  C123  S    
C58   H30   S    
Cr9   O46   S    
C109  C122  S    
C15   C16   S    
C39   C57   S    
C23   C96   S    
C51   C56   S    
C13   H15   S    
C88   C92   S    
C81   H92   S    
Cr11  O21   S    
C31   H48   S    
Cr4   O4    S    
C75   H93   S    
C103  C108  S    
C40   H26   S    
C109  C113  S    
C2    H9    S    
C7    C84   S    
Cr1   O1    S    
C67   C84   S    
C18   C74   S    
C46   H24   S    
Cr9   O10   S    
Cr6   O16   S    
Cr7   O13   S    
C9    O6    A    
C93   H109  S    
Cr7   O39   S    
C11   O8    A    
C35   H22   S    
C13   C36   S    
C21   C74   S    
C41   O19   A    
C46   C64   S    
C28   H41   S    
C79   H90   S    
C55   C64   S    
Cr2   O2    S    
Cr3   O7    S    
C25   C72   S    
C38   C47   S    
Cr3   O33   S    
C43   C60   S    
C13   C49   S    
C12   C14   S    
C77   C86   S    
C11   O39   A    
C80   H91   S    
C122  H137  S    
C95   C104  S    
Cr7   O17   S    
C54   C58   S    
Cr8   O22   S    
C64   H62   S    
Cr7   O43   S    
C29   H43   S    
C105  C128  S    
C76   C81   S    
C53   C119  S    
C1    O18   A    
C46   C50   S    
C5    O53   A    
C103  H132  S    
C91   C109  S    
C123  H143  S    
C8    C109  S    
C12   H85   S    
C43   H138  S    
C95   C113  S    
C3    O48   A    
C61   H46   S    
C127  O46   A    
C102  C106  S    
C100  C122  S    
C75   C78   S    
C65   H71   S    
C78   H81   S    
C121  O34   A    
C65   C66   S    
C102  H126  S    
C90   H101  S    
C96   H135  S    
C111  C115  S    
C10   O7    A    
