data_mof_unit_50788.cif
_audit_creation_date              2012-10-26T18:27:31-0400
_audit_creation_method            fapswitch 2.2
_symmetry_space_group_name_H-M    P1
_symmetry_Int_Tables_number       1
_space_group_crystal_system       triclinic
_cell_length_a                    10.76479
_cell_length_b                    11.032843
_cell_length_c                    9.830308
_cell_angle_alpha                 111.09351
_cell_angle_beta                  98.02651
_cell_angle_gamma                 90.997579
_cell_volume                      1075.71122925

loop_
_atom_site_label
_atom_site_type_symbol
_atom_type_description
_atom_site_fract_x
_atom_site_fract_y
_atom_site_fract_z
_atom_type_partial_charge
C1    C     C_R   0.491265 0.254143 0.440680 0.562035
C2    C     C_2   0.499778 0.930460 0.483477 -0.154311
C3    C     C_2   0.510760 0.510479 0.081212 -0.022699
C4    C     C_R   0.262841 0.503798 0.502278 0.543204
C5    C     C_2   0.488953 0.489869 0.918915 -0.019060
C6    C     C_R   0.509341 0.745859 0.559329 0.540250
C7    C     C_R   0.737405 0.504275 0.499641 0.540646
C8    C     C_R   0.158255 0.731680 0.701334 -0.159531
C9    C     C_R   0.106918 0.839557 0.794735 -0.084667
C10   C     C_R   0.977429 0.841749 0.794725 0.281112
C11   C     C_R   0.898476 0.734447 0.694023 -0.107232
C12   C     C_R   0.080523 0.621467 0.604445 0.010785
C13   C     C_R   0.949022 0.622844 0.600855 -0.014011
C14   C     C_3   0.829030 0.929547 0.947492 -0.008931
C15   C     C_3   0.815407 0.047770 0.083413 -0.369238
C16   C     C_R   0.129601 0.511689 0.506063 0.014039
C17   C     C_R   0.050011 0.408565 0.402960 -0.146444
C18   C     C_R   0.921640 0.409701 0.399863 -0.146088
C19   C     C_R   0.871172 0.514031 0.499710 0.008727
C20   C     C_2   0.487170 0.114803 0.407272 -0.131604
C21   C     C_2   0.504219 0.069585 0.516598 -0.156278
C22   C     C_2   0.514867 0.885196 0.592800 -0.133595
Cu1   Cu    Cu3+1 0.521920 0.521810 0.644910 0.918524
Cu2   Cu    Cu3+1 0.478080 0.478190 0.355090 0.935678
H1    H     H_    0.415245 0.418242 0.846348 0.150864
H2    H     H_    0.531138 0.951243 0.707552 0.094937
H3    H     H_    0.087809 0.325572 0.326092 0.128850
H4    H     H_    0.470166 0.048712 0.292540 0.098019
H5    H     H_    0.841719 0.844228 0.982284 0.125399
H6    H     H_    0.740890 0.912582 0.867298 0.137365
H7    H     H_    0.799948 0.134393 0.052489 0.163737
H8    H     H_    0.733813 0.029168 0.132795 0.097182
H9    H     H_    0.901844 0.067947 0.166649 0.156326
H10   H     H_    0.483541 0.864688 0.368538 0.156073
H11   H     H_    0.584039 0.582584 0.153912 0.147087
H12   H     H_    0.624870 0.621317 0.933850 0.195897
H13   H     H_    0.376096 0.377650 0.065830 0.205726
H14   H     H_    0.258975 0.737178 0.704344 0.145815
H15   H     H_    0.168655 0.923022 0.867480 0.131222
H16   H     H_    0.797939 0.740433 0.685319 0.120515
H17   H     H_    0.861465 0.327166 0.321893 0.120443
H18   H     H_    0.521182 0.135373 0.631525 0.158982
N1    N     N_2   0.445130 0.445430 0.137370 -0.351255
N2    N     N_2   0.554930 0.554500 0.862630 -0.353492
O1    O     O_R   0.511700 0.332330 0.577400 -0.490617
O2    O     O_R   0.474680 0.295500 0.332650 -0.491916
O3    O     O_R   0.338160 0.518420 0.622400 -0.501786
O4    O     O_R   0.301140 0.481590 0.377650 -0.487277
O5    O     O_R   0.525320 0.704500 0.667350 -0.515203
O6    O     O_R   0.488300 0.667670 0.422600 -0.492605
O7    O     O_R   0.698860 0.518410 0.622350 -0.495028
O8    O     O_R   0.661840 0.481580 0.377600 -0.498303
O9    O     O_3   0.932584 0.955399 0.885414 -0.558266

loop_
_geom_bond_atom_site_label_1
_geom_bond_atom_site_label_2
_ccdc_geom_bond_type
H13   N1    S    
Cu1   Cu2   S    
C2    C22   D    
Cu1   O1    S    
C9    C10   A    
Cu2   O4    S    
Cu1   O7    S    
C3    H11   S    
C8    C12   A    
C3    N1    D    
C2    H10   S    
C2    C21   S    
C17   C18   A    
C7    O7    A    
C15   H8    S    
C6    O6    A    
C15   H7    S    
C11   C13   A    
C1    O1    A    
C16   C17   A    
C8    H14   S    
C14   H6    S    
C5    H1    S    
C4    C16   S    
C5    N2    D    
C7    O8    A    
C7    C19   S    
Cu2   O8    S    
C6    O5    A    
Cu2   O6    S    
C11   H16   S    
C1    O2    A    
Cu1   O5    S    
H12   N2    S    
C10   C11   A    
C13   C19   A    
C14   H5    S    
C21   H18   S    
C17   H3    S    
C9    H15   S    
C14   O9    S    
Cu1   O3    S    
C12   C13   A    
C4    O4    A    
C18   C19   A    
C22   H2    S    
C18   H17   S    
C10   O9    S    
Cu2   N1    S    
C14   C15   S    
C8    C9    A    
C1    C20   S    
C20   H4    S    
C20   C21   D    
C15   H9    S    
Cu1   N2    S    
C12   C16   A    
Cu2   O2    S    
C3    C5    S    
C4    O3    A    
C6    C22   S    
