data_mof_unit_17248.cif
_audit_creation_date              2013-03-05T15:41:03-0500
_audit_creation_method            fapswitch 2.2
_symmetry_space_group_name_H-M    P1
_symmetry_Int_Tables_number       1
_space_group_crystal_system       triclinic
_cell_length_a                    10.938548
_cell_length_b                    10.921754
_cell_length_c                    18.664637
_cell_angle_alpha                 90.20771
_cell_angle_beta                  89.733372
_cell_angle_gamma                 60.401099
_cell_volume                      1938.78039571

loop_
_atom_site_label
_atom_site_type_symbol
_atom_site_description
_atom_site_fract_x
_atom_site_fract_y
_atom_site_fract_z
_atom_type_partial_charge
O1    O     O_R   0.507110 0.256280 0.580300 -0.513701
O2    O     O_R   0.280830 0.527190 0.577940 -0.506156
C1    C     C_R   0.235257 0.645677 0.608480 0.547029
O3    O     O_R   0.261360 0.738990 0.584270 -0.503800
O4    O     O_R   0.532590 0.694780 0.574370 -0.508913
C2    C     C_R   0.655613 0.624945 0.599826 0.533542
O5    O     O_R   0.744470 0.503750 0.577000 -0.516677
O6    O     O_R   0.698520 0.277230 0.571620 -0.500801
C3    C     C_R   0.628193 0.227007 0.601712 0.542704
O7    O     O_R   0.498530 0.256920 0.419280 -0.500657
O8    O     O_R   0.272880 0.527780 0.428680 -0.484463
C4    C     C_R   0.211971 0.653430 0.406439 0.573123
O9    O     O_R   0.252780 0.739630 0.423250 -0.512190
O10   O     O_R   0.524640 0.695370 0.425100 -0.489178
C5    C     C_R   0.641522 0.621414 0.392683 0.550938
O11   O     O_R   0.735890 0.504390 0.415980 -0.513837
O12   O     O_R   0.690560 0.277820 0.422350 -0.507265
C6    C     C_R   0.620972 0.222944 0.397410 0.562940
Cr1   Cr    Cr6+3 0.393010 0.398050 0.501480 1.041800
Cr2   Cr    Cr6+3 0.398820 0.707980 0.501630 1.034844
Cr3   Cr    Cr6+3 0.708140 0.393940 0.496850 1.026383
O13   O     O_3   0.499990 0.499990 0.499980 -0.253352
C7    C     C_3   0.583344 0.821491 0.778782 0.073745
H1    H     H_    0.617989 0.901144 0.786483 0.113340
C8    C     C_3   0.572679 0.807172 0.696963 -0.228530
H2    H     H_    0.462745 0.842398 0.680715 0.204294
H3    H     H_    0.603666 0.877177 0.668419 0.090686
H4    H     H_    0.858388 0.737232 0.774047 0.071755
H5    H     H_    0.851381 0.687305 0.655751 0.112516
C9    C     C_3   0.839525 0.646223 0.769005 -0.271871
C10   C     C_3   0.675714 0.550188 0.799171 0.295886
C11   C     C_3   0.702860 0.676846 0.811124 0.019630
C12   C     C_3   0.672488 0.652226 0.674745 -0.019811
C13   C     C_3   0.825116 0.619378 0.689391 -0.247899
C14   C     C_3   0.634072 0.554832 0.719955 -0.170381
H6    H     H_    0.518852 0.595652 0.715858 0.148257
H7    H     H_    0.683165 0.446370 0.697461 0.163501
H8    H     H_    0.934942 0.554588 0.790809 0.229239
H9    H     H_    0.902030 0.508564 0.675038 0.208902
C15   C     C_2   0.675700 0.153016 0.669752 -0.150223
C16   C     C_2   0.691041 0.163344 0.826842 -0.043748
C17   C     C_2   0.802589 0.114080 0.782343 -0.115567
C18   C     C_2   0.784101 0.148003 0.705583 -0.159942
H10   H     H_    0.908424 0.046385 0.801895 0.176973
H11   H     H_    0.856824 0.174445 0.679452 0.199889
H12   H     H_    0.585703 0.232048 0.806843 0.153810
H13   H     H_    0.608327 0.118967 0.695589 0.115532
C19   C     C_2   0.180637 0.659896 0.681137 -0.146237
C20   C     C_2   0.188420 0.666415 0.837831 -0.059011
C21   C     C_2   0.212438 0.549972 0.801180 0.147644
C22   C     C_2   0.233941 0.544533 0.723012 -0.146772
H14   H     H_    0.301495 0.440810 0.699924 0.186801
H15   H     H_    0.197188 0.749060 0.810828 0.154454
H16   H     H_    0.112692 0.764879 0.702450 0.098732
C23   C     C_2   0.649936 0.646523 0.317142 -0.087976
C24   C     C_2   0.633280 0.664909 0.159505 -0.084265
C25   C     C_2   0.706592 0.545253 0.195433 -0.140978
C26   C     C_2   0.687433 0.536883 0.272023 -0.127070
H17   H     H_    0.793166 0.453362 0.170101 0.164694
H18   H     H_    0.717915 0.432692 0.292595 0.155500
H19   H     H_    0.541491 0.753897 0.183457 0.116537
H20   H     H_    0.618283 0.752084 0.298591 0.080372
C27   C     C_2   0.672909 0.139069 0.333201 -0.111842
C28   C     C_2   0.651107 0.147877 0.178848 -0.063479
C29   C     C_2   0.605953 0.078937 0.221432 -0.145924
C30   C     C_2   0.589946 0.102880 0.297863 -0.146654
H21   H     H_    0.574026 0.006714 0.199488 0.144994
H22   H     H_    0.498887 0.105675 0.323130 0.167452
H23   H     H_    0.684114 0.220076 0.199366 0.103014
H24   H     H_    0.768578 0.127659 0.308953 0.090096
C31   C     C_2   0.106674 0.690323 0.351596 -0.078731
C32   C     C_2   0.074625 0.711292 0.193500 0.169676
C33   C     C_2   0.008989 0.815857 0.241891 -0.157104
C34   C     C_2   0.062680 0.807486 0.313813 -0.138205
H25   H     H_    0.924418 0.917654 0.225010 0.099942
H26   H     H_    0.081074 0.891860 0.331498 0.155572
H27   H     H_    0.079754 0.610977 0.335128 0.146923
O14   O     O_R   0.089190 0.825870 0.932320 -0.482197
O15   O     O_R   0.819070 0.053960 0.931440 -0.480439
C35   C     C_R   0.703786 0.101443 0.897314 0.573652
O16   O     O_R   0.607070 0.076440 0.916460 -0.456519
O17   O     O_R   0.647110 0.806550 0.917690 -0.466917
C36   C     C_R   0.727121 0.690606 0.887140 0.581395
O18   O     O_R   0.837080 0.593860 0.915300 -0.455651
O19   O     O_R   0.064770 0.636080 0.932550 -0.458868
C37   C     C_R   0.119251 0.706031 0.907515 0.588720
O20   O     O_R   0.068250 0.829200 0.092940 -0.486957
O21   O     O_R   0.799650 0.057040 0.080330 -0.523117
C38   C     C_R   0.675412 0.105956 0.104897 0.557628
O22   O     O_R   0.586130 0.079760 0.077080 -0.480729
O23   O     O_R   0.627700 0.809630 0.066580 -0.499249
C39   C     C_R   0.692261 0.688415 0.094665 0.550799
O24   O     O_R   0.816140 0.597180 0.075920 -0.503538
O25   O     O_R   0.045360 0.639170 0.081440 -0.449753
C40   C     C_R   0.031200 0.744160 0.120321 0.557739
Cr4   Cr    Cr6+3 0.937950 0.938450 0.008940 1.091422
Cr5   Cr    Cr6+3 0.626180 0.937030 0.994750 1.131068
Cr6   Cr    Cr6+3 0.937790 0.625760 0.001410 1.141497
O26   O     O_3   0.833980 0.833750 0.001700 -0.338790
N1    N     N_R   0.229321 0.425576 0.836672 0.095827
O27   O     O_R   0.205644 0.336044 0.801830 -0.282146
O28   O     O_R   0.293124 0.388388 0.898039 -0.262533
N2    N     N_R   0.444994 0.878247 0.813997 0.112962
O29   O     O_R   0.399173 0.990031 0.854334 -0.232788
O30   O     O_R   0.354595 0.842338 0.791838 -0.350439
Br1   Br    Br    0.245753 0.535034 0.209771 -0.468425
N3    N     N_R   0.802853 0.414007 0.815496 0.092179
O31   O     O_R   0.899953 0.345735 0.767375 -0.358272
O32   O     O_R   0.820692 0.359835 0.879217 -0.252164
Br2   Br    Br    0.524154 0.562884 0.861088 -0.405843

loop_
_geom_bond_atom_site_label_1
_geom_bond_atom_site_label_2
_geom_bond_distance
_ccdc_geom_bond_type
C15   H13   1.087508 S    
C30   H22   1.086722 S    
O21   Cr4   1.942869 S    
O11   Cr3   2.048487 S    
N3    O32   1.302252 A    
C16   C17   1.344224 D    
C14   H6    1.113168 S    
C16   C35   1.456589 S    
O4    Cr2   1.953625 S    
O19   C37   1.267649 A    
C19   H16   1.085092 S    
C4    O9    1.264272 A    
O8    Cr1   1.942144 S    
C34   H26   1.086365 S    
C14   H7    1.110769 S    
O4    C2    1.270055 A    
C6    C27   1.438671 S    
C25   H17   1.086789 S    
O25   Cr6   1.955050 S    
C26   H18   1.087695 S    
C5    O11   1.262171 A    
Cr6   O26   1.975196 S    
Cr4   O26   1.975925 S    
C1    C19   1.455815 S    
C24   C25   1.332930 D    
C9    H8    1.109797 S    
C33   C34   1.452749 S    
C39   O24   1.269138 A    
O19   Cr6   1.932076 S    
C32   C40   1.435697 S    
C15   C18   1.341553 D    
C7    N2    1.472266 S    
C36   O18   1.262492 A    
O14   Cr4   2.061471 S    
O6    C3    1.274039 A    
C29   H21   1.087680 S    
O20   C40   1.288962 A    
C16   H12   1.087198 S    
O22   Cr5   2.070035 S    
O14   C37   1.266723 A    
C7    C8    1.545366 S    
C27   C30   1.331464 D    
Cr3   O13   1.980450 S    
C33   H25   1.086458 S    
C17   H10   1.086459 S    
C28   C38   1.434299 S    
Cr5   O26   1.981630 S    
C21   C22   1.473042 S    
C19   C22   1.350561 D    
O1    Cr1   2.060106 S    
C9    C13   1.537375 S    
C22   H14   1.087026 S    
O10   Cr2   1.935590 S    
Cr1   O13   1.974006 S    
O1    C3    1.266383 A    
O23   C39   1.269284 A    
C32   C33   1.346101 D    
C8    H2    1.110523 S    
O5    Cr3   2.073055 S    
H5    C13   1.113296 S    
C3    C15   1.461017 S    
O12   Cr3   1.951809 S    
C13   H9    1.110881 S    
C5    C23   1.448496 S    
C10   C11   1.567066 S    
C27   H24   1.087123 S    
O7    Cr1   2.066609 S    
N3    O31   1.301816 A    
O20   Cr4   2.065826 S    
N1    O28   1.301847 A    
O12   C6    1.267777 A    
N2    O30   1.299379 A    
C28   H23   1.085892 S    
O23   Cr5   1.929941 S    
C18   H11   1.085551 S    
C23   H20   1.085658 S    
C4    C31   1.446480 S    
Cr2   O13   1.975271 S    
C20   C21   1.347710 D    
O17   Cr5   1.952362 S    
C10   C14   1.542753 S    
C17   C18   1.470812 S    
C1    O3    1.270417 A    
C31   H27   1.087738 S    
C11   C36   1.465393 S    
O9    Cr2   2.071591 S    
O2    Cr1   1.947072 S    
O10   C5    1.273665 A    
C10   N3    1.484246 S    
C20   C37   1.454188 S    
C32   Br1   1.936966 S    
C35   O16   1.266521 A    
O6    Cr3   1.930668 S    
C31   C34   1.329557 D    
O8    C4    1.266083 A    
C2    O5    1.264692 A    
C8    H3    1.113813 S    
C21   N1    1.441730 S    
C2    C12   1.460105 S    
O18   Cr6   2.075969 S    
C28   C29   1.345613 D    
H4    C9    1.114249 S    
O2    C1    1.266025 A    
O15   Cr4   1.945528 S    
C7    C11   1.594764 S    
C9    C11   1.567772 S    
C25   C26   1.453573 S    
O16   Cr5   2.049837 S    
O7    C6    1.265310 A    
C20   H15   1.079973 S    
N1    O27   1.301269 A    
C12   C14   1.570005 S    
C10   Br2   1.963955 S    
C12   C13   1.550498 S    
C29   C30   1.443540 S    
O25   C40   1.297294 A    
C7    H1    1.116409 S    
O15   C35   1.276210 A    
O3    Cr2   2.055788 S    
C24   C39   1.450995 S    
O21   C38   1.271895 A    
O17   C36   1.260935 A    
C23   C26   1.347456 D    
N2    O29   1.301505 A    
C24   H19   1.086857 S    
C38   O22   1.258914 A    
O24   Cr6   2.049005 S    
C8    C12   1.547029 S    
