data_mof_unit_52315.cif
_audit_creation_date              2012-12-10T20:31:01-0500
_audit_creation_method            fapswitch 2.2
_symmetry_space_group_name_H-M    P1
_symmetry_Int_Tables_number       1
_space_group_crystal_system       triclinic
_cell_length_a                    14.966622
_cell_length_b                    10.674253
_cell_length_c                    9.885154
_cell_angle_alpha                 90.144913
_cell_angle_beta                  90.035971
_cell_angle_gamma                 89.825634
_cell_volume                      1579.21491922

loop_
_atom_site_label
_atom_site_type_symbol
_atom_type_description
_atom_site_fract_x
_atom_site_fract_y
_atom_site_fract_z
_atom_type_partial_charge
C1    C     C_R   0.498324 0.260200 0.500009 0.881857
C2    C     C_R   0.185580 0.448425 0.609551 -0.273651
C3    C     C_R   0.231026 0.501304 0.500524 -0.063876
C4    C     C_R   0.326780 0.500374 0.500062 0.878330
C5    C     C_R   0.185219 0.555458 0.392357 -0.273088
C6    C     C_R   0.510862 0.064191 0.619509 0.132367
C7    C     C_R   0.488841 0.128520 0.501937 -0.099924
C8    C     C_R   0.454290 0.064655 0.389602 -0.222219
C9    C     C_R   0.454447 0.935005 0.389734 -0.227472
C10   C     C_R   0.489381 0.871598 0.502056 -0.096996
C11   C     C_R   0.511492 0.936470 0.619410 0.128401
C12   C     C_R   0.906864 0.553125 0.389847 0.121146
C13   C     C_3   0.595422 0.930236 0.701439 -0.485977
C14   C     C_3   0.594192 0.072125 0.702468 -0.483007
C15   C     C_R   0.423017 0.478498 0.071230 0.186195
C16   C     C_R   0.498578 0.739824 0.500171 0.873904
C17   C     C_R   0.577802 0.505905 0.071880 -0.126907
C18   C     C_R   0.577871 0.504710 0.928171 -0.159294
C19   C     C_R   0.422665 0.483001 0.929376 0.193055
C20   C     C_3   0.338767 0.560991 0.929072 -0.094672
C21   C     C_3   0.337802 0.550028 0.082898 -0.513381
C22   C     C_R   0.673218 0.500127 0.500051 0.893058
C23   C     C_R   0.953924 0.399259 0.721497 -0.221403
C24   C     C_R   0.814420 0.551261 0.389941 -0.265715
C25   C     C_R   0.768971 0.500697 0.500312 -0.068515
C26   C     C_R   0.814737 0.451023 0.611170 -0.270500
C27   C     C_R   0.907189 0.450586 0.612033 0.121711
C28   C     C_R   0.953511 0.502105 0.501075 0.058422
C29   C     C_3   0.345064 0.696557 0.874115 -0.302391
C30   C     C_3   0.421200 0.777531 0.929901 -0.824838
C31   C     C_R   0.046789 0.398337 0.720960 -0.224151
C32   C     C_R   0.093146 0.449549 0.611402 0.121838
C33   C     C_R   0.046470 0.502349 0.501206 0.059288
C34   C     C_R   0.092798 0.555155 0.391002 0.122797
C35   C     C_R   0.046124 0.606575 0.281557 -0.223547
C36   C     C_R   0.953271 0.605108 0.280733 -0.221816
H1    H     H_    0.777822 0.590553 0.305203 0.149701
H2    H     H_    0.344923 0.638510 0.140817 0.214966
H3    H     H_    0.778392 0.411223 0.695652 0.150237
H4    H     H_    0.282909 0.489069 0.119636 0.174489
H5    H     H_    0.918696 0.359552 0.806937 0.146186
H6    H     H_    0.082311 0.357930 0.805974 0.144261
H7    H     H_    0.222146 0.404946 0.691737 0.145742
H8    H     H_    0.221439 0.599041 0.310330 0.148334
H9    H     H_    0.081403 0.647109 0.196606 0.146458
H10   H     H_    0.917798 0.644585 0.195170 0.145870
H11   H     H_    0.431390 0.114147 0.300459 0.167891
H12   H     H_    0.431495 0.885112 0.300725 0.161452
H13   H     H_    0.414352 0.794163 0.040035 0.237372
H14   H     H_    0.487159 0.734879 0.908843 0.269499
H15   H     H_    0.419076 0.870363 0.879622 0.232594
H16   H     H_    0.351111 0.692956 0.762480 0.231980
H17   H     H_    0.280871 0.744830 0.896564 0.185903
H18   H     H_    0.584605 0.889089 0.803108 0.206072
H19   H     H_    0.652612 0.889774 0.644104 0.201946
H20   H     H_    0.581388 0.112700 0.804349 0.207613
H21   H     H_    0.650980 0.114565 0.646524 0.199124
H22   H     H_    0.640449 0.514732 0.125403 0.149826
H23   H     H_    0.640577 0.512315 0.874742 0.154634
H24   H     H_    0.282270 0.509110 0.882682 0.129670
N1    N     N_R   0.499390 0.499140 0.142800 -0.100713
N2    N     N_R   0.499390 0.499180 0.857150 -0.106665
O1    O     O_R   0.500010 0.316790 0.614690 -0.616484
O2    O     O_R   0.500000 0.316760 0.385350 -0.617229
O3    O     O_R   0.367850 0.499990 0.614680 -0.641552
O4    O     O_R   0.367840 0.499950 0.385340 -0.623401
O5    O     O_R   0.500000 0.683240 0.614650 -0.616868
O6    O     O_R   0.499990 0.683210 0.385310 -0.621921
O7    O     O_R   0.632160 0.500050 0.614660 -0.631844
O8    O     O_R   0.632150 0.500010 0.385320 -0.629145
Zn1   Zn    Zn3+2 0.500010 0.500020 0.653130 0.933660
Zn2   Zn    Zn3+2 0.499990 0.499980 0.346870 0.941313

loop_
_geom_bond_atom_site_label_1
_geom_bond_atom_site_label_2
_ccdc_geom_bond_type
N2    Zn1   S    
C14   H20   S    
C30   H15   S    
C15   C19   A    
C36   H10   S    
C29   C30   S    
C16   O6    A    
C31   H6    S    
C23   C27   A    
C6    C14   S    
C13   H18   S    
C9    C10   A    
C12   C24   A    
C22   O7    A    
O5    Zn1   S    
C31   C32   A    
C23   H5    S    
C2    H7    S    
O6    Zn2   S    
C32   C33   A    
C19   C20   S    
C24   H1    S    
C15   N1    A    
C8    H11   S    
O3    Zn1   S    
C7    C8    A    
C16   O5    A    
C10   C16   S    
C13   C14   S    
C5    C34   A    
C17   H22   S    
C4    O4    A    
C11   C13   S    
C6    C11   A    
C26   C27   A    
C6    C7    A    
C21   H4    S    
C29   H17   S    
C12   C28   A    
C2    C32   A    
C1    O1    A    
N1    Zn2   S    
C24   C25   A    
C30   H13   S    
O1    Zn1   S    
C28   C33   A    
C33   C34   A    
C2    C3    A    
C20   C29   S    
O2    Zn2   S    
C30   H14   S    
C4    O3    A    
C29   H16   S    
C26   H3    S    
C12   C36   A    
C10   C11   A    
C19   N2    A    
C3    C4    S    
C35   H9    S    
C1    O2    A    
C3    C5    A    
C18   H23   S    
C15   C21   S    
C20   C21   S    
C9    H12   S    
C17   C18   A    
C34   C35   A    
C27   C28   A    
O7    Zn1   S    
C14   H21   S    
C18   N2    A    
O8    Zn2   S    
C17   N1    A    
C25   C26   A    
C1    C7    S    
C5    H8    S    
C22   O8    A    
O4    Zn2   S    
C21   H2    S    
C35   C36   A    
C20   H24   S    
C8    C9    A    
C13   H19   S    
C22   C25   S    
C23   C31   A    
