data_mof_unit_28584.cif
_audit_creation_date              2012-12-10T18:00:48-0500
_audit_creation_method            fapswitch 2.2
_symmetry_space_group_name_H-M    P1
_symmetry_Int_Tables_number       1
_space_group_crystal_system       triclinic
_cell_length_a                    15.83219
_cell_length_b                    10.801582
_cell_length_c                    9.625422
_cell_angle_alpha                 91.309928
_cell_angle_beta                  90.776226
_cell_angle_gamma                 93.137243
_cell_volume                      1642.99233877

loop_
_atom_site_label
_atom_site_type_symbol
_atom_type_description
_atom_site_fract_x
_atom_site_fract_y
_atom_site_fract_z
_atom_type_partial_charge
C1    C     C_R   0.494466 0.262661 0.498921 0.900990
C2    C     C_R   0.506347 0.737472 0.501046 0.917895
C3    C     C_R   0.578838 0.946396 0.471513 0.373799
C4    C     C_R   0.422091 0.054262 0.527680 0.323085
C5    C     C_R   0.505143 0.871823 0.501896 -0.211479
C6    C     C_R   0.495757 0.128597 0.497969 -0.207017
C7    C     C_R   0.456949 0.406323 0.066386 0.478155
C8    C     C_R   0.542837 0.593769 0.933675 0.480125
C9    C     C_R   0.458199 0.408215 0.919387 -0.113342
C10   C     C_R   0.541371 0.592042 0.080526 -0.115497
C11   C     C_R   0.340028 0.501116 0.499166 0.891995
C12   C     C_R   0.659967 0.498856 0.500849 0.886152
C13   C     C_3   0.967676 0.381960 0.495931 -0.115716
C14   C     C_3   0.032292 0.617323 0.504104 -0.142381
C15   C     C_3   0.024323 0.442079 0.383197 -0.133875
C16   C     C_3   0.975644 0.557207 0.616835 -0.136269
C17   C     C_1   0.250170 0.500760 0.497544 -0.045130
C18   C     C_1   0.749807 0.498739 0.502520 -0.047978
C19   C     C_3   0.027598 0.439865 0.611248 -0.133464
C20   C     C_3   0.972367 0.559421 0.388789 -0.149364
C21   C     C_3   0.082690 0.499975 0.498523 0.142494
C22   C     C_3   0.917277 0.499302 0.501514 0.140937
C23   C     C_1   0.174482 0.500372 0.497440 -0.015281
C24   C     C_1   0.825485 0.498922 0.502620 0.004170
C25   C     C_R   0.573798 0.075888 0.473845 -0.247942
C26   C     C_R   0.427076 0.924859 0.526521 -0.149643
Cu1   Cu    Cu3+1 0.500000 0.500020 0.640660 1.094621
Cu2   Cu    Cu3+1 0.500000 0.499980 0.359340 1.093916
H1    H     H_    0.045717 0.394871 0.287312 0.170857
H2    H     H_    0.954251 0.604419 0.712718 0.169341
H3    H     H_    0.939702 0.285398 0.492673 0.187583
H4    H     H_    0.060254 0.713890 0.507370 0.169359
H5    H     H_    0.948247 0.608514 0.297560 0.164108
H6    H     H_    0.051702 0.390777 0.702491 0.173381
H7    H     H_    0.426070 0.335064 0.857428 0.235785
H8    H     H_    0.572886 0.665676 0.142185 0.246507
N1    N     N_R   0.500020 0.500030 0.852070 -0.261199
N2    N     N_R   0.499980 0.499970 0.147930 -0.260937
O1    O     O_R   0.500000 0.319660 0.618740 -0.599202
O2    O     O_R   0.500000 0.680340 0.381260 -0.577717
O3    O     O_R   0.499990 0.319630 0.381170 -0.498009
O4    O     O_R   0.500010 0.680370 0.618830 -0.501906
O5    O     O_R   0.379080 0.500000 0.618760 -0.541754
O6    O     O_R   0.620920 0.500000 0.381240 -0.555454
O7    O     O_R   0.379080 0.499970 0.381190 -0.556560
O8    O     O_R   0.620920 0.500030 0.618810 -0.550093
C27   C     C_2   0.651411 0.158550 0.459050 0.946312
O9    O     O_2   0.662277 0.216023 0.352442 -0.505108
O10   O     O_R   0.712409 0.171042 0.565434 -0.718636
H9    H     H_    0.696039 0.121235 0.649830 0.326124
C28   C     C_2   0.349375 0.843465 0.543513 0.900744
O11   O     O_2   0.340727 0.781449 0.647554 -0.569806
O12   O     O_R   0.285964 0.839413 0.440843 -0.695302
H10   H     H_    0.235708 0.782008 0.464658 0.325110
S1    S     S_3+6 0.677782 0.881362 0.431706 0.034563
O13   O     O_2   0.728326 0.963583 0.335799 -0.245231
O14   O     O_2   0.727554 0.869905 0.564270 -0.251903
O15   O     O_3   0.664987 0.741745 0.353092 -0.550100
H11   H     H_    0.721986 0.722739 0.320237 0.373789
S2    S     S_3+6 0.323178 0.119457 0.566826 0.060739
O16   O     O_2   0.333741 0.250141 0.622189 -0.315355
O17   O     O_2   0.269967 0.117539 0.436339 -0.181477
O18   O     O_3   0.270692 0.035547 0.686469 -0.476278
H12   H     H_    0.308943 0.038573 0.768920 0.365628
S3    S     S_3+6 0.401052 0.271625 0.129470 0.052678
O19   O     O_2   0.463447 0.175784 0.161422 -0.262172
O20   O     O_2   0.349516 0.297109 0.255071 -0.238101
O21   O     O_3   0.333935 0.211361 0.005348 -0.544944
H13   H     H_    0.312259 0.130728 0.041449 0.393546
S4    S     S_3+6 0.598863 0.728326 0.870829 0.047224
O22   O     O_2   0.650772 0.702047 0.745970 -0.243752
O23   O     O_2   0.536625 0.824092 0.837760 -0.275354
O24   O     O_3   0.665591 0.789025 0.995317 -0.530414
H14   H     H_    0.686886 0.869980 0.959557 0.399433

loop_
_geom_bond_atom_site_label_1
_geom_bond_atom_site_label_2
_ccdc_geom_bond_type
S1    O13   D    
O24   H14   S    
C27   O10   S    
O12   H10   S    
C17   C23   T    
S2    O18   S    
C18   C24   T    
C14   C21   S    
C19   C21   S    
Cu1   N1    S    
C6    C25   A    
Cu2   O2    S    
C16   H2    S    
Cu2   O3    S    
S2    O17   D    
C3    S1    S    
Cu1   O1    S    
O21   H13   S    
S3    O20   D    
C11   O5    A    
S4    O22   D    
C25   C27   S    
C15   H1    S    
C21   C23   S    
C15   C20   S    
Cu2   O7    S    
S4    O23   D    
C13   C19   S    
C28   O11   D    
C14   C20   S    
C3    C25   A    
C4    C6    A    
O15   H11   S    
Cu2   O6    S    
C1    C6    S    
S2    O16   D    
C28   O12   S    
C12   O8    A    
Cu1   O5    S    
C7    S3    S    
C27   O9    D    
Cu2   N2    S    
S3    O21   S    
C4    S2    S    
S4    O24   S    
C9    N1    A    
C20   H5    S    
Cu1   O8    S    
C1    O3    A    
C20   C22   S    
O10   H9    S    
C13   C15   S    
C22   C24   S    
C11   O7    A    
C2    C5    S    
C8    N1    A    
C7    C9    A    
C11   C17   S    
C16   C22   S    
C13   H3    S    
C14   H4    S    
O18   H12   S    
C3    C5    A    
C19   H6    S    
C4    C26   A    
C8    S4    S    
C10   N2    A    
S1    O14   D    
C12   O6    A    
C26   C28   S    
Cu1   O4    S    
C2    O4    A    
C16   C19   S    
C7    N2    A    
C13   C22   S    
C14   C16   S    
C1    O1    A    
C5    C26   A    
C2    O2    A    
C15   C21   S    
C8    C10   A    
S3    O19   D    
S1    O15   S    
C12   C18   S    
Cu1   Cu2   S    
C9    H7    S    
C10   H8    S    
