data_mof_unit_42883.cif
_audit_creation_date              2012-12-10T18:13:35-0500
_audit_creation_method            fapswitch 2.2
_symmetry_space_group_name_H-M    P1
_symmetry_Int_Tables_number       1
_space_group_crystal_system       triclinic
_cell_length_a                    12.615837
_cell_length_b                    13.103022
_cell_length_c                    16.715215
_cell_angle_alpha                 90.559304
_cell_angle_beta                  98.293977
_cell_angle_gamma                 97.333718
_cell_volume                      2710.73391554

loop_
_atom_site_label
_atom_site_type_symbol
_atom_type_description
_atom_site_fract_x
_atom_site_fract_y
_atom_site_fract_z
_atom_type_partial_charge
C1    C     C_R   0.560145 0.691341 0.512520 0.848845
C2    C     C_R   0.467252 0.463193 0.730850 -0.050263
C3    C     C_R   0.351822 0.071717 0.356872 -0.230320
C4    C     C_R   0.512129 0.494708 0.348908 0.848326
C5    C     C_R   0.407301 0.201164 0.464093 -0.079587
C6    C     C_R   0.666718 0.830944 0.606037 0.089142
C7    C     C_R   0.680421 0.935053 0.630776 -0.148487
C8    C     C_R   0.620614 0.004456 0.588510 -0.234605
C9    C     C_R   0.549141 0.973604 0.516929 0.102060
C10   C     C_R   0.548447 0.873985 0.484543 0.057100
C11   C     C_R   0.478702 0.038271 0.475851 0.096295
C12   C     C_R   0.605885 0.449849 0.235565 -0.190217
C13   C     C_R   0.420234 0.007640 0.398614 0.132626
C14   C     C_R   0.433074 0.914543 0.362844 -0.225161
C15   C     C_R   0.496786 0.848605 0.405250 -0.184904
C16   C     C_R   0.440283 0.308874 0.487503 0.852068
C17   C     C_R   0.464873 0.132629 0.509311 -0.282744
C18   C     C_R   0.345838 0.169957 0.388074 0.092284
C19   C     C_R   0.597758 0.800492 0.532281 -0.162257
C20   C     C_R   0.901778 0.349882 0.614404 -0.304309
C21   C     C_R   0.203642 0.623001 0.400141 0.137369
C22   C     C_R   0.102470 0.655665 0.385811 -0.278989
C23   C     C_R   0.514082 0.356403 0.843970 -0.184880
C24   C     C_R   0.022074 0.613549 0.427994 -0.215610
C25   C     C_R   0.041177 0.535304 0.483398 0.020966
C26   C     C_R   0.147349 0.507769 0.499517 0.217438
C27   C     C_R   0.958278 0.482019 0.521568 -0.008782
C28   C     C_R   0.484899 0.496496 0.650372 0.843979
C29   C     C_R   0.983097 0.404283 0.577157 0.193040
C30   C     C_R   0.088218 0.380266 0.593731 -0.288193
C31   C     C_R   0.168766 0.430489 0.554697 -0.216686
C32   C     C_R   0.850168 0.500594 0.504922 -0.066363
C33   C     C_R   0.796640 0.371940 0.595271 0.017456
C34   C     C_R   0.536088 0.398662 0.771742 -0.214241
C35   C     C_R   0.511723 0.473459 0.263125 -0.038134
C36   C     C_R   0.414547 0.465983 0.209639 -0.211974
C37   C     C_R   0.411252 0.434650 0.129809 -0.146234
C38   C     C_R   0.505153 0.409242 0.102557 0.201621
C39   C     C_R   0.602469 0.418084 0.155704 -0.179292
C40   C     C_1   0.258241 0.466529 0.867635 0.119196
C41   C     C_3   0.280316 0.240868 0.336535 -0.407539
C42   C     C_3   0.172847 0.248980 0.367447 -0.308192
C43   C     C_3   0.112499 0.329442 0.321705 -0.865488
C44   C     C_3   0.721064 0.751452 0.657897 -0.372370
C45   C     C_R   0.373766 0.482029 0.761810 -0.247418
C46   C     C_3   0.786560 0.790945 0.739481 -0.401822
C47   C     C_3   0.832515 0.703074 0.786343 -0.842161
C48   C     C_1   0.277637 0.656377 0.345222 0.212231
C49   C     C_R   0.352062 0.441004 0.835300 0.041999
C50   C     C_R   0.424769 0.380463 0.877967 0.148785
C51   C     C_2   0.508155 0.386864 0.017104 -0.230698
C52   C     C_2   0.419457 0.359136 0.963212 -0.232967
H1    H     H_    0.340498 0.482833 0.229522 0.166384
H2    H     H_    0.107830 0.320513 0.635661 0.157879
H3    H     H_    0.919172 0.290481 0.657189 0.141759
H4    H     H_    0.822924 0.557024 0.463254 0.127497
H5    H     H_    0.945460 0.642157 0.413999 0.143156
H6    H     H_    0.084671 0.711668 0.340096 0.152366
H7    H     H_    0.246379 0.405024 0.567187 0.213890
H8    H     H_    0.318229 0.529108 0.729125 0.168641
H9    H     H_    0.340834 0.339819 0.982080 0.153880
H10   H     H_    0.676124 0.401018 0.135187 0.127708
H11   H     H_    0.569465 0.308161 0.875200 0.139549
H12   H     H_    0.392931 0.892303 0.302310 0.160676
H13   H     H_    0.681898 0.454664 0.275787 0.157897
H14   H     H_    0.585839 0.406639 0.996358 0.154971
H15   H     H_    0.335707 0.433382 0.089804 0.134964
H16   H     H_    0.162826 0.405839 0.328204 0.265097
H17   H     H_    0.092099 0.307055 0.256505 0.252925
H18   H     H_    0.036547 0.335627 0.346672 0.250978
H19   H     H_    0.121476 0.173040 0.359240 0.213266
H20   H     H_    0.186659 0.270013 0.432930 0.240755
H21   H     H_    0.328074 0.317725 0.334712 0.218394
H22   H     H_    0.262198 0.211534 0.272699 0.187980
H23   H     H_    0.306799 0.046848 0.298197 0.134124
H24   H     H_    0.766108 0.643979 0.798989 0.262224
H25   H     H_    0.886718 0.666648 0.751187 0.265041
H26   H     H_    0.879769 0.733544 0.844791 0.249895
H27   H     H_    0.854976 0.849322 0.729259 0.225076
H28   H     H_    0.733807 0.826279 0.776672 0.227605
H29   H     H_    0.657199 0.689793 0.670763 0.211622
H30   H     H_    0.776472 0.717248 0.622412 0.223312
H31   H     H_    0.504312 0.158588 0.568957 0.138190
H32   H     H_    0.634264 0.082451 0.612502 0.134337
H33   H     H_    0.733975 0.963691 0.684858 0.133285
H34   H     H_    0.506542 0.777358 0.375717 0.162917
H35   H     H_    0.732536 0.330649 0.623394 0.121653
H36   H     H_    0.606333 0.379316 0.747454 0.155305
N1    N     N_R   0.774070 0.445420 0.541180 -0.100041
N2    N     N_R   0.226730 0.554050 0.459240 -0.148663
N3    N     N_1   0.183078 0.486978 0.893527 -0.215120
N4    N     N_1   0.333951 0.682635 0.298439 -0.250761
O1    O     O_R   0.631480 0.627510 0.519670 -0.624767
O2    O     O_R   0.455770 0.662400 0.493360 -0.588034
O3    O     O_R   0.598240 0.480510 0.398910 -0.613981
O4    O     O_R   0.422540 0.515400 0.372600 -0.620171
O5    O     O_R   0.544230 0.337600 0.506640 -0.603345
O6    O     O_R   0.368520 0.372490 0.480330 -0.641284
O7    O     O_R   0.577460 0.484600 0.627400 -0.623927
O8    O     O_R   0.401760 0.519490 0.601090 -0.628190
Zn1   Zn    Zn3+2 0.617320 0.476700 0.517570 0.928941
Zn2   Zn    Zn3+2 0.382680 0.523300 0.482430 0.932209

loop_
_geom_bond_atom_site_label_1
_geom_bond_atom_site_label_2
_ccdc_geom_bond_type
C45   H8    S    
O4    Zn2   S    
C27   C29   A    
C41   C42   S    
C35   C36   A    
C16   O6    A    
C7    C8    A    
C7    H33   S    
C6    C19   A    
C30   H2    S    
C29   C30   A    
C36   C37   A    
C47   H24   S    
C44   H30   S    
C10   C15   A    
C46   H27   S    
C16   O5    A    
C5    C17   A    
C40   C49   S    
C3    C18   A    
C31   H7    S    
N2    Zn2   S    
C5    C16   S    
C36   H1    S    
C41   H22   S    
C4    O4    A    
C8    C9    A    
C50   C52   S    
C3    H23   S    
C9    C10   A    
C3    C13   A    
C20   C29   A    
C21   C48   S    
C28   O8    A    
C23   H11   S    
C4    C35   S    
C26   C31   A    
C43   H17   S    
C6    C44   S    
C13   C14   A    
C20   H3    S    
O8    Zn2   S    
C44   C46   S    
C21   N2    A    
C2    C45   A    
C38   C39   A    
C1    C19   S    
C51   C52   D    
C24   C25   A    
C44   H29   S    
C18   C41   S    
O1    Zn1   S    
C24   H5    S    
C23   C50   A    
C38   C51   S    
C25   C26   A    
O6    Zn2   S    
C17   H31   S    
C51   H14   S    
C22   H6    S    
C37   C38   A    
C33   N1    A    
C4    O3    A    
C32   N1    A    
C45   C49   A    
C10   C19   A    
C23   C34   A    
C14   H12   S    
C42   H20   S    
C34   H36   S    
C12   C35   A    
C9    C11   A    
C15   H34   S    
C20   C33   A    
C28   O7    A    
O7    Zn1   S    
C43   H18   S    
C22   C24   A    
C26   N2    A    
C42   C43   S    
C47   H25   S    
C39   H10   S    
C46   C47   S    
C11   C17   A    
N1    Zn1   S    
C27   C32   A    
C8    H32   S    
C1    O2    A    
C6    C7    A    
C5    C18   A    
C25   C27   A    
C12   H13   S    
C43   H16   S    
C52   H9    S    
C12   C39   A    
C33   H35   S    
C46   H28   S    
C11   C13   A    
C2    C34   A    
C30   C31   A    
C37   H15   S    
C42   H19   S    
C40   N3    T    
C41   H21   S    
O2    Zn2   S    
C1    O1    A    
C49   C50   A    
C48   N4    T    
C14   C15   A    
C2    C28   S    
C47   H26   S    
C21   C22   A    
C32   H4    S    
O5    Zn1   S    
O3    Zn1   S    
