data_mof_unit_39032.cif
_audit_creation_date              2012-12-11T14:08:34-0500
_audit_creation_method            fapswitch 2.2
_symmetry_space_group_name_H-M    P1
_symmetry_Int_Tables_number       1
_space_group_crystal_system       triclinic
_cell_length_a                    10.978662
_cell_length_b                    10.969775
_cell_length_c                    18.625049
_cell_angle_alpha                 90.465679
_cell_angle_beta                  89.353097
_cell_angle_gamma                 59.614756
_cell_volume                      1934.6061781

loop_
_atom_site_label
_atom_site_type_symbol
_atom_type_description
_atom_site_fract_x
_atom_site_fract_y
_atom_site_fract_z
_atom_type_partial_charge
C1    C     C_R   0.293455 0.621098 0.614916 0.543976
C2    C     C_2   0.781101 0.157485 0.706655 -0.185741
C3    C     C_2   0.252336 0.634300 0.690499 -0.143387
C4    C     C_R   0.628821 0.590911 0.609943 0.544055
C5    C     C_2   0.216942 0.649175 0.846407 -0.135385
C6    C     C_2   0.237273 0.537168 0.807099 -0.180169
C7    C     C_2   0.281668 0.521307 0.730722 -0.183614
C8    C     C_2   0.615030 0.601506 0.309524 -0.108752
C9    C     C_2   0.630433 0.663959 0.158069 -0.127492
C10   C     C_2   0.689702 0.532855 0.183631 -0.124318
C11   C     C_2   0.707377 0.502655 0.261477 -0.015683
C12   C     C_3   0.664291 0.542582 0.810775 -0.121990
C13   C     C_2   0.688864 0.104442 0.344859 0.008195
C14   C     C_2   0.676938 0.087669 0.185985 -0.104316
C15   C     C_2   0.634934 0.023976 0.232357 -0.176333
C16   C     C_R   0.628057 0.228034 0.601942 0.536673
C17   C     C_2   0.601466 0.077597 0.305921 -0.130938
C18   C     C_2   0.316505 0.597466 0.316956 -0.029001
C19   C     C_2   0.173668 0.657204 0.177237 -0.107655
C20   C     C_2   0.247361 0.715936 0.201352 -0.158339
C21   C     C_2   0.276791 0.712274 0.277130 -0.167450
C22   C     C_R   0.703247 0.101939 0.897643 0.548547
C23   C     C_3   0.690047 0.670359 0.815675 0.093010
C24   C     C_R   0.722581 0.687908 0.889194 0.547079
C25   C     C_R   0.124275 0.702601 0.909542 0.537201
C26   C     C_R   0.700907 0.043621 0.111818 0.571410
C27   C     C_R   0.690559 0.688005 0.093762 0.539658
C28   C     C_R   0.302891 0.613318 0.395107 0.580652
C29   C     C_R   0.095981 0.708066 0.112090 0.547551
C30   C     C_R   0.615136 0.584248 0.387500 0.554034
C31   C     C_R   0.626453 0.212708 0.402094 0.535084
C32   C     C_3   0.562862 0.810827 0.782940 -0.096080
C33   C     C_3   0.553169 0.785646 0.702181 -0.212457
C34   C     C_3   0.648666 0.625749 0.683562 0.018993
C35   C     C_3   0.825472 0.631694 0.768360 -0.120438
C36   C     C_3   0.416412 0.872367 0.819447 -0.403684
C37   C     C_3   0.835581 0.364636 0.285747 -0.255040
C38   C     C_3   0.935481 0.264576 0.226859 -0.470502
C39   C     C_3   0.848331 0.020110 0.333934 -0.285681
C40   C     C_3   0.905211 0.864552 0.350572 -0.402243
C41   C     C_3   0.390195 0.449835 0.284427 -0.380368
C42   C     C_3   0.870146 0.747283 0.770183 -0.273167
C43   C     C_3   0.900712 0.794831 0.698673 -0.438234
C44   C     C_3   0.571171 0.534471 0.870976 -0.407612
C45   C     C_3   0.805376 0.584501 0.693741 -0.205258
C46   C     C_3   0.609878 0.540560 0.735555 -0.250362
C47   C     C_2   0.675764 0.156968 0.670632 -0.128259
C48   C     C_2   0.688132 0.166601 0.827855 -0.127360
C49   C     C_2   0.800056 0.126341 0.783813 -0.183472
Cr1   Cr    Cr6+3 0.393010 0.398050 0.501480 1.003386
Cr2   Cr    Cr6+3 0.398820 0.707980 0.501630 0.999545
Cr3   Cr    Cr6+3 0.708140 0.393940 0.496850 0.983320
Cr4   Cr    Cr6+3 0.937950 0.938450 0.008940 1.004799
Cr5   Cr    Cr6+3 0.626180 0.937030 0.994750 0.998440
Cr6   Cr    Cr6+3 0.937790 0.625760 0.001410 1.003832
H1    H     H_    0.585255 0.898369 0.787319 0.145621
H2    H     H_    0.330802 0.416511 0.706219 0.153718
H3    H     H_    0.251132 0.717860 0.825912 0.097999
H4    H     H_    0.199315 0.740220 0.713572 0.105852
H5    H     H_    0.750738 0.446686 0.145925 0.154310
H6    H     H_    0.561502 0.757091 0.190030 0.083913
H7    H     H_    0.525621 0.698069 0.291082 0.089547
H8    H     H_    0.608969 0.945661 0.214319 0.127985
H9    H     H_    0.491782 0.119915 0.321943 0.147213
H10   H     H_    0.694819 0.172196 0.203187 0.102323
H11   H     H_    0.260039 0.791325 0.169335 0.152552
H12   H     H_    0.655600 0.430051 0.716503 0.120168
H13   H     H_    0.441929 0.823533 0.686963 0.141055
H14   H     H_    0.247265 0.813788 0.301844 0.140306
H15   H     H_    0.153216 0.587901 0.210089 0.112495
H16   H     H_    0.587906 0.848035 0.670041 0.122560
H17   H     H_    0.839366 0.625682 0.648717 0.160209
H18   H     H_    0.768215 0.443124 0.815404 0.141869
H19   H     H_    0.493983 0.587895 0.737630 0.130055
H20   H     H_    0.349051 0.984871 0.804411 0.117287
H21   H     H_    0.363494 0.817003 0.799656 0.117334
H22   H     H_    0.419281 0.868934 0.878746 0.166366
H23   H     H_    0.917119 0.535219 0.790817 0.133122
H24   H     H_    0.880527 0.226018 0.191854 0.152151
H25   H     H_    0.979918 0.317832 0.194307 0.167875
H26   H     H_    0.024704 0.171043 0.252062 0.133249
H27   H     H_    0.901594 0.390258 0.320308 0.185795
H28   H     H_    0.797881 0.304874 0.316778 0.173720
H29   H     H_    0.875177 0.853466 0.406272 0.171660
H30   H     H_    0.864027 0.816465 0.312309 0.161209
H31   H     H_    0.021537 0.805975 0.345602 0.170442
H32   H     H_    0.880136 0.029338 0.278518 0.144840
H33   H     H_    0.900386 0.059845 0.370404 0.156567
H34   H     H_    0.873515 0.467199 0.689451 0.120090
H35   H     H_    0.333453 0.393776 0.299507 0.148662
H36   H     H_    0.402908 0.446203 0.225236 0.140189
H37   H     H_    0.499146 0.393117 0.304142 0.127914
H38   H     H_    0.983501 0.703534 0.667324 0.173318
H39   H     H_    0.803215 0.851833 0.666968 0.151590
H40   H     H_    0.941485 0.867137 0.709019 0.154336
H41   H     H_    0.796234 0.842678 0.801768 0.151957
H42   H     H_    0.967095 0.704249 0.801103 0.170586
H43   H     H_    0.540865 0.455168 0.856891 0.143920
H44   H     H_    0.630679 0.501130 0.921772 0.145157
H45   H     H_    0.906918 0.065502 0.803644 0.150938
H46   H     H_    0.473926 0.636254 0.881451 0.140801
H47   H     H_    0.850950 0.187196 0.680446 0.151302
H48   H     H_    0.581769 0.228760 0.807470 0.105928
H49   H     H_    0.611067 0.120304 0.696440 0.103422
H50   H     H_    0.207070 0.464089 0.828271 0.147479
O1    O     O_R   0.507110 0.256280 0.580300 -0.523771
O2    O     O_R   0.837080 0.593860 0.915300 -0.536361
O3    O     O_R   0.064770 0.636080 0.932550 -0.500719
O4    O     O_R   0.280830 0.527190 0.577940 -0.479517
O5    O     O_R   0.068250 0.829200 0.092940 -0.523919
O6    O     O_R   0.799650 0.057040 0.080330 -0.503467
O7    O     O_R   0.586130 0.079760 0.077080 -0.503047
O8    O     O_R   0.627700 0.809630 0.066580 -0.515249
O9    O     O_R   0.816140 0.597180 0.075920 -0.510704
O10   O     O_R   0.045360 0.639170 0.081440 -0.497080
O11   O     O_3   0.833980 0.833750 0.001700 -0.264456
O12   O     O_R   0.524640 0.695370 0.425100 -0.502173
O13   O     O_R   0.261360 0.738990 0.584270 -0.515333
O14   O     O_R   0.532590 0.694780 0.574370 -0.508611
O15   O     O_R   0.744470 0.503750 0.577000 -0.516192
O16   O     O_R   0.698520 0.277230 0.571620 -0.508485
O17   O     O_R   0.498530 0.256920 0.419280 -0.530806
O18   O     O_R   0.272880 0.527780 0.428680 -0.483398
O19   O     O_R   0.252780 0.739630 0.423250 -0.530426
O20   O     O_R   0.735890 0.504390 0.415980 -0.508247
O21   O     O_R   0.690560 0.277820 0.422350 -0.538437
O22   O     O_3   0.499990 0.499990 0.499980 -0.320665
O23   O     O_R   0.089190 0.825870 0.932320 -0.520692
O24   O     O_R   0.819070 0.053960 0.931440 -0.488900
O25   O     O_R   0.607070 0.076440 0.916460 -0.519868
O26   O     O_R   0.647110 0.806550 0.917690 -0.517099

loop_
_geom_bond_atom_site_label_1
_geom_bond_atom_site_label_2
_ccdc_geom_bond_type
Cr4   O5    S    
C22   C48   S    
C26   O7    A    
C18   C21   D    
C40   H29   S    
C19   C20   D    
Cr1   O17   S    
C39   H32   S    
Cr2   O13   S    
C28   O18   A    
Cr5   O26   S    
C12   C23   S    
C38   H25   S    
C5    H3    S    
C9    H6    S    
C32   C36   S    
Cr4   O23   S    
C20   H11   S    
C36   H20   S    
C25   O23   A    
C3    C7    D    
C36   H22   S    
C17   H9    S    
C5    C6    D    
C44   H44   S    
C38   H24   S    
C2    H47   S    
Cr5   O8    S    
C43   H39   S    
C40   H31   S    
C11   C37   S    
C35   C42   S    
C36   H21   S    
C1    O4    A    
C44   H43   S    
C14   H10   S    
Cr5   O11   S    
Cr2   O14   S    
C23   C24   S    
C4    O14   A    
C34   C46   S    
C45   H34   S    
C9    C10   D    
Cr4   O11   S    
C16   O1    A    
Cr4   O6    S    
C41   H35   S    
C29   O10   A    
C30   O20   A    
C12   H18   S    
C22   O25   A    
C45   H17   S    
Cr2   O19   S    
C39   H33   S    
C16   C47   S    
Cr3   O22   S    
Cr5   O25   S    
C4    C34   S    
C29   O5    A    
C18   C28   S    
C12   C46   S    
C42   H42   S    
C39   C40   S    
C34   C45   S    
Cr3   O21   S    
C48   H48   S    
Cr1   O4    S    
C21   H14   S    
C1    C3    S    
C40   H30   S    
C10   H5    S    
C16   O16   A    
C37   C38   S    
C2    C49   S    
Cr3   O16   S    
C43   H40   S    
Cr3   O20   S    
C33   C34   S    
Cr5   O7    S    
C24   O2    A    
C14   C26   S    
C5    C25   S    
C27   O8    A    
C48   C49   D    
C41   H36   S    
C23   C35   S    
C38   H26   S    
Cr2   O12   S    
C42   H41   S    
C37   H27   S    
C18   C41   S    
Cr6   O9    S    
Cr4   O24   S    
C42   C43   S    
C35   C45   S    
Cr3   O15   S    
C46   H19   S    
C9    C27   S    
C15   C17   S    
C47   H49   S    
C13   C31   S    
C37   H28   S    
Cr1   O18   S    
C31   O17   A    
C44   H46   S    
C28   O19   A    
C6    C7    S    
C30   O12   A    
C2    C47   D    
C35   H23   S    
C13   C17   D    
Cr6   O3    S    
C8    C30   S    
C23   C32   S    
Cr2   O22   S    
C46   H12   S    
C12   C44   S    
C19   C29   S    
C32   C33   S    
C49   H45   S    
C24   O26   A    
Cr6   O10   S    
C8    C11   D    
C43   H38   S    
C6    H50   S    
C7    H2    S    
C1    O13   A    
C13   C39   S    
C10   C11   S    
C33   H16   S    
C27   O9    A    
C41   H37   S    
C20   C21   S    
C33   H13   S    
Cr6   O11   S    
Cr6   O2    S    
C22   O24   A    
Cr1   O1    S    
C15   H8    S    
C14   C15   D    
C4    O15   A    
C19   H15   S    
Cr1   O22   S    
C31   O21   A    
C26   O6    A    
C32   H1    S    
C25   O3    A    
C8    H7    S    
C3    H4    S    
