data_mof_unit_29939.cif
_audit_creation_date              2012-12-11T17:11:45-0500
_audit_creation_method            fapswitch 2.2
_symmetry_space_group_name_H-M    P1
_symmetry_Int_Tables_number       1
_space_group_crystal_system       triclinic
_cell_length_a                    14.987328
_cell_length_b                    6.952701
_cell_length_c                    13.627073
_cell_angle_alpha                 89.995154
_cell_angle_beta                  100.830249
_cell_angle_gamma                 90.010928
_cell_volume                      1394.68151694

loop_
_atom_site_label
_atom_site_type_symbol
_atom_type_description
_atom_site_fract_x
_atom_site_fract_y
_atom_site_fract_z
_atom_type_partial_charge
O1    O     O_R   0.398250 0.605080 0.401520 -0.538130
O2    O     O_R   0.898250 0.394920 0.901520 -0.542033
O3    O     O_R   0.584130 0.932110 0.405450 -0.544304
O4    O     O_R   0.084130 0.067890 0.905450 -0.543015
O5    O     O_R   0.601750 0.105090 0.598480 -0.538488
O6    O     O_R   0.101750 0.894910 0.098480 -0.534023
C1    C     C_R   0.613782 0.763345 0.385757 0.733271
C2    C     C_R   0.111551 0.237011 0.883182 0.742867
O7    O     O_R   0.397870 0.934620 0.389680 -0.537023
O8    O     O_R   0.897870 0.065380 0.889680 -0.541418
O9    O     O_R   0.414160 0.107620 0.582600 -0.518820
O10   O     O_R   0.914160 0.892380 0.082600 -0.527574
C3    C     C_R   0.363980 0.765745 0.362748 0.745842
C4    C     C_R   0.863907 0.234235 0.862846 0.710272
O11   O     O_R   0.585840 0.602550 0.417400 -0.543311
O12   O     O_R   0.085840 0.397450 0.917400 -0.542054
O13   O     O_3   0.505560 0.772440 0.563310 -0.359789
O14   O     O_3   0.005560 0.227560 0.063310 -0.359142
V1    V     V_3+5 0.498970 0.046250 0.488250 1.456416
V2    V     V_3+5 0.998970 0.953750 0.988250 1.432563
O15   O     O_R   0.415870 0.437500 0.594550 -0.523550
O16   O     O_R   0.915870 0.562500 0.094550 -0.535050
C5    C     C_R   0.388397 0.268388 0.617150 0.689282
C6    C     C_R   0.884559 0.731141 0.112552 0.685684
O17   O     O_R   0.602130 0.434980 0.610320 -0.543815
O18   O     O_R   0.102130 0.565020 0.110320 -0.538029
C7    C     C_R   0.635858 0.265926 0.637414 0.715938
C8    C     C_R   0.135925 0.734077 0.137319 0.736881
V3    V     V_3+5 0.501030 0.546580 0.511750 1.461212
V4    V     V_3+5 0.001030 0.453420 0.011750 1.440547
O19   O     O_3   0.494440 0.270520 0.436690 -0.378153
O20   O     O_3   0.994440 0.729480 0.936690 -0.377465
C9    C     C_1   0.716158 0.255223 0.717119 -0.192363
C10   C     C_1   0.216279 0.744792 0.216950 -0.187043
C11   C     C_1   0.783469 0.244951 0.783339 -0.195875
C12   C     C_1   0.283593 0.755035 0.283169 -0.195872
C13   C     C_2   0.276292 0.106405 0.704888 0.369428
C14   C     C_2   0.785103 0.897662 0.215048 0.361749
C15   C     C_2   0.329153 0.261818 0.693720 0.204779
C16   C     C_2   0.807339 0.736517 0.167810 0.217132
C17   C     C_2   0.219788 0.101001 0.785195 -0.211512
C18   C     C_2   0.711830 0.902817 0.276222 -0.190981
C19   C     C_2   0.171229 0.251160 0.808775 -0.322537
C20   C     C_2   0.684428 0.749974 0.323631 -0.327867
H1    H     H_    0.214930 0.964258 0.822341 0.147021
H2    H     H_    0.682480 0.042699 0.286043 0.154623
H3    H     H_    0.172406 0.387732 0.770577 0.172513
H4    H     H_    0.716248 0.610785 0.320363 0.191550
O21   O     O_3   0.285003 0.941559 0.649042 -0.548437
C21   C     C_3   0.201860 0.841978 0.622997 -0.194672
H5    H     H_    0.144028 0.940914 0.595806 0.112596
H6    H     H_    0.188479 0.753897 0.686679 0.151496
H7    H     H_    0.207094 0.741413 0.561121 0.153872
O22   O     O_3   0.824704 0.071290 0.198759 -0.553487
C22   C     C_3   0.770240 0.156584 0.114112 -0.128650
H8    H     H_    0.705875 0.210488 0.133020 0.137235
H9    H     H_    0.754286 0.056702 0.049177 0.058417
H10   H     H_    0.808220 0.277520 0.089138 0.207885
O23   O     O_3   0.327425 0.423391 0.752969 -0.557334
C23   C     C_3   0.405774 0.422906 0.828702 -0.241286
H11   H     H_    0.409356 0.290554 0.875323 0.119215
H12   H     H_    0.402304 0.547837 0.878474 0.162100
H13   H     H_    0.468680 0.438532 0.797144 0.124723
O24   O     O_3   0.750114 0.578995 0.158717 -0.565059
C24   C     C_3   0.682528 0.604828 0.072129 -0.351099
H14   H     H_    0.712319 0.594237 0.003426 0.131288
H15   H     H_    0.645873 0.743968 0.073188 0.142663
H16   H     H_    0.630911 0.489681 0.068900 0.158201

loop_
_geom_bond_atom_site_label_1
_geom_bond_atom_site_label_2
_ccdc_geom_bond_type
O15   V3    S    
O14   V2    S    
V4    O20   S    
C22   H8    S    
O3    V1    S    
O5    V1    S    
O8    V2    S    
O17   C7    A    
O13   V3    S    
O10   C6    A    
O18   C8    A    
C14   O22   S    
C2    C19   S    
O2    V4    S    
O4    C2    A    
C24   H16   S    
V1    O19   S    
O24   C24   S    
O10   V2    S    
C2    O12   A    
C1    O11   A    
C21   H5    S    
C15   O23   S    
O23   C23   S    
V3    O19   S    
C1    C20   S    
C7    C9    S    
C14   C16   D    
C17   C19   D    
O9    V1    S    
O1    V3    S    
C18   C20   D    
O6    V2    S    
C3    C12   S    
C23   H13   S    
O14   V4    S    
C23   H12   S    
C9    C11   T    
V2    O20   S    
O11   V3    S    
O3    C1    A    
C10   C12   T    
C22   H9    S    
O15   C5    A    
C13   C17   S    
O2    C4    A    
O16   C6    A    
C21   H6    S    
C21   H7    S    
O1    C3    A    
C8    C10   S    
O4    V2    S    
C14   C18   S    
C13   O21   S    
O17   V3    S    
C13   C15   D    
C24   H14   S    
C18   H2    S    
C22   H10   S    
O9    C5    A    
C4    C11   S    
O21   C21   S    
C17   H1    S    
O22   C22   S    
C6    C16   S    
O7    C3    A    
O16   V4    S    
O13   V1    S    
O5    C7    A    
O12   V4    S    
C5    C15   S    
C23   H11   S    
O6    C8    A    
C20   H4    S    
O7    V1    S    
O8    C4    A    
C19   H3    S    
C24   H15   S    
O18   V4    S    
C16   O24   S    
