data_mof_unit_51623.cif
_audit_creation_date              2012-12-11T14:39:34-0500
_audit_creation_method            fapswitch 2.2
_symmetry_space_group_name_H-M    P1
_symmetry_Int_Tables_number       1
_space_group_crystal_system       monoclinic
_cell_length_a                    7.220329
_cell_length_b                    14.032084
_cell_length_c                    16.340428
_cell_angle_alpha                 90.0
_cell_angle_beta                  97.706086
_cell_angle_gamma                 90.0
_cell_volume                      1640.59975648

loop_
_atom_site_label
_atom_site_type_symbol
_atom_type_description
_atom_site_fract_x
_atom_site_fract_y
_atom_site_fract_z
_atom_type_partial_charge
O1    O     O_R   0.525340 0.338340 0.164530 -0.538802
O2    O     O_R   0.474660 0.661660 0.835470 -0.538103
O3    O     O_R   0.974660 0.838340 0.835470 -0.538801
O4    O     O_R   0.025340 0.161660 0.164530 -0.538103
O5    O     O_R   0.253520 0.352000 0.336710 -0.540603
O6    O     O_R   0.746480 0.648000 0.663290 -0.545707
O7    O     O_R   0.246480 0.852000 0.663290 -0.540603
O8    O     O_R   0.753520 0.148000 0.336710 -0.545706
O9    O     O_R   0.083330 0.168380 0.337300 -0.536891
O10   O     O_R   0.916670 0.831620 0.662700 -0.534031
O11   O     O_R   0.416670 0.668380 0.662700 -0.536891
O12   O     O_R   0.583330 0.331620 0.337300 -0.534031
C1    C     C_R   0.432584 0.368882 0.363525 0.683004
C2    C     C_R   0.567461 0.630919 0.636655 0.681989
C3    C     C_R   0.067416 0.868882 0.636475 0.683004
C4    C     C_R   0.932539 0.130919 0.363345 0.681989
O13   O     O_R   0.195840 0.349670 0.165140 -0.498141
O14   O     O_R   0.804160 0.650330 0.834860 -0.552212
O15   O     O_R   0.304160 0.849670 0.834860 -0.498141
O16   O     O_R   0.695840 0.150330 0.165140 -0.552212
C5    C     C_R   0.357270 0.374304 0.139518 0.738066
C6    C     C_R   0.642896 0.626024 0.861303 0.645707
C7    C     C_R   0.142730 0.874304 0.860482 0.738066
C8    C     C_R   0.857104 0.126024 0.138697 0.645707
O17   O     O_3   0.387830 0.193120 0.250910 -0.385616
O18   O     O_3   0.612170 0.806880 0.749090 -0.350338
O19   O     O_3   0.112170 0.693120 0.749090 -0.385616
O20   O     O_3   0.887830 0.306880 0.250910 -0.350338
V1    V     V_3+5 0.113010 0.264540 0.250910 1.534138
V2    V     V_3+5 0.886990 0.735460 0.749090 1.457072
V3    V     V_3+5 0.386990 0.764540 0.749090 1.534138
V4    V     V_3+5 0.613010 0.235460 0.250910 1.457071
H1    H     H_    0.845520 0.804188 0.261794 0.158442
H2    H     H_    0.151205 0.195512 0.738114 0.166153
H3    H     H_    0.654480 0.304188 0.738206 0.158441
H4    H     H_    0.348796 0.695512 0.261886 0.166153
C9    C     C_R   0.036153 0.198626 0.529315 -0.254581
C10   C     C_R   0.964235 0.801112 0.470404 -0.254057
C11   C     C_R   0.463848 0.698626 0.470685 -0.254581
C12   C     C_R   0.535764 0.301112 0.529596 -0.254057
C13   C     C_R   0.083639 0.233929 0.609474 0.010385
C14   C     C_R   0.916093 0.765797 0.390288 0.013429
C15   C     C_R   0.416361 0.733929 0.390526 0.010384
C16   C     C_R   0.583906 0.265797 0.609712 0.013430
C17   C     C_R   0.114774 0.169952 0.675484 -0.039547
C18   C     C_R   0.883044 0.829785 0.324349 -0.053926
C19   C     C_R   0.385227 0.669952 0.324516 -0.039547
C20   C     C_R   0.616955 0.329785 0.675651 -0.053926
C21   C     C_R   0.098096 0.072124 0.661663 -0.102841
C22   C     C_R   0.899076 0.927654 0.338120 -0.126282
C23   C     C_R   0.401905 0.572124 0.338337 -0.102840
C24   C     C_R   0.600924 0.427654 0.661880 -0.126282
C25   C     C_R   0.050484 0.035216 0.581110 0.035020
C26   C     C_R   0.948427 0.964550 0.418623 0.052103
C27   C     C_R   0.449516 0.535216 0.418889 0.035020
C28   C     C_R   0.551573 0.464550 0.581377 0.052103
C29   C     C_R   0.018899 0.099447 0.513809 0.046321
C30   C     C_R   0.980885 0.900297 0.485912 0.048008
C31   C     C_R   0.481101 0.599447 0.486191 0.046321
C32   C     C_R   0.519115 0.400297 0.514088 0.048008
C33   C     C_R   0.031636 0.935920 0.566958 -0.149332
C34   C     C_R   0.968075 0.063830 0.432779 -0.149101
C35   C     C_R   0.468364 0.435920 0.433042 -0.149332
C36   C     C_R   0.531925 0.563830 0.567221 -0.149101
H5    H     H_    0.011452 0.249708 0.479385 0.111650
H6    H     H_    0.989956 0.750044 0.520305 0.110248
H7    H     H_    0.488548 0.749708 0.520615 0.111650
H8    H     H_    0.510044 0.250044 0.479695 0.110248
H9    H     H_    0.121266 0.025788 0.714914 0.132079
H10   H     H_    0.873629 0.973936 0.284825 0.097572
H11   H     H_    0.378735 0.525788 0.285086 0.132079
H12   H     H_    0.626371 0.473936 0.715175 0.097570
H13   H     H_    0.128719 0.075181 0.054833 0.122934
H14   H     H_    0.941065 0.890274 0.980942 0.191664
H15   H     H_    0.371284 0.575184 0.945169 0.122934
H16   H     H_    0.558937 0.390275 0.019058 0.191664
C37   C     C_2   0.146691 0.954776 0.920217 -0.182509
C38   C     C_2   0.850173 0.049836 0.074079 -0.159728
C39   C     C_2   0.353309 0.454777 0.079784 -0.182510
C40   C     C_2   0.649827 0.549836 0.925920 -0.159727
C41   C     C_2   0.025453 0.953660 0.977144 -0.143790
C42   C     C_2   0.005667 0.031939 0.037221 -0.125187
C43   C     C_2   0.474548 0.453661 0.022857 -0.143791
C44   C     C_2   0.494334 0.531941 0.962780 -0.125185
C45   C     C_2   0.098537 0.338052 0.623040 0.373562
H17   H     H_    0.075004 0.386499 0.570868 0.050481
O21   O     O_2   0.137036 0.371093 0.692371 -0.537114
C46   C     C_2   0.902309 0.661646 0.376690 0.397135
H18   H     H_    0.926864 0.613193 0.428826 0.041796
O22   O     O_2   0.863710 0.628587 0.307370 -0.509868
C47   C     C_2   0.401464 0.838052 0.376960 0.373563
H19   H     H_    0.424996 0.886499 0.429132 0.050481
O23   O     O_2   0.362965 0.871093 0.307629 -0.537114
C48   C     C_2   0.597691 0.161646 0.623310 0.397135
H20   H     H_    0.573136 0.113193 0.571174 0.041796
O24   O     O_2   0.636290 0.128587 0.692630 -0.509868
C49   C     C_2   0.671227 0.996409 0.053572 0.385577
H21   H     H_    0.565129 0.000636 0.094599 0.051300
O25   O     O_2   0.636876 0.949604 0.990460 -0.510484
C50   C     C_2   0.267897 0.038793 0.909370 0.450971
H22   H     H_    0.267094 0.101559 0.947750 0.026862
O26   O     O_2   0.369767 0.039593 0.855459 -0.494878
C51   C     C_2   0.828769 0.496406 0.946425 0.385568
H23   H     H_    0.934860 0.500628 0.905396 0.051304
O27   O     O_2   0.863126 0.449606 0.009539 -0.510484
C52   C     C_2   0.232101 0.538793 0.090630 0.450980
H24   H     H_    0.232900 0.601558 0.052249 0.026862
O28   O     O_2   0.130234 0.539593 0.144543 -0.494879

loop_
_geom_bond_atom_site_label_1
_geom_bond_atom_site_label_2
_ccdc_geom_bond_type
O1    C5    A    
C12   C32   A    
C27   C31   A    
O13   V1    S    
O3    C7    A    
C40   C44   D    
O15   V3    S    
C41   C42   S    
C29   C34   A    
C45   H17   S    
O12   C1    A    
C31   C36   A    
C22   C26   A    
C4    C34   S    
C37   C50   S    
C32   C35   A    
O20   V1    S    
O9    C4    A    
C10   C14   A    
O10   C3    A    
O16   V4    S    
O4    C8    A    
O11   C2    A    
H15   C44   S    
O6    C2    A    
C52   H24   S    
H4    C19   S    
C14   C18   A    
O10   V2    S    
C10   C30   A    
C25   C33   A    
O16   C8    A    
C9    H5    S    
O2    C6    A    
C28   C36   A    
O14   V2    S    
C37   C41   D    
C12   C16   A    
O5    C1    A    
O4    V1    S    
O9    V1    S    
C30   C33   A    
O7    C3    A    
O11   V3    S    
O18   V3    S    
O8    C4    A    
C21   H9    S    
O12   V4    S    
O19   V2    S    
H1    C18   S    
C23   H11   S    
H3    C20   S    
H16   C43   S    
C49   O25   D    
C49   H21   S    
O5    V1    S    
C45   O21   D    
O7    V3    S    
C40   C51   S    
O8    V4    S    
C10   H6    S    
C47   H19   S    
C25   C29   A    
C19   C23   A    
C26   C34   A    
O1    V4    S    
O13   C5    A    
C28   C32   A    
C39   C52   S    
C27   C35   A    
O2    V3    S    
O3    V2    S    
O15   C7    A    
C24   H12   S    
C47   O23   D    
C38   C42   D    
C43   C44   S    
C1    C35   S    
C17   C21   A    
C11   C31   A    
C5    C39   S    
C38   C49   S    
C50   O26   D    
C3    C33   S    
C51   O27   D    
H2    C17   S    
C7    C37   S    
C48   O24   D    
C2    C36   S    
C8    C38   S    
O6    V2    S    
C46   O22   D    
C14   C46   S    
H14   C41   S    
H13   C42   S    
C26   C30   A    
O14   C6    A    
C11   H7    S    
C11   C15   A    
C13   C45   S    
C18   C22   A    
C22   H10   S    
C6    C40   S    
C39   C43   D    
C52   O28   D    
O17   V4    S    
C21   C25   A    
C50   H22   S    
C23   C27   A    
C9    C13   A    
C48   H20   S    
C15   C47   S    
C16   C48   S    
C16   C20   A    
C20   C24   A    
C46   H18   S    
C12   H8    S    
C51   H23   S    
C13   C17   A    
C15   C19   A    
C9    C29   A    
C24   C28   A    
