data_mof_unit_55626.cif
_audit_creation_date              2012-12-10T18:48:39-0500
_audit_creation_method            fapswitch 2.2
_symmetry_space_group_name_H-M    P1
_symmetry_Int_Tables_number       1
_space_group_crystal_system       triclinic
_cell_length_a                    15.098728
_cell_length_b                    15.076288
_cell_length_c                    9.816321
_cell_angle_alpha                 89.71311
_cell_angle_beta                  89.654189
_cell_angle_gamma                 89.922142
_cell_volume                      2234.44567516

loop_
_atom_site_label
_atom_site_type_symbol
_atom_type_description
_atom_site_fract_x
_atom_site_fract_y
_atom_site_fract_z
_atom_type_partial_charge
C1    C     C_R   0.119917 0.380317 0.499936 0.812640
C2    C     C_R   0.027268 0.426926 0.928276 -0.034904
C3    C     C_R   0.027345 0.426961 0.072251 -0.003123
C4    C     C_R   0.972016 0.572745 0.927839 -0.047376
C5    C     C_R   0.501966 0.077946 0.071413 -0.028647
C6    C     C_R   0.497692 0.922050 0.928565 -0.037143
C7    C     C_R   0.497700 0.922051 0.072642 -0.023414
C8    C     C_R   0.502125 0.077946 0.927352 -0.023360
C9    C     C_R   0.820240 0.247438 0.376982 -0.054338
C10   C     C_R   0.176920 0.755032 0.621453 0.009591
C11   C     C_R   0.187424 0.751266 0.372235 -0.079590
C12   C     C_R   0.879815 0.619318 0.500068 0.840731
C13   C     C_R   0.813456 0.248980 0.626745 -0.047724
C14   C     C_R   0.162038 0.226739 0.532969 -0.074805
C15   C     C_R   0.838732 0.773216 0.470290 -0.048383
C16   C     C_R   0.725769 0.660248 0.530087 -0.048636
C17   C     C_R   0.273772 0.339327 0.466423 -0.048081
C18   C     C_R   0.246007 0.822542 0.376970 -0.009877
C19   C     C_R   0.752405 0.179934 0.623536 -0.058865
C20   C     C_R   0.750427 0.187420 0.373635 -0.062484
C21   C     C_R   0.248005 0.813735 0.626648 -0.075922
C22   C     C_R   0.661347 0.726616 0.536996 -0.045698
C23   C     C_R   0.887096 0.372999 0.500717 0.831380
C24   C     C_R   0.340035 0.274790 0.473406 -0.050687
C25   C     C_R   0.226609 0.160866 0.526138 -0.042885
C26   C     C_R   0.772755 0.837674 0.463264 -0.074579
C27   C     C_R   0.159301 0.712072 0.496895 -0.159290
C28   C     C_R   0.839058 0.289531 0.502020 -0.225329
C29   C     C_R   0.813514 0.685469 0.500219 -0.192675
C30   C     C_R   0.186486 0.314245 0.499752 -0.199930
C31   C     C_R   0.710081 0.161494 0.498389 -0.223877
C32   C     C_R   0.287974 0.841081 0.502163 -0.157972
C33   C     C_R   0.314589 0.186568 0.499949 -0.190546
C34   C     C_R   0.112101 0.627711 0.499074 0.875796
C35   C     C_R   0.685827 0.813563 0.500019 -0.197730
C36   C     C_2   0.875924 0.263035 0.252837 0.549151
C37   C     C_2   0.116891 0.745798 0.741897 0.472305
C38   C     C_2   0.152288 0.722612 0.238215 0.425272
C39   C     C_2   0.851302 0.275566 0.759820 0.569727
C40   C     C_2   0.069411 0.205853 0.575329 0.555500
C41   C     C_2   0.934141 0.796381 0.451612 0.568600
C42   C     C_2   0.702652 0.564461 0.547248 0.503375
C43   C     C_2   0.293560 0.432410 0.423354 0.556453
C44   C     C_2   0.257273 0.880612 0.254248 0.474625
C45   C     C_R   0.619740 0.880129 0.499979 0.811028
C46   C     C_2   0.735315 0.125406 0.748506 0.549309
C47   C     C_2   0.722200 0.151783 0.240070 0.598372
C48   C     C_2   0.275775 0.849619 0.760791 0.402595
C49   C     C_2   0.568972 0.707242 0.583515 0.539117
C50   C     C_2   0.435842 0.298102 0.459347 0.496166
C51   C     C_2   0.203423 0.065123 0.541369 0.574955
C52   C     C_2   0.792964 0.929841 0.417210 0.577173
C53   C     C_R   0.380716 0.120226 0.500006 0.836689
C54   C     C_R   0.372326 0.887983 0.500775 0.874323
C55   C     C_R   0.626753 0.113279 0.499366 0.830073
C56   C     C_R   0.972274 0.572866 0.071736 -0.049954
H1    H     H_    0.950083 0.631143 0.125951 0.130792
H2    H     H_    0.142773 0.741619 0.844417 0.128620
H3    H     H_    0.081435 0.719688 0.221707 0.065881
H4    H     H_    0.830044 0.336724 0.807933 0.085655
H5    H     H_    0.014610 0.240760 0.529174 -0.004289
H6    H     H_    0.978735 0.750462 0.401951 -0.010826
H7    H     H_    0.749032 0.518773 0.594115 0.050621
H8    H     H_    0.257027 0.487355 0.467443 0.040403
H9    H     H_    0.260598 0.852876 0.152789 0.125858
H10   H     H_    0.730893 0.053755 0.740227 0.071296
H11   H     H_    0.663163 0.177674 0.191494 0.061532
H12   H     H_    0.048825 0.368419 0.874009 0.164537
H13   H     H_    0.281139 0.920642 0.775656 0.090640
H14   H     H_    0.513476 0.742948 0.539745 0.038718
H15   H     H_    0.481947 0.252210 0.412094 0.041163
H16   H     H_    0.248490 0.020144 0.591855 -0.008041
H17   H     H_    0.758599 0.985398 0.462515 -0.001240
H18   H     H_    0.049242 0.368575 0.126900 0.135751
H19   H     H_    0.948986 0.630684 0.873422 0.185174
H20   H     H_    0.503295 0.140188 0.125685 0.122973
H21   H     H_    0.495838 0.859820 0.874257 0.170491
H22   H     H_    0.495826 0.859815 0.127898 0.146150
H23   H     H_    0.503868 0.140187 0.872095 0.154664
H24   H     H_    0.947390 0.266652 0.262710 0.044693
N1    N     N_R   0.000000 0.500000 0.857200 -0.102341
N2    N     N_R   1.000000 0.500000 0.142800 -0.090183
N3    N     N_R   0.500000 0.000000 0.857200 -0.107725
N4    N     N_R   0.500000 0.000000 0.142800 -0.088377
O1    O     O_R   0.091610 0.408380 0.614620 -0.615899
O2    O     O_R   0.408390 0.091620 0.385380 -0.587333
O3    O     O_R   0.408390 0.091620 0.614620 -0.628231
O4    O     O_R   0.591610 0.908380 0.385380 -0.607685
O5    O     O_R   0.408390 0.908380 0.385380 -0.593451
O6    O     O_R   0.591610 0.091620 0.614620 -0.624348
O7    O     O_R   0.591610 0.091620 0.385380 -0.647959
O8    O     O_R   0.408390 0.908380 0.614620 -0.640609
O9    O     O_2   0.842938 0.274833 0.140899 -0.536097
O10   O     O_2   0.036691 0.746320 0.727001 -0.571128
O11   O     O_2   0.202476 0.699696 0.146934 -0.544304
O12   O     O_R   0.908390 0.591620 0.385380 -0.630855
O13   O     O_2   0.905348 0.228279 0.817007 -0.492875
O14   O     O_2   0.053966 0.151775 0.665340 -0.485227
O15   O     O_2   0.964380 0.865312 0.496591 -0.477668
O16   O     O_2   0.633207 0.534896 0.503530 -0.483140
O17   O     O_2   0.347998 0.448229 0.334031 -0.503055
O18   O     O_2   0.259579 0.961185 0.265678 -0.538771
O19   O     O_2   0.723056 0.159702 0.859498 -0.539674
O20   O     O_2   0.765628 0.094332 0.183370 -0.478594
O21   O     O_2   0.295377 0.799740 0.854261 -0.562178
O22   O     O_2   0.554417 0.654144 0.675248 -0.508222
O23   O     O_R   0.908390 0.591620 0.614620 -0.602037
O24   O     O_2   0.464876 0.367045 0.506013 -0.483674
O25   O     O_2   0.135542 0.035156 0.492777 -0.480251
O26   O     O_2   0.845819 0.944011 0.325058 -0.483674
O27   O     O_R   0.091610 0.408380 0.385380 -0.626823
O28   O     O_R   0.908390 0.408380 0.385380 -0.612665
O29   O     O_R   0.091610 0.591620 0.614620 -0.585453
O30   O     O_R   0.091610 0.591620 0.385380 -0.628776
O31   O     O_R   0.908390 0.408380 0.614620 -0.648544
O32   O     O_R   0.591610 0.908380 0.614620 -0.620712
Zn1   Zn    Zn3+2 0.000000 0.500000 0.653120 0.983329
Zn2   Zn    Zn3+2 0.000000 0.500000 0.346880 0.973321
Zn3   Zn    Zn3+2 0.500000 0.000000 0.653120 0.960036
Zn4   Zn    Zn3+2 0.500000 0.000000 0.346880 0.993514

loop_
_geom_bond_atom_site_label_1
_geom_bond_atom_site_label_2
_ccdc_geom_bond_type
C10   C27   A    
C11   C18   A    
C12   C29   S    
C8    N3    A    
C48   H13   S    
C19   C31   A    
C43   O17   D    
C19   C46   S    
C34   O29   A    
C54   O8    A    
C22   C35   A    
C10   C37   S    
O12   Zn2   S    
O8    Zn3   S    
C46   H10   S    
C55   O6    A    
C2    H12   S    
C40   O14   D    
C39   O13   D    
N3    Zn3   S    
N1    Zn1   S    
C56   H1    S    
C47   H11   S    
C3    H18   S    
C4    H19   S    
C55   O7    A    
C36   O9    D    
C4    N1    A    
O31   Zn1   S    
C38   O11   D    
C8    H23   S    
C41   O15   D    
C13   C28   A    
C53   O2    A    
C6    N3    A    
C52   O26   D    
O4    Zn4   S    
C37   H2    S    
C21   C48   S    
C7    N4    A    
C51   O25   D    
C4    C56   A    
C50   O24   D    
C17   C30   A    
C44   H9    S    
C41   H6    S    
C14   C30   A    
C32   C54   S    
C43   H8    S    
C15   C29   A    
C6    C7    A    
C27   C34   S    
C33   C53   S    
C21   C32   A    
C17   C24   A    
C13   C19   A    
C45   O4    A    
C15   C41   S    
C54   O5    A    
C52   H17   S    
C36   H24   S    
C5    N4    A    
C44   O18   D    
C15   C26   A    
C16   C29   A    
C23   O31   A    
C40   H5    S    
C11   C38   S    
C50   H15   S    
C25   C51   S    
O3    Zn3   S    
C26   C52   S    
C23   O28   A    
C42   O16   D    
C9    C36   S    
C9    C20   A    
C48   O21   D    
O5    Zn4   S    
C11   C27   A    
N4    Zn4   S    
C3    N2    A    
C53   O3    A    
C23   C28   S    
O1    Zn1   S    
C24   C50   S    
O30   Zn2   S    
C7    H22   S    
O29   Zn1   S    
C49   H14   S    
O27   Zn2   S    
C1    O1    A    
C18   C32   A    
C51   H16   S    
N2    Zn2   S    
C35   C45   S    
C16   C42   S    
C18   C44   S    
C22   C49   S    
C16   C22   A    
C47   O20   D    
C6    H21   S    
C10   C21   A    
C12   O23   A    
C56   N2    A    
C49   O22   D    
C34   O30   A    
C46   O19   D    
C24   C33   A    
O32   Zn3   S    
O6    Zn3   S    
C5    H20   S    
C2    C3    A    
C1    O27   A    
O28   Zn2   S    
C45   O32   A    
C39   H4    S    
C1    C30   S    
C37   O10   D    
C14   C25   A    
C13   C39   S    
C20   C47   S    
C14   C40   S    
C38   H3    S    
C26   C35   A    
C17   C43   S    
C5    C8    A    
O7    Zn4   S    
C12   O12   A    
C2    N1    A    
O2    Zn4   S    
C31   C55   S    
C42   H7    S    
O23   Zn1   S    
C9    C28   A    
C25   C33   A    
C20   C31   A    
