data_mof_unit_12554.cif
_audit_creation_date              2012-12-11T15:23:48-0500
_audit_creation_method            fapswitch 2.2
_symmetry_space_group_name_H-M    P1
_symmetry_Int_Tables_number       1
_space_group_crystal_system       triclinic
_cell_length_a                    17.369987
_cell_length_b                    24.343763
_cell_length_c                    14.937829
_cell_angle_alpha                 89.8651
_cell_angle_beta                  125.471698
_cell_angle_gamma                 90.198345
_cell_volume                      5144.11915386

loop_
_atom_site_label
_atom_site_type_symbol
_atom_type_description
_atom_site_fract_x
_atom_site_fract_y
_atom_site_fract_z
_atom_type_partial_charge
C1    C     C_R   0.354484 0.347058 0.911579 -0.132160
C2    C     C_R   0.643116 0.346809 0.089734 -0.116022
C3    C     C_R   0.857080 0.846441 0.911166 -0.128777
C4    C     C_R   0.145954 0.847469 0.089221 -0.120064
C5    C     C_R   0.315938 0.640028 0.001943 0.052962
C6    C     C_R   0.682784 0.644757 0.002029 0.053779
C7    C     C_R   0.825879 0.152485 0.999530 0.054202
C8    C     C_R   0.188255 0.135975 0.999783 0.051931
C9    C     C_R   0.566133 0.498650 0.367041 0.048785
C10   C     C_R   0.540213 0.498219 0.713645 0.040730
C11   C     C_R   0.957963 0.998030 0.284336 0.040577
C12   C     C_R   0.934717 0.998631 0.633277 0.046503
C13   C     C_R   0.174885 0.497481 0.686400 0.135951
C14   C     C_R   0.797319 0.498381 0.367789 0.136238
C15   C     C_R   0.674641 0.997699 0.690338 0.135567
C16   C     C_R   0.297304 0.998267 0.367828 0.136350
C17   C     C_2   0.921131 0.453416 0.535512 -0.114354
C18   C     C_2   0.022755 0.457021 0.619589 -0.114757
C19   C     C_2   0.420885 0.953181 0.535782 -0.115514
C20   C     C_2   0.522213 0.956814 0.621505 -0.115123
C21   C     C_2   0.871893 0.498939 0.484599 -0.193900
C22   C     C_2   0.073250 0.497156 0.614528 -0.196627
C23   C     C_2   0.371572 0.998700 0.484769 -0.193330
C24   C     C_2   0.573004 0.997627 0.619020 -0.194066
C25   C     C_R   0.158139 0.682228 0.906569 -0.227068
C26   C     C_R   0.842600 0.685481 0.099008 -0.226020
C27   C     C_R   0.665105 0.190625 0.903292 -0.226410
C28   C     C_R   0.345486 0.180163 0.096015 -0.226262
C29   C     C_R   0.603579 0.227811 0.901291 0.032538
C30   C     C_R   0.396658 0.225588 0.100180 0.027208
C31   C     C_R   0.105122 0.726300 0.902148 0.028329
C32   C     C_R   0.900200 0.726199 0.101313 0.031482
C33   C     C_R   0.635473 0.256736 0.999421 0.054314
C34   C     C_R   0.358263 0.257640 0.003307 0.065105
C35   C     C_R   0.142594 0.758275 0.998732 0.063164
C36   C     C_R   0.865976 0.755959 0.003028 0.057287
C37   C     C_R   0.713304 0.236567 0.099772 -0.185743
C38   C     C_R   0.282608 0.236214 0.902549 -0.196075
C39   C     C_R   0.219438 0.737785 0.099686 -0.191996
C40   C     C_R   0.790494 0.734146 0.902687 -0.191322
C41   C     C_R   0.269782 0.693620 0.102742 -0.161410
C42   C     C_R   0.736052 0.692658 0.901446 -0.160202
C43   C     C_R   0.772842 0.199311 0.100641 -0.161463
C44   C     C_R   0.235044 0.190226 0.899469 -0.162147
C45   C     C_R   0.403632 0.624552 0.092779 -0.131616
C46   C     C_R   0.592909 0.632470 0.910525 -0.130524
C47   C     C_R   0.912514 0.136107 0.090694 -0.134126
C48   C     C_R   0.098633 0.122889 0.908325 -0.129180
C49   C     C_R   0.245130 0.669950 0.004489 0.135161
C50   C     C_R   0.755688 0.673300 0.000719 0.135281
C51   C     C_R   0.753855 0.181190 0.001114 0.136704
C52   C     C_R   0.259747 0.166197 0.997715 0.135068
C53   C     C_R   0.602113 0.547272 0.622647 -0.167509
C54   C     C_R   0.609339 0.547463 0.535251 -0.169346
C55   C     C_R   0.891230 0.047222 0.464408 -0.170263
C56   C     C_R   0.896902 0.046955 0.375862 -0.167500
C57   C     C_R   0.599288 0.497979 0.481638 0.144582
C58   C     C_R   0.584120 0.497674 0.655196 0.146780
C59   C     C_R   0.914323 0.997380 0.343122 0.146645
C60   C     C_R   0.901809 0.997814 0.518738 0.142934
C61   C     C_R   0.603626 0.447968 0.531042 -0.171408
C62   C     C_R   0.595849 0.447815 0.617888 -0.169829
C63   C     C_R   0.903439 0.947531 0.381636 -0.169494
C64   C     C_R   0.897098 0.947744 0.469551 -0.172890
C65   C     C_R   0.548159 0.453228 0.302471 -0.127952
C66   C     C_R   0.515008 0.452672 0.746747 -0.125722
C67   C     C_R   0.984225 0.952570 0.252603 -0.125985
C68   C     C_R   0.952318 0.953221 0.697895 -0.126433
C69   C     C_R   0.230973 0.544009 0.721131 -0.146631
C70   C     C_R   0.752482 0.544411 0.305039 -0.160531
C71   C     C_R   0.730678 0.044202 0.724349 -0.142497
C72   C     C_R   0.252405 0.044341 0.305177 -0.163737
C73   C     C_R   0.549645 0.544619 0.303646 -0.137400
C74   C     C_R   0.508442 0.544288 0.737668 -0.123385
C75   C     C_R   0.989519 0.044241 0.259939 -0.119793
C76   C     C_R   0.950692 0.044619 0.696334 -0.140089
C77   C     C_R   0.232656 0.452054 0.731233 -0.121946
C78   C     C_R   0.751957 0.453022 0.302474 -0.109949
C79   C     C_R   0.732456 0.952158 0.733262 -0.123923
C80   C     C_R   0.251926 0.952960 0.302406 -0.109616
C81   C     C_R   0.313119 0.628146 0.909112 -0.125088
C82   C     C_R   0.688140 0.627315 0.093937 -0.132257
C83   C     C_R   0.818919 0.134361 0.907395 -0.129222
C84   C     C_R   0.190763 0.123428 0.092470 -0.128929
C85   C     C_R   0.441238 0.349047 0.094018 -0.131537
C86   C     C_R   0.553392 0.347218 0.907505 -0.144837
C87   C     C_R   0.945940 0.847463 0.093176 -0.146350
C88   C     C_R   0.058368 0.848911 0.906522 -0.130690
C89   C     C_R   0.383051 0.315645 0.003994 0.050443
C90   C     C_R   0.610163 0.314172 0.998178 0.054160
C91   C     C_R   0.889327 0.814039 0.003180 0.056758
C92   C     C_R   0.116840 0.815872 0.997117 0.047275
H1    H     H_    0.319595 0.332742 0.828166 0.090272
H2    H     H_    0.680059 0.333794 0.174233 0.084999
H3    H     H_    0.821310 0.832800 0.827228 0.086356
H4    H     H_    0.181896 0.833747 0.173187 0.088220
H5    H     H_    0.898605 0.538948 0.522799 0.135811
H6    H     H_    0.040216 0.530623 0.555811 0.134732
H7    H     H_    0.397530 0.038678 0.523421 0.135742
H8    H     H_    0.540307 0.031665 0.561710 0.133738
H9    H     H_    0.134021 0.659773 0.832057 0.119742
H10   H     H_    0.864086 0.665234 0.174733 0.117555
H11   H     H_    0.644380 0.170379 0.827936 0.117361
H12   H     H_    0.369844 0.158012 0.170977 0.119140
H13   H     H_    0.736462 0.254255 0.177724 0.108066
H14   H     H_    0.252203 0.257728 0.825932 0.109963
H15   H     H_    0.248872 0.759035 0.176283 0.110278
H16   H     H_    0.765260 0.752873 0.824820 0.108169
H17   H     H_    0.333793 0.682917 0.181230 0.106698
H18   H     H_    0.673872 0.680217 0.822706 0.102064
H19   H     H_    0.836884 0.188686 0.179170 0.102494
H20   H     H_    0.172347 0.178404 0.820682 0.106433
H21   H     H_    0.601500 0.586302 0.656640 0.104472
H22   H     H_    0.612853 0.586706 0.503822 0.105873
H23   H     H_    0.888175 0.086477 0.495825 0.106755
H24   H     H_    0.896906 0.085974 0.341140 0.105818
H25   H     H_    0.602409 0.408812 0.496339 0.108570
H26   H     H_    0.589380 0.408580 0.646942 0.108058
H27   H     H_    0.909569 0.908300 0.352635 0.108285
H28   H     H_    0.898822 0.908602 0.504887 0.109319
H29   H     H_    0.431388 0.628176 0.178407 0.093791
H30   H     H_    0.560322 0.646743 0.827975 0.082074
H31   H     H_    0.946998 0.149828 0.173948 0.081887
H32   H     H_    0.071084 0.126987 0.822827 0.093446
H33   H     H_    0.564934 0.410898 0.328462 0.091574
H34   H     H_    0.525510 0.409959 0.738063 0.095612
H35   H     H_    0.973955 0.909845 0.261950 0.095495
H36   H     H_    0.935817 0.910829 0.672241 0.092525
H37   H     H_    0.207745 0.585253 0.691116 0.090475
H38   H     H_    0.762046 0.585937 0.335579 0.092962
H39   H     H_    0.706971 0.085556 0.696044 0.089470
H40   H     H_    0.262019 0.085867 0.335751 0.095284
H41   H     H_    0.568524 0.586563 0.331743 0.083183
H42   H     H_    0.505098 0.585433 0.709694 0.083483
H43   H     H_    0.990909 0.085540 0.285643 0.082969
H44   H     H_    0.932040 0.086540 0.668022 0.085266
H45   H     H_    0.212573 0.409188 0.716214 0.091776
H46   H     H_    0.759860 0.410814 0.329093 0.081070
H47   H     H_    0.712220 0.909314 0.718457 0.091441
H48   H     H_    0.259808 0.910727 0.328889 0.083471
H49   H     H_    0.258649 0.639581 0.825847 0.087711
H50   H     H_    0.746106 0.631811 0.179449 0.094763
H51   H     H_    0.766005 0.145367 0.823293 0.085784
H52   H     H_    0.248796 0.128919 0.177702 0.095467
H53   H     H_    0.482161 0.339012 0.179951 0.120075
H54   H     H_    0.508440 0.335544 0.822450 0.117335
H55   H     H_    0.990644 0.836239 0.178428 0.117951
H56   H     H_    0.017187 0.838549 0.820733 0.119985
H57   H     H_    0.893062 0.412895 0.502225 0.115131
H58   H     H_    0.057372 0.423002 0.676664 0.123750
H59   H     H_    0.393323 0.912691 0.501784 0.115919
H60   H     H_    0.556613 0.922230 0.677064 0.123265
N1    N     N_R   0.395440 0.396300 0.944370 -0.038222
N2    N     N_R   0.604560 0.396300 0.055630 -0.039216
N3    N     N_R   0.895440 0.896300 0.944370 -0.037943
N4    N     N_R   0.104560 0.896300 0.055630 -0.039261
N5    N     N_R   0.449890 0.602500 0.055780 -0.041848
N6    N     N_R   0.550110 0.602500 0.944220 -0.039840
N7    N     N_R   0.949890 0.102500 0.055780 -0.038764
N8    N     N_R   0.050110 0.102500 0.944220 -0.042307
N9    N     N_R   0.525090 0.470990 0.205640 -0.038621
N10   N     N_R   0.474910 0.470990 0.794360 -0.040887
N11   N     N_R   0.025090 0.970990 0.205640 -0.040502
N12   N     N_R   0.974910 0.970990 0.794360 -0.039142
N13   N     N_R   0.320240 0.527820 0.794510 -0.041249
N14   N     N_R   0.679760 0.527820 0.205490 -0.039347
N15   N     N_R   0.820240 0.027820 0.794510 -0.040310
N16   N     N_R   0.179760 0.027820 0.205490 -0.040814
N17   N     N_R   0.524580 0.527810 0.205160 -0.037293
N18   N     N_R   0.475420 0.527810 0.794840 -0.039693
N19   N     N_R   0.024580 0.027810 0.205160 -0.038861
N20   N     N_R   0.975420 0.027810 0.794840 -0.038567
N21   N     N_R   0.320750 0.470990 0.794990 -0.044805
N22   N     N_R   0.679250 0.470990 0.205010 -0.043868
N23   N     N_R   0.820750 0.970990 0.794990 -0.044115
N24   N     N_R   0.179250 0.970990 0.205010 -0.044796
N25   N     N_R   0.393580 0.602500 0.942610 -0.040934
N26   N     N_R   0.606420 0.602500 0.057390 -0.040694
N27   N     N_R   0.893580 0.102500 0.942610 -0.039064
N28   N     N_R   0.106420 0.102500 0.057390 -0.041728
N29   N     N_R   0.451750 0.396300 0.057540 -0.040697
N30   N     N_R   0.548250 0.396300 0.942460 -0.040477
N31   N     N_R   0.951750 0.896300 0.057540 -0.039853
N32   N     N_R   0.048250 0.896300 0.942460 -0.041082
Ni1   Ni    Ni4+2 0.435420 0.434250 0.870220 0.213952
Ni2   Ni    Ni4+2 0.564580 0.434250 0.129780 0.209930
Ni3   Ni    Ni4+2 0.935420 0.934250 0.870220 0.211523
Ni4   Ni    Ni4+2 0.064580 0.934250 0.129780 0.212162
Ni5   Ni    Ni4+2 0.563400 0.564580 0.128670 0.209794
Ni6   Ni    Ni4+2 0.436600 0.564580 0.871330 0.215461
Ni7   Ni    Ni4+2 0.063400 0.064580 0.128670 0.212604
Ni8   Ni    Ni4+2 0.936600 0.064580 0.871330 0.212347
C93   C     C_R   0.509171 0.235346 0.796371 0.112098
C94   C     C_R   0.500606 0.245144 0.698002 -0.182207
C95   C     C_R   0.411485 0.251477 0.598910 -0.114642
C96   C     C_R   0.330244 0.247638 0.596854 -0.089858
C97   C     C_R   0.338008 0.237607 0.693917 -0.123310
C98   C     C_R   0.427085 0.231698 0.793590 -0.148063
H61   H     H_    0.562918 0.248518 0.698242 0.107017
H62   H     H_    0.405430 0.259257 0.523677 0.103700
H63   H     H_    0.261220 0.252279 0.519971 0.098645
H64   H     H_    0.274736 0.234108 0.691365 0.102296
H65   H     H_    0.432236 0.223771 0.868239 0.122801
C99   C     C_R   0.486263 0.238489 0.207191 0.112421
C100  C     C_R   0.486896 0.247789 0.300546 -0.171122
C101  C     C_R   0.571379 0.260582 0.401423 -0.122365
C102  C     C_R   0.655838 0.263618 0.410180 -0.098133
C103  C     C_R   0.656015 0.253666 0.318202 -0.128204
C104  C     C_R   0.571577 0.241053 0.216888 -0.151553
H66   H     H_    0.421811 0.245939 0.294728 0.109588
H67   H     H_    0.571332 0.268217 0.472757 0.102723
H68   H     H_    0.721213 0.273547 0.488320 0.098660
H69   H     H_    0.721750 0.255778 0.325794 0.096251
H70   H     H_    0.572261 0.233515 0.146002 0.119371
C105  C     C_R   0.014737 0.737976 0.795142 0.112363
C106  C     C_R   0.013083 0.747140 0.700985 -0.172431
C107  C     C_R   0.927786 0.758243 0.599871 -0.124896
C108  C     C_R   0.843521 0.759726 0.591668 -0.096259
C109  C     C_R   0.844397 0.750006 0.684488 -0.124685
C110  C     C_R   0.929673 0.739128 0.786074 -0.152502
H71   H     H_    0.077963 0.746384 0.706276 0.109418
H72   H     H_    0.927036 0.765706 0.527897 0.103198
H73   H     H_    0.777480 0.768262 0.513303 0.099825
H74   H     H_    0.778783 0.750869 0.677251 0.097124
H75   H     H_    0.929800 0.731639 0.857570 0.121348
C111  C     C_R   0.992787 0.736477 0.206992 0.112817
C112  C     C_R   0.998316 0.746126 0.303462 -0.181444
C113  C     C_R   0.085766 0.755744 0.403111 -0.113386
C114  C     C_R   0.168336 0.755368 0.407575 -0.089746
C115  C     C_R   0.163598 0.745360 0.312424 -0.127044
C116  C     C_R   0.076194 0.736011 0.212269 -0.149289
H76   H     H_    0.934861 0.746950 0.301191 0.107645
H77   H     H_    0.089491 0.763487 0.476871 0.103401
H78   H     H_    0.236052 0.762708 0.484838 0.097756
H79   H     H_    0.227884 0.744723 0.316735 0.100130
H80   H     H_    0.073297 0.728269 0.139042 0.122412

loop_
_geom_bond_atom_site_label_1
_geom_bond_atom_site_label_2
_ccdc_geom_bond_type
C25   C31   A    
C23   H7    S    
C55   C56   A    
C26   C32   A    
C103  H69   S    
C6    C82   A    
C81   N25   A    
C87   C91   A    
C27   C29   A    
C14   C70   A    
C7    C83   A    
C19   C20   S    
C16   C72   A    
N17   Ni5   S    
C82   H50   S    
N12   Ni3   S    
C43   C51   A    
N4    N32   A    
C108  H73   S    
C39   C41   A    
C47   N7    A    
C100  C101  A    
N20   Ni8   S    
C38   C44   A    
N15   Ni8   S    
C12   C68   A    
C74   H42   S    
N21   Ni1   S    
N9    Ni2   S    
N16   Ni7   S    
C43   H19   S    
C22   H6    S    
C32   C36   A    
C14   C21   S    
C10   C58   S    
C85   H53   S    
C67   H35   S    
C26   C50   A    
C87   N31   A    
N3    N31   A    
C88   N32   A    
C31   C105  S    
C84   H52   S    
N13   N21   A    
C93   C98   A    
C46   N6    A    
C29   C33   A    
C70   H38   S    
C5    C81   A    
N2    Ni2   S    
C3    C91   A    
C27   H11   S    
C114  H78   S    
C76   N20   A    
C13   C69   A    
C20   C24   D    
C106  H71   S    
N8    N28   A    
C53   H21   S    
C109  H74   S    
C4    H4    S    
C101  H67   S    
C15   C79   A    
N27   Ni8   S    
C88   C92   A    
C11   C67   A    
C103  C104  A    
C25   C49   A    
C99   C104  A    
C110  H75   S    
C19   H59   S    
N24   Ni4   S    
C116  H80   S    
N11   N19   A    
C68   H36   S    
C61   C62   A    
C40   H16   S    
N9    N17   A    
C35   C92   S    
C44   C52   A    
C40   C42   A    
C94   C95   A    
C2    N2    A    
C8    C84   A    
C55   C60   A    
C72   N16   A    
C5    C49   S    
C115  C116  A    
C9    C73   A    
C11   C59   S    
C78   H46   S    
C62   H26   S    
C41   C49   A    
C113  C114  A    
N1    Ni1   S    
C27   C51   A    
C72   H40   S    
N5    Ni5   S    
N4    Ni4   S    
C88   H56   S    
N2    N30   A    
C13   C77   A    
N14   N22   A    
N1    N29   A    
C30   C34   A    
C61   H25   S    
C102  C103  A    
N7    Ni7   S    
C2    H2    S    
C45   N5    A    
C106  C107  A    
C80   N24   A    
C79   H47   S    
C86   C90   A    
C77   N21   A    
C109  C110  A    
N3    Ni3   S    
N26   Ni5   S    
C85   C89   A    
C101  C102  A    
C34   C38   A    
C85   N29   A    
C95   C96   A    
C41   H17   S    
C45   H29   S    
C107  C108  A    
C80   H48   S    
C5    C45   A    
C1    H1    S    
C33   C37   A    
C66   H34   S    
N11   Ni4   S    
C16   C80   A    
N30   Ni1   S    
C65   H33   S    
C38   H14   S    
C35   C39   A    
C105  C106  A    
C8    C48   A    
C37   H13   S    
C114  C115  A    
C76   H44   S    
C79   N23   A    
N10   Ni1   S    
C21   H5    S    
C84   N28   A    
C28   H12   S    
C47   H31   S    
C112  C113  A    
N10   N18   A    
C36   C40   A    
C53   C58   A    
C82   N26   A    
C9    C65   A    
C3    N3    A    
C17   C18   S    
C56   H24   S    
N19   Ni7   S    
C97   H64   S    
N5    N25   A    
C6    C50   S    
C1    N1    A    
N8    Ni8   S    
C113  H77   S    
C87   H55   S    
C58   C62   A    
C42   C50   A    
C44   H20   S    
C36   C91   S    
C69   H37   S    
C15   C24   S    
C4    N4    A    
C32   C111  S    
C93   C94   A    
C16   C23   S    
C77   H45   S    
C12   C76   A    
C75   N19   A    
C102  H68   S    
C31   C35   A    
C37   C43   A    
N12   N20   A    
C66   N10   A    
C24   H8    S    
C73   N17   A    
C86   H54   S    
C15   C71   A    
C19   C23   D    
N15   N23   A    
C95   H62   S    
C107  H72   S    
N16   N24   A    
C8    C52   S    
C1    C89   A    
N25   Ni6   S    
C6    C46   A    
C18   C22   D    
C33   C90   S    
C17   H57   S    
N7    N27   A    
C96   C97   A    
N28   Ni7   S    
C48   H32   S    
C115  H79   S    
N29   Ni2   S    
C56   C59   A    
C53   C54   A    
C28   C52   A    
C30   C99   S    
N18   Ni6   S    
C59   C63   A    
C104  H70   S    
C64   H28   S    
N32   Ni3   S    
C83   N27   A    
C57   C61   A    
C60   C64   A    
N14   Ni5   S    
C48   N8    A    
N23   Ni3   S    
N6    Ni6   S    
C42   H18   S    
C34   C89   S    
C10   C66   A    
C28   C30   A    
C11   C75   A    
N31   Ni4   S    
C26   H10   S    
C83   H51   S    
C10   C74   A    
C25   H9    S    
C108  C109  A    
C75   H43   S    
C55   H23   S    
C100  H66   S    
C29   C93   S    
C54   H22   S    
C71   N15   A    
C81   H49   S    
C68   N12   A    
C13   C22   S    
C112  H76   S    
C9    C57   S    
C14   C78   A    
N6    N26   A    
C97   C98   A    
C39   H15   S    
C69   N13   A    
C74   N18   A    
C70   N14   A    
N13   Ni6   S    
C7    C51   S    
C63   C64   A    
C12   C60   S    
C94   H61   S    
C67   N11   A    
C20   H60   S    
C99   C100  A    
C71   H39   S    
C2    C90   A    
C111  C112  A    
C73   H41   S    
C65   N9    A    
C98   H65   S    
C86   N30   A    
C63   H27   S    
C78   N22   A    
C46   H30   S    
C3    H3    S    
C96   H63   S    
C105  C110  A    
C54   C57   A    
N22   Ni2   S    
C111  C116  A    
C7    C47   A    
C4    C92   A    
C18   H58   S    
C17   C21   D    
