data_mof_unit_25490.cif
_audit_creation_date              2012-12-10T18:06:47-0500
_audit_creation_method            fapswitch 2.2
_symmetry_space_group_name_H-M    P1
_symmetry_Int_Tables_number       1
_space_group_crystal_system       triclinic
_cell_length_a                    12.602348
_cell_length_b                    13.133724
_cell_length_c                    15.466734
_cell_angle_alpha                 83.127444
_cell_angle_beta                  99.128266
_cell_angle_gamma                 96.758791
_cell_volume                      2496.65190394

loop_
_atom_site_label
_atom_site_type_symbol
_atom_type_description
_atom_site_fract_x
_atom_site_fract_y
_atom_site_fract_z
_atom_type_partial_charge
C1    C     C_R   0.442005 0.308678 0.506688 0.860877
C2    C     C_R   0.627775 0.382871 0.938601 0.159612
C3    C     C_R   0.533780 0.431050 0.902203 0.094785
C4    C     C_R   0.434215 0.510301 0.336262 0.855222
C5    C     C_R   0.704056 0.369851 0.885200 -0.243751
C6    C     C_R   0.688431 0.404450 0.795499 -0.003363
C7    C     C_R   0.523569 0.472446 0.814365 -0.269969
C8    C     C_R   0.644563 0.943798 0.369799 -0.197253
C9    C     C_R   0.582482 0.801346 0.469275 -0.051864
C10   C     C_R   0.329174 0.158476 0.565936 -0.232707
C11   C     C_R   0.307058 0.052357 0.582846 0.064530
C12   C     C_R   0.415440 0.455131 0.102154 0.095808
C13   C     C_R   0.365950 0.986881 0.549150 -0.236423
C14   C     C_R   0.444291 0.027268 0.494221 0.070513
C15   C     C_R   0.452758 0.133307 0.465887 0.094527
C16   C     C_R   0.556004 0.691633 0.489037 0.863425
C17   C     C_R   0.514421 0.965883 0.466247 0.093246
C18   C     C_R   0.577795 0.006377 0.399474 0.179689
C19   C     C_R   0.571911 0.107925 0.362421 -0.252597
C20   C     C_R   0.510014 0.170831 0.395218 -0.197227
C21   C     C_R   0.524737 0.865593 0.504424 -0.246521
C22   C     C_R   0.645368 0.840565 0.403559 -0.187951
C23   C     C_R   0.314413 0.490538 0.065156 0.173741
C24   C     C_R   0.404515 0.199233 0.509840 -0.133327
C25   C     C_R   0.140674 0.642908 0.622202 -0.292940
C26   C     C_R   0.757353 0.380557 0.395783 0.036387
C27   C     C_R   0.852620 0.355172 0.373950 -0.248768
C28   C     C_R   0.564178 0.483762 0.664382 0.860587
C29   C     C_R   0.950394 0.400618 0.413920 -0.179891
C30   C     C_R   0.952725 0.472324 0.476017 0.017819
C31   C     C_R   0.853443 0.495270 0.495726 0.221408
C32   C     C_R   0.048876 0.521940 0.518836 -0.025147
C33   C     C_R   0.044489 0.593872 0.580308 0.131049
C34   C     C_R   0.481380 0.420866 0.047829 0.072377
C35   C     C_R   0.944289 0.615048 0.598313 -0.059979
C36   C     C_R   0.850694 0.565829 0.556035 -0.241140
C37   C     C_R   0.150270 0.502895 0.502860 -0.038258
C38   C     C_R   0.238074 0.620430 0.603093 0.006483
C39   C     C_R   0.390275 0.503534 0.243666 -0.056052
C40   C     C_R   0.596414 0.456312 0.759364 -0.110469
C41   C     C_R   0.249614 0.525754 0.118896 -0.201599
C42   C     C_R   0.287380 0.532129 0.208002 -0.192269
C43   C     C_R   0.452180 0.463787 0.191139 -0.271546
C44   C     C_1   0.227555 0.010463 0.638444 0.149988
C45   C     C_R   0.455138 0.441311 0.955658 0.072001
C46   C     C_1   0.934362 0.686802 0.660032 0.159764
C47   C     C_1   0.767165 0.383251 0.743358 0.202996
C48   C     C_R   0.351492 0.471498 0.920239 -0.227414
C49   C     C_R   0.281296 0.493488 0.974695 -0.232070
C50   C     C_R   0.573735 0.369109 0.082427 -0.229127
C51   C     C_R   0.644794 0.348969 0.028059 -0.223509
H1    H     H_    0.690235 0.790623 0.375410 0.160994
H2    H     H_    0.680791 0.346415 0.364685 0.120795
H3    H     H_    0.021858 0.378171 0.394436 0.136316
H4    H     H_    0.850745 0.300783 0.326229 0.144228
H5    H     H_    0.776250 0.583722 0.571894 0.217552
H6    H     H_    0.715085 0.309688 0.056665 0.143777
H7    H     H_    0.237313 0.561319 0.248317 0.160957
H8    H     H_    0.531881 0.444593 0.219803 0.156440
H9    H     H_    0.591425 0.341048 0.151151 0.136216
H10   H     H_    0.203114 0.517791 0.945474 0.152377
H11   H     H_    0.775262 0.331492 0.913291 0.141069
H12   H     H_    0.692434 0.973517 0.318260 0.138555
H13   H     H_    0.616633 0.139308 0.309248 0.137402
H14   H     H_    0.162287 0.450185 0.458020 0.123743
H15   H     H_    0.171378 0.551204 0.091502 0.140557
H16   H     H_    0.321899 0.476634 0.850573 0.154417
H17   H     H_    0.484934 0.833801 0.559956 0.143265
H18   H     H_    0.289741 0.209087 0.598323 0.167956
H19   H     H_    0.346873 0.905030 0.564619 0.135833
H20   H     H_    0.506028 0.248750 0.363932 0.150548
H21   H     H_    0.313192 0.657397 0.634540 0.129375
H22   H     H_    0.458755 0.519043 0.787638 0.163220
H23   H     H_    0.141346 0.698026 0.669086 0.162279
N1    N     N_R   0.239390 0.551900 0.544730 -0.102353
N2    N     N_R   0.759950 0.448600 0.455730 -0.123585
N3    N     N_1   0.163665 0.976709 0.683028 -0.192020
N4    N     N_1   0.926273 0.744136 0.709345 -0.192684
N5    N     N_1   0.830509 0.365718 0.702019 -0.191692
O1    O     O_R   0.374950 0.371210 0.521360 -0.614110
O2    O     O_R   0.542050 0.338030 0.492790 -0.606441
O3    O     O_R   0.368720 0.526070 0.390200 -0.614334
O4    O     O_R   0.535820 0.492890 0.361630 -0.628389
O5    O     O_R   0.457950 0.661970 0.507210 -0.609877
O6    O     O_R   0.625050 0.628790 0.478640 -0.635551
O7    O     O_R   0.464180 0.507110 0.638370 -0.614980
O8    O     O_R   0.631280 0.473930 0.609800 -0.621150
Zn1   Zn    Zn3+2 0.388420 0.522150 0.519080 0.938639
Zn2   Zn    Zn3+2 0.611580 0.477850 0.480920 0.936956

loop_
_geom_bond_atom_site_label_1
_geom_bond_atom_site_label_2
_ccdc_geom_bond_type
C27   C29   A    
C41   C42   A    
C19   C20   A    
C47   N5    T    
C42   H7    S    
C7    H22   S    
C12   C23   A    
C26   C27   A    
C44   N3    T    
C9    C16   S    
C18   C19   A    
C12   C43   A    
C3    C7    A    
C5    C6    A    
C27   H4    S    
C9    C22   A    
C23   C49   A    
C29   H3    S    
C28   C40   S    
C1    O2    A    
C16   O5    A    
C25   H23   S    
C35   C36   A    
C37   H14   S    
C26   N2    A    
C7    C40   A    
C20   H20   S    
C51   H6    S    
C43   H8    S    
N2    Zn2   S    
O2    Zn2   S    
C37   N1    A    
C13   C14   A    
C14   C17   A    
C17   C18   A    
C39   C42   A    
C38   N1    A    
C15   C20   A    
O4    Zn2   S    
C38   H21   S    
C34   C50   A    
C49   H10   S    
C6    C47   S    
C10   C11   A    
C46   N4    T    
O6    Zn2   S    
C39   C43   A    
C10   C24   A    
C3    C45   A    
C8    C18   A    
C29   C30   A    
C36   H5    S    
C25   C38   A    
C8    C22   A    
C4    C39   S    
C19   H13   S    
C28   O8    A    
C50   C51   A    
C11   C44   S    
C34   C45   A    
C32   C37   A    
C15   C24   A    
O8    Zn2   S    
C21   H17   S    
C28   O7    A    
C16   O6    A    
C6    C40   A    
C2    C5    A    
C12   C34   A    
C26   H2    S    
C22   H1    S    
C45   C48   A    
C48   C49   A    
C14   C15   A    
O5    Zn1   S    
C41   H15   S    
C23   C41   A    
C50   H9    S    
C32   C33   A    
C2    C3    A    
O1    Zn1   S    
C30   C32   A    
C11   C13   A    
C9    C21   A    
C31   N2    A    
C30   C31   A    
C4    O4    A    
O3    Zn1   S    
C33   C35   A    
C5    H11   S    
O7    Zn1   S    
C48   H16   S    
C17   C21   A    
C2    C51   A    
C8    H12   S    
C10   H18   S    
N1    Zn1   S    
C4    O3    A    
C1    C24   S    
C13   H19   S    
C1    O1    A    
C31   C36   A    
C35   C46   S    
C25   C33   A    
