data_mof_unit_9730.cif
_audit_creation_date              2012-12-10T17:35:45-0500
_audit_creation_method            fapswitch 2.2
_symmetry_space_group_name_H-M    P1
_symmetry_Int_Tables_number       1
_space_group_crystal_system       triclinic
_cell_length_a                    10.596081
_cell_length_b                    12.098761
_cell_length_c                    12.86817
_cell_angle_alpha                 93.405994
_cell_angle_beta                  91.74263
_cell_angle_gamma                 85.078225
_cell_volume                      1640.17479694

loop_
_atom_site_label
_atom_site_type_symbol
_atom_type_description
_atom_site_fract_x
_atom_site_fract_y
_atom_site_fract_z
_atom_type_partial_charge
C1    C     C_R   0.499232 0.522254 0.700284 0.928400
C2    C     C_R   0.500768 0.477746 0.299716 0.928400
C3    C     C_R   0.466356 0.448766 0.866622 -0.279350
C4    C     C_R   0.533644 0.551234 0.133378 -0.279350
C5    C     C_R   0.477293 0.452830 0.973407 0.126350
C6    C     C_R   0.522707 0.547170 0.026593 0.126349
C7    C     C_R   0.390044 0.959018 0.396685 -0.267879
C8    C     C_R   0.609956 0.040982 0.603315 -0.267881
C9    C     C_R   0.392377 0.844076 0.409382 0.547087
C10   C     C_R   0.607623 0.155924 0.590618 0.547084
C11   C     C_R   0.546655 0.857470 0.545638 0.016121
C12   C     C_R   0.453345 0.142530 0.454362 0.016120
C13   C     C_R   0.538665 0.974520 0.538192 -0.012479
C14   C     C_R   0.461335 0.025480 0.461808 -0.012480
C15   C     C_R   0.742524 0.500368 0.505513 0.953112
C16   C     C_R   0.257476 0.499632 0.494487 0.953114
C17   C     C_3   0.972441 0.427530 0.570538 -0.201863
C18   C     C_3   0.027559 0.572470 0.429462 -0.201863
C19   C     C_3   0.050083 0.529492 0.593547 -0.337039
C20   C     C_3   0.949917 0.470508 0.406453 -0.337042
C21   C     C_3   0.122332 0.499043 0.493040 -0.184146
C22   C     C_3   0.877668 0.500957 0.506960 -0.184144
C23   C     C_3   0.046092 0.398330 0.470190 0.571419
C24   C     C_3   0.953908 0.601670 0.529810 0.571416
C25   C     C_R   0.497613 0.463487 0.188061 -0.087550
C26   C     C_R   0.502387 0.536513 0.811939 -0.087548
C27   C     C_R   0.556021 0.636595 0.972562 -0.277874
C28   C     C_R   0.443979 0.363405 0.027438 -0.277875
C29   C     C_R   0.546517 0.632108 0.864043 0.465499
C30   C     C_R   0.453483 0.367892 0.135957 0.465498
H1    H     H_    0.093813 0.554862 0.669837 0.199590
H2    H     H_    0.906187 0.445138 0.330163 0.199586
H3    H     H_    0.952899 0.371764 0.632142 0.238934
H4    H     H_    0.047101 0.628236 0.367858 0.238934
H5    H     H_    0.569111 0.623847 0.174193 0.185632
H6    H     H_    0.430889 0.376153 0.825807 0.185632
H7    H     H_    0.590538 0.708837 0.014536 0.150716
H8    H     H_    0.409462 0.291162 0.985464 0.150715
H9    H     H_    0.393436 0.181135 0.395219 0.226320
H10   H     H_    0.606564 0.818865 0.604781 0.226319
H11   H     H_    0.325130 0.998951 0.341135 0.227464
H12   H     H_    0.674870 0.001049 0.658865 0.227466
N1    N     N_R   0.523490 0.207800 0.519350 -0.174365
N2    N     N_R   0.476510 0.792200 0.480650 -0.174365
O1    O     O_R   0.506270 0.421700 0.658830 -0.606065
O2    O     O_R   0.493730 0.578300 0.341170 -0.606063
O3    O     O_R   0.491200 0.609310 0.646410 -0.578189
O4    O     O_R   0.508800 0.390690 0.353590 -0.578188
O5    O     O_R   0.693580 0.406210 0.506230 -0.548457
O6    O     O_R   0.306420 0.593790 0.493770 -0.548457
O7    O     O_R   0.678510 0.593830 0.493810 -0.604638
O8    O     O_R   0.321490 0.406170 0.506190 -0.604638
Zn1   Zn    Zn3+2 0.510060 0.374730 0.508290 1.075483
Zn2   Zn    Zn3+2 0.489940 0.625270 0.491710 1.075484
S1    S     S_3+6 0.101775 0.262364 0.422207 0.051332
O9    O     O_2   0.187400 0.271797 0.332840 -0.309139
O10   O     O_2   0.172492 0.202203 0.507844 -0.307545
O11   O     O_3   0.978274 0.192172 0.379768 -0.487089
H13   H     H_    0.015807 0.116571 0.358965 0.399097
S2    S     S_3+6 0.898225 0.737636 0.577793 0.051337
O12   O     O_2   0.827508 0.797796 0.492155 -0.307571
O13   O     O_2   0.812600 0.728205 0.667160 -0.309104
O14   O     O_3   0.021726 0.807828 0.620232 -0.487094
H14   H     H_    0.984205 0.883451 0.640969 0.399114
O15   O     O_3   0.417084 0.282381 0.191852 -0.721909
H15   H     H_    0.388097 0.222798 0.142865 0.345189
O16   O     O_3   0.582916 0.717619 0.808148 -0.721909
H16   H     H_    0.611902 0.777202 0.857135 0.345191
S3    S     S_3+6 0.743483 0.214650 0.646640 0.033197
O17   O     O_2   0.835110 0.217177 0.560430 -0.264621
O18   O     O_2   0.718323 0.328669 0.697260 -0.309782
O19   O     O_3   0.812135 0.133052 0.737549 -0.571306
H17   H     H_    0.897890 0.158754 0.749909 0.390344
S4    S     S_3+6 0.256517 0.785350 0.353360 0.033196
O20   O     O_2   0.281677 0.671330 0.302740 -0.309782
O21   O     O_2   0.164889 0.782824 0.439569 -0.264635
O22   O     O_3   0.187867 0.866947 0.262449 -0.571316
H18   H     H_    0.102115 0.841241 0.250085 0.390346

loop_
_geom_bond_atom_site_label_1
_geom_bond_atom_site_label_2
_ccdc_geom_bond_type
S1    O9    D    
C16   C21   S    
C27   C29   A    
C18   C21   S    
C19   H1    S    
C4    C25   A    
O22   H18   S    
C2    O2    A    
C17   C23   S    
S4    O21   D    
S2    O14   S    
C18   C24   S    
C19   C21   S    
C16   O6    A    
C12   N1    A    
C5    C6    A    
S2    O13   D    
S3    O18   D    
C29   O16   S    
N1    Zn1   S    
C15   C22   S    
S4    O22   S    
C15   O7    A    
C7    H11   S    
C4    H5    S    
O1    Zn1   S    
C13   C14   A    
S3    O17   D    
C17   H3    S    
C7    C14   A    
O4    Zn1   S    
S4    O20   D    
O16   H16   S    
C4    C6    A    
C1    O3    A    
C2    O4    A    
O11   H13   S    
S2    O12   D    
S3    O19   S    
C10   S3    S    
C5    C28   A    
C6    C27   A    
C20   C23   S    
C28   H8    S    
C24   S2    S    
O2    Zn2   S    
C11   N2    A    
S1    O10   D    
O6    Zn2   S    
C18   H4    S    
O3    Zn2   S    
C12   C14   A    
C21   C23   S    
C1    C26   S    
C22   C24   S    
C9    S4    S    
C20   C22   S    
O8    Zn1   S    
C20   H2    S    
C25   C30   A    
C7    C9    A    
C9    N2    A    
C10   N1    A    
C3    C26   A    
C16   O8    A    
C8    H12   S    
O19   H17   S    
C3    C5    A    
C23   S1    S    
C17   C22   S    
O7    Zn2   S    
C12   H9    S    
C28   C30   A    
C19   C24   S    
C11   C13   A    
C1    O1    A    
C3    H6    S    
C27   H7    S    
O5    Zn1   S    
C17   C19   S    
C2    C25   S    
C18   C20   S    
C15   O5    A    
C11   H10   S    
C30   O15   S    
O14   H14   S    
C8    C13   A    
N2    Zn2   S    
C26   C29   A    
C8    C10   A    
O15   H15   S    
S1    O11   S    
