data_mof_unit_51484.cif
_audit_creation_date              2013-03-05T15:53:45-0500
_audit_creation_method            fapswitch 2.2
_symmetry_space_group_name_H-M    P1
_symmetry_Int_Tables_number       1
_space_group_crystal_system       triclinic
_cell_length_a                    10.64843
_cell_length_b                    10.707819
_cell_length_c                    9.926657
_cell_angle_alpha                 90.364247
_cell_angle_beta                  90.436992
_cell_angle_gamma                 92.088038
_cell_volume                      1131.04257964

loop_
_atom_site_label
_atom_site_type_symbol
_atom_site_description
_atom_site_fract_x
_atom_site_fract_y
_atom_site_fract_z
_atom_type_partial_charge
O1    O     O_R   0.500000 0.316780 0.614690 -0.661688
O2    O     O_R   0.499990 0.316750 0.385360 -0.643370
C1    C     C_R   0.510050 0.260389 0.500535 0.840368
O3    O     O_R   0.314800 0.499990 0.614670 -0.613251
O4    O     O_R   0.314790 0.499970 0.385330 -0.645402
C2    C     C_R   0.257689 0.497883 0.499703 0.839888
Zn1   Zn    Zn3+2 0.500010 0.500020 0.653130 1.011704
Zn2   Zn    Zn3+2 0.499990 0.499980 0.346870 0.937077
O5    O     O_R   0.500010 0.683250 0.614640 -0.547516
O6    O     O_R   0.500000 0.683220 0.385310 -0.629924
O7    O     O_R   0.685210 0.500030 0.614670 -0.582628
O8    O     O_R   0.685200 0.500010 0.385330 -0.631519
C3    C     C_R   0.486952 0.739025 0.500792 0.935294
C4    C     C_R   0.742103 0.498474 0.500484 0.851612
C5    C     C_3   0.072301 0.498468 0.646884 -0.360812
H1    H     H_    0.110040 0.582770 0.701605 0.259346
H2    H     H_    0.103811 0.415063 0.702565 0.167753
C6    C     C_3   0.929989 0.498533 0.647683 -0.382989
H3    H     H_    0.892792 0.415490 0.703766 0.174287
H4    H     H_    0.901027 0.583616 0.701956 0.239672
H5    H     H_    0.115651 0.699578 0.465877 0.221079
H6    H     H_    0.902388 0.700336 0.479539 0.189106
C7    C     C_3   0.074925 0.611554 0.422300 -0.371412
C8    C     C_3   0.067001 0.376148 0.429320 -0.426441
C9    C     C_3   0.120997 0.496242 0.499600 0.163275
H7    H     H_    0.100996 0.370511 0.323781 0.181846
H8    H     H_    0.098882 0.291872 0.483023 0.160452
C10   C     C_3   0.878516 0.496907 0.501055 0.150670
C11   C     C_3   0.931269 0.613999 0.426798 -0.397495
C12   C     C_3   0.922358 0.377251 0.428804 -0.390891
H9    H     H_    0.883623 0.292462 0.480498 0.158865
H10   H     H_    0.887255 0.373900 0.322870 0.187373
H11   H     H_    0.105434 0.607680 0.315350 0.188733
H12   H     H_    0.893589 0.616980 0.321964 0.188080
H13   H     H_    0.505458 0.109940 0.285043 0.172303
C13   C     C_R   0.558478 0.114048 0.751364 -0.158421
H14   H     H_    0.618414 0.197708 0.756083 0.165026
C14   C     C_R   0.523940 0.058808 0.872663 -0.150844
H15   H     H_    0.552210 0.102540 0.967307 0.155230
C15   C     C_R   0.446211 0.951801 0.871760 -0.130490
H16   H     H_    0.410227 0.916299 0.966360 0.171488
C16   C     C_R   0.415755 0.890555 0.749814 0.360262
C17   C     C_R   0.465434 0.939206 0.626850 -0.002130
C18   C     C_R   0.516120 0.061318 0.627235 0.048939
C19   C     C_R   0.518047 0.126459 0.503247 -0.095591
C20   C     C_R   0.502407 0.062316 0.381047 -0.215233
H17   H     H_    0.482178 0.886397 0.285015 0.181883
C21   C     C_R   0.483815 0.935169 0.381050 -0.205523
C22   C     C_R   0.469838 0.872096 0.503237 -0.086836
H18   H     H_    0.627541 0.650192 0.132821 0.190043
C23   C     C_R   0.340335 0.330666 0.137505 -0.155449
H19   H     H_    0.331972 0.328521 0.244273 0.201322
C24   C     C_R   0.262311 0.246248 0.066359 -0.209273
H20   H     H_    0.200205 0.181865 0.119941 0.155880
C25   C     C_R   0.262142 0.246121 0.926874 -0.189328
H21   H     H_    0.199974 0.181565 0.871692 0.157573
C26   C     C_R   0.340244 0.330166 0.857728 -0.124373
H22   H     H_    0.331315 0.327500 0.750906 0.195829
C27   C     C_R   0.422847 0.414936 0.926409 0.111942
C28   C     C_R   0.422512 0.415445 0.070906 0.159028
N1    N     N_R   0.498810 0.498800 0.142780 -0.146230
C29   C     C_R   0.570483 0.583174 0.075017 -0.181420
C30   C     C_R   0.568935 0.587295 0.932474 0.356442
N2    N     N_R   0.498760 0.498720 0.857170 -0.164442
N3    N     N_R   0.320736 0.792123 0.750221 0.202656
O9    O     O_R   0.236998 0.786516 0.654355 -0.482822
O10   O     O_R   0.304074 0.722582 0.856129 -0.423546
N4    N     N_R   0.634727 0.692773 0.872633 0.210157
O11   O     O_R   0.702871 0.680087 0.766630 -0.392871
O12   O     O_R   0.651789 0.795400 0.942379 -0.442326

loop_
_geom_bond_atom_site_label_1
_geom_bond_atom_site_label_2
_geom_bond_distance
_ccdc_geom_bond_type
C5    C6    1.515508 S    
C14   C15   1.388767 A    
C17   C18   1.396244 A    
C15   H16   1.082859 S    
C29   C30   1.415934 A    
H6    C11   1.113713 S    
O4    Zn2   2.011557 S    
C15   C16   1.403228 A    
H17   C21   1.083789 S    
N3    O10   1.301684 A    
C8    H8    1.113317 S    
Zn2   N1    2.025831 S    
Zn2   O8    2.005937 S    
C16   N3    1.434246 S    
C25   H21   1.082789 S    
C10   C12   1.552729 S    
O2    C1    1.301708 A    
C27   N2    1.376289 A    
C17   C22   1.420006 A    
C6    C10   1.551167 S    
C27   C28   1.434386 A    
C25   C26   1.390936 A    
O1    Zn1   1.996474 S    
C24   H20   1.082754 S    
C18   C19   1.418463 A    
Zn1   O7    2.011558 S    
C10   C11   1.548437 S    
C26   H22   1.064034 S    
C12   H9    1.113379 S    
O3    Zn1   2.005935 S    
C3    C22   1.443146 S    
O4    C2    1.291927 A    
C7    C11   1.531871 S    
C13   C14   1.391021 A    
C13   H14   1.081365 S    
C8    H7    1.113026 S    
C6    H3    1.114225 S    
C6    H4    1.110020 S    
C24   C25   1.384596 A    
H5    C7    1.107128 S    
N1    C29   1.347778 A    
H18   C29   1.082150 S    
O7    C4    1.289589 A    
C20   C21   1.368621 A    
Zn1   N2    2.025714 S    
C13   C18   1.415857 A    
C8    C12   1.540666 S    
C26   C27   1.409684 A    
C16   C17   1.427927 A    
C4    C10   1.453264 S    
C5    H1    1.111489 S    
C2    C9    1.455016 S    
Zn1   O5    2.001232 S    
C7    C9    1.550648 S    
C23   H19   1.064585 S    
C8    C9    1.549040 S    
C7    H11   1.113581 S    
C5    C9    1.555322 S    
O3    C2    1.288740 A    
N3    O9    1.298741 A    
N4    O11   1.291984 A    
C5    H2    1.113983 S    
N4    O12   1.301462 A    
O5    C3    1.290522 A    
C30   N4    1.441023 S    
C21   C22   1.398315 A    
C12   H10   1.113264 S    
C23   C28   1.409060 A    
O1    C1    1.287635 A    
C19   C20   1.396035 A    
H13   C20   1.083862 S    
C11   H12   1.113539 S    
C1    C19   1.440135 S    
Zn2   O6    1.996474 S    
O2    Zn2   2.001232 S    
C30   N2    1.395538 A    
O8    C4    1.290151 A    
C28   N1    1.376944 A    
C23   C24   1.390815 A    
O6    C3    1.300105 A    
C14   H15   1.082768 S    
