data_mof_unit_10963.cif
_audit_creation_date              2013-03-05T16:02:12-0500
_audit_creation_method            fapswitch 2.2
_symmetry_space_group_name_H-M    P1
_symmetry_Int_Tables_number       1
_space_group_crystal_system       triclinic
_cell_length_a                    14.181986
_cell_length_b                    13.64429
_cell_length_c                    14.855007
_cell_angle_alpha                 87.805253
_cell_angle_beta                  88.301425
_cell_angle_gamma                 85.279268
_cell_volume                      2861.62478209

loop_
_atom_site_label
_atom_site_type_symbol
_atom_site_description
_atom_site_fract_x
_atom_site_fract_y
_atom_site_fract_z
_atom_type_partial_charge
O1    O     O_R   0.580280 0.500020 0.367860 -0.637276
O2    O     O_R   0.419720 0.499980 0.632140 -0.645073
O3    O     O_R   0.419730 0.500030 0.367840 -0.610298
O4    O     O_R   0.580270 0.499970 0.632160 -0.615669
C1    C     C_R   0.500970 0.500905 0.326944 0.871017
C2    C     C_R   0.498751 0.499062 0.672971 0.871258
O5    O     O_R   0.591830 0.359650 0.500030 -0.610216
O6    O     O_R   0.408170 0.640350 0.499970 -0.610258
O7    O     O_R   0.431280 0.359660 0.500010 -0.626415
O8    O     O_R   0.568720 0.640340 0.499990 -0.635940
C3    C     C_R   0.515121 0.314961 0.502160 0.899034
C4    C     C_R   0.484755 0.685073 0.498521 0.897611
Zn1   Zn    Zn3+2 0.607200 0.499990 0.500020 0.922848
Zn2   Zn    Zn3+2 0.392800 0.500010 0.499980 0.926385
C5    C     C_1   0.476165 0.787764 0.490701 -0.217283
C6    C     C_1   0.522177 0.212834 0.515920 -0.231657
C7    C     C_2   0.469171 0.978659 0.478011 0.127625
C8    C     C_2   0.515716 0.023916 0.540580 0.136151
C9    C     C_1   0.522499 0.126624 0.528871 0.008287
C10   C     C_1   0.470691 0.874776 0.483670 -0.043813
C11   C     C_R   0.540775 0.416490 0.814896 -0.253130
C12   C     C_R   0.442128 0.569132 0.185736 -0.253713
C13   C     C_R   0.494629 0.495322 0.768782 -0.049618
C14   C     C_R   0.501142 0.499618 0.231113 -0.046928
C15   C     C_R   0.438444 0.567053 0.812430 -0.255263
C16   C     C_R   0.549215 0.422057 0.187866 -0.256828
C17   C     C_R   0.431510 0.565383 0.906159 0.068458
C18   C     C_R   0.539589 0.412183 0.095367 0.068506
C19   C     C_R   0.479892 0.485153 0.954353 -0.014737
C20   C     C_R   0.481760 0.485885 0.047791 -0.012421
C21   C     C_R   0.530050 0.406593 0.908372 0.068147
C22   C     C_R   0.428533 0.562367 0.093859 0.066685
C23   C     C_R   0.376356 0.640732 0.951952 0.074102
C24   C     C_R   0.583317 0.329207 0.050581 0.070422
C25   C     C_R   0.365832 0.631586 0.046879 0.130024
C26   C     C_R   0.569984 0.322220 0.956836 0.133556
H1    H     H_    0.586225 0.365734 0.775998 0.128640
H2    H     H_    0.411537 0.630245 0.223770 0.120703
H3    H     H_    0.402586 0.624534 0.771116 0.151086
H4    H     H_    0.591501 0.369273 0.228860 0.147972
C27   C     C_R   0.800150 0.444863 0.563088 -0.106260
C28   C     C_R   0.199367 0.561577 0.441961 -0.101008
N1    N     N_R   0.750030 0.500040 0.500070 -0.116856
N2    N     N_R   0.249970 0.499960 0.499930 -0.118025
C29   C     C_R   0.796855 0.557739 0.436820 0.184859
C30   C     C_R   0.203607 0.437593 0.559359 0.187298
C31   C     C_R   0.897377 0.561298 0.438322 -0.004700
C32   C     C_R   0.102456 0.441898 0.564078 -0.003226
C33   C     C_R   0.949296 0.502909 0.502336 0.030377
C34   C     C_R   0.050294 0.502961 0.502131 0.028903
C35   C     C_R   0.900356 0.444483 0.566323 -0.004393
C36   C     C_R   0.099086 0.563341 0.439656 -0.004938
C37   C     C_R   0.947267 0.622079 0.377342 -0.263188
C38   C     C_R   0.052194 0.386837 0.629526 -0.262039
C39   C     C_R   0.046032 0.623806 0.376911 0.113398
C40   C     C_R   0.953089 0.387841 0.632013 0.110715
H5    H     H_    0.760617 0.401186 0.610457 0.154582
H6    H     H_    0.238674 0.608520 0.397365 0.151565
H7    H     H_    0.910655 0.670185 0.328314 0.153437
H8    H     H_    0.088962 0.342371 0.681049 0.153901
C41   C     C_3   0.565551 0.967947 0.619026 -0.397068
C42   C     C_3   0.589120 0.033317 0.695488 -0.894876
H9    H     H_    0.641839 0.085134 0.671882 0.263145
H10   H     H_    0.524077 0.075659 0.720820 0.262028
H11   H     H_    0.619743 0.986711 0.751992 0.249133
H12   H     H_    0.519573 0.912186 0.648606 0.213280
H13   H     H_    0.632030 0.928605 0.593231 0.207350
C43   C     C_3   0.418916 0.030324 0.398123 -0.397963
C44   C     C_3   0.311805 0.029803 0.410627 -0.874229
H14   H     H_    0.291012 0.953114 0.417855 0.267868
H15   H     H_    0.287246 0.070213 0.471478 0.261235
H16   H     H_    0.276633 0.066391 0.351043 0.245694
H17   H     H_    0.436539 0.107532 0.386394 0.204954
H18   H     H_    0.441627 0.991373 0.335754 0.201354
C45   C     C_3   0.333316 0.732440 0.900294 -0.424648
C46   C     C_3   0.409954 0.801545 0.871496 -0.352637
C47   C     C_3   0.368692 0.890568 0.816075 -0.896036
H19   H     H_    0.339948 0.866623 0.752465 0.264001
H20   H     H_    0.311454 0.931866 0.855073 0.262391
H21   H     H_    0.425034 0.940539 0.799095 0.259067
H22   H     H_    0.441989 0.827759 0.932682 0.222034
H23   H     H_    0.467305 0.762560 0.830912 0.226041
H24   H     H_    0.293668 0.711268 0.841747 0.194299
H25   H     H_    0.279405 0.776345 0.940037 0.217806
C48   C     C_3   0.645399 0.250385 0.102509 -0.419505
C49   C     C_3   0.743344 0.285942 0.118538 -0.356097
C50   C     C_3   0.800636 0.214441 0.181346 -0.890898
H26   H     H_    0.763999 0.208867 0.248274 0.262517
H27   H     H_    0.810392 0.140385 0.152237 0.260447
H28   H     H_    0.871361 0.241414 0.190575 0.251849
H29   H     H_    0.782526 0.292207 0.052985 0.224470
H30   H     H_    0.737020 0.359709 0.148252 0.224910
H31   H     H_    0.609311 0.228970 0.166736 0.191159
H32   H     H_    0.656957 0.180098 0.067952 0.213433
C51   C     C_3   0.284748 0.690763 0.095964 -0.416970
C52   C     C_3   0.188250 0.660218 0.068975 -0.885580
H33   H     H_    0.179510 0.664298 0.995015 0.257698
H34   H     H_    0.179691 0.583446 0.093572 0.263249
H35   H     H_    0.131177 0.709450 0.100064 0.246624
H36   H     H_    0.284661 0.679484 0.169685 0.204039
H37   H     H_    0.289889 0.770950 0.084219 0.197164
C53   C     C_3   0.590646 0.223480 0.911272 -0.424152
C54   C     C_3   0.518375 0.150903 0.941869 -0.878189
H38   H     H_    0.515818 0.139103 0.016127 0.255263
H39   H     H_    0.446750 0.179180 0.919711 0.264150
H40   H     H_    0.537137 0.078855 0.910861 0.248559
H41   H     H_    0.586471 0.228261 0.837273 0.203581
H42   H     H_    0.663925 0.192145 0.923734 0.202633
C55   C     C_3   0.743083 0.617563 0.363528 -0.373943
C56   C     C_3   0.757198 0.569371 0.271396 -0.352746
C57   C     C_3   0.707431 0.632753 0.197330 -0.886084
H43   H     H_    0.631363 0.648810 0.215291 0.265989
H44   H     H_    0.740888 0.703289 0.187284 0.253557
H45   H     H_    0.713275 0.593229 0.133165 0.253375
H46   H     H_    0.833356 0.557710 0.252194 0.213747
H47   H     H_    0.729166 0.495708 0.274776 0.244192
H48   H     H_    0.667987 0.629334 0.379264 0.259034
H49   H     H_    0.763935 0.694245 0.359867 0.158148
C58   C     C_3   0.258685 0.362205 0.620023 -0.379834
C59   C     C_3   0.253490 0.256231 0.589633 -0.376455
C60   C     C_3   0.301474 0.182007 0.656850 -0.881181
H50   H     H_    0.376217 0.197628 0.665503 0.267236
H51   H     H_    0.263493 0.185549 0.723266 0.256518
H52   H     H_    0.300378 0.106380 0.632122 0.257011
H53   H     H_    0.179182 0.238456 0.582770 0.221566
H54   H     H_    0.289313 0.247905 0.522517 0.248484
H55   H     H_    0.332797 0.374125 0.622441 0.267237
H56   H     H_    0.234352 0.370208 0.691254 0.167923
C61   C     C_3   0.091507 0.690731 0.307376 -0.440943
C62   C     C_3   0.112600 0.787688 0.348532 -0.331447
C63   C     C_3   0.159426 0.854810 0.279177 -0.898922
H57   H     H_    0.231296 0.822380 0.260247 0.257613
H58   H     H_    0.116217 0.866137 0.217925 0.263423
H59   H     H_    0.165869 0.927530 0.308329 0.252680
H60   H     H_    0.045229 0.826240 0.373332 0.224774
H61   H     H_    0.159969 0.773318 0.406637 0.221168
H62   H     H_    0.156329 0.652740 0.277221 0.202063
H63   H     H_    0.043360 0.707998 0.250138 0.197670
C64   C     C_3   0.906513 0.328403 0.706788 -0.438840
C65   C     C_3   0.862224 0.395744 0.779856 -0.319560
C66   C     C_3   0.808715 0.337486 0.851293 -0.913954
H64   H     H_    0.752765 0.299652 0.819337 0.257542
H65   H     H_    0.857830 0.281950 0.886258 0.259065
H66   H     H_    0.774910 0.388237 0.901672 0.253667
H67   H     H_    0.918914 0.432107 0.812586 0.222388
H68   H     H_    0.812230 0.454169 0.750022 0.225996
H69   H     H_    0.853170 0.283731 0.678593 0.192428
H70   H     H_    0.959288 0.274301 0.739022 0.198455

loop_
_geom_bond_atom_site_label_1
_geom_bond_atom_site_label_2
_geom_bond_distance
_ccdc_geom_bond_type
C50   H26   1.110988 S    
C17   C19   1.423784 A    
C51   C52   1.531826 S    
O7    Zn2   1.947533 S    
C63   H59   1.109293 S    
C45   H24   1.109502 S    
C28   H6    1.079000 S    
C37   H7    1.077306 S    
C55   H48   1.083801 S    
C31   C33   1.402868 A    
C38   H8    1.077874 S    
C48   C49   1.536528 S    
C17   C23   1.421684 A    
O5    C3    1.289164 A    
C11   C21   1.395008 A    
C64   H69   1.110608 S    
C19   C20   1.389495 A    
C12   C22   1.391635 A    
O1    C1    1.293222 A    
C14   C16   1.380147 A    
C35   C40   1.413925 A    
C49   H29   1.110723 S    
C66   H65   1.110676 S    
C29   C55   1.520502 S    
C45   H25   1.103140 S    
C43   H18   1.111955 S    
C12   H2    1.079221 S    
C52   H35   1.109848 S    
C7    C10   1.415109 S    
C26   C53   1.533671 S    
C8    C9    1.416305 S    
C3    C6    1.396411 S    
C29   C31   1.431287 A    
O4    Zn1   1.988602 S    
C44   H15   1.109209 S    
C56   C57   1.526208 S    
C60   H52   1.109938 S    
C42   H10   1.111135 S    
C48   H31   1.109917 S    
C41   H12   1.111834 S    
C23   C45   1.534832 S    
C61   H63   1.112338 S    
C57   H43   1.109733 S    
C43   C44   1.525448 S    
C39   C61   1.517227 S    
C52   H34   1.111076 S    
C34   C36   1.419871 A    
C53   H42   1.108729 S    
C54   H40   1.110729 S    
C36   C39   1.412802 A    
C31   C37   1.417743 A    
C58   H56   1.109796 S    
C37   C39   1.402630 A    
C18   C24   1.423609 A    
C27   N1    1.358590 A    
O2    C2    1.289066 A    
C28   N2    1.358404 A    
N2    C30   1.391387 A    
C55   H49   1.109363 S    
C30   C32   1.430634 A    
C47   H20   1.110804 S    
C5    C10   1.184153 T    
C64   C65   1.535530 S    
C38   C40   1.403846 A    
C64   H70   1.112474 S    
C53   C54   1.530592 S    
C22   C25   1.420502 A    
C65   C66   1.523417 S    
C54   H39   1.111132 S    
C66   H66   1.110496 S    
C46   H23   1.110051 S    
C40   C64   1.517753 S    
C49   C50   1.525520 S    
C59   H54   1.110943 S    
C33   C35   1.419392 A    
C43   H17   1.108727 S    
C47   H19   1.110950 S    
C24   C48   1.532226 S    
C46   H22   1.112022 S    
C44   H16   1.110320 S    
C32   C38   1.417340 A    
C45   C46   1.537399 S    
C42   H9    1.110985 S    
O7    C3    1.291579 A    
C48   H32   1.103157 S    
C41   H13   1.111261 S    
C4    C5    1.397071 S    
O6    C4    1.288098 A    
C52   H33   1.108071 S    
O3    C1    1.287193 A    
C7    C8    1.352166 D    
C61   H62   1.108789 S    
C53   H41   1.101747 S    
C57   H44   1.110681 S    
C46   C47   1.526627 S    
C32   C34   1.402998 A    
N1    C29   1.391391 A    
C60   H50   1.110374 S    
O3    Zn2   1.988602 S    
O8    C4    1.293019 A    
O4    C2    1.290155 A    
C62   H60   1.112011 S    
C11   C13   1.381577 A    
C12   C14   1.381399 A    
O1    Zn1   2.011071 S    
C65   H68   1.110454 S    
C63   H57   1.109987 S    
C56   H47   1.109716 S    
Zn1   N1    2.025690 S    
C59   C60   1.528111 S    
Zn2   N2    2.025693 S    
C61   C62   1.533389 S    
C47   H21   1.109732 S    
C7    C43   1.522052 S    
O6    Zn2   1.944943 S    
C42   H11   1.110322 S    
C51   H36   1.100004 S    
C62   H61   1.111083 S    
C63   H58   1.110867 S    
O8    Zn1   1.947533 S    
C65   H67   1.111870 S    
C58   C59   1.539300 S    
C8    C41   1.527240 S    
C25   C51   1.532487 S    
C15   C17   1.392348 A    
C16   C18   1.397564 A    
C50   H27   1.110868 S    
C62   C63   1.525932 S    
C27   H5    1.078941 S    
C19   C21   1.422419 A    
C49   H30   1.110286 S    
C55   C56   1.541618 S    
C15   H3    1.079978 S    
C20   C22   1.421805 A    
C16   H4    1.079871 S    
C1    C14   1.424277 S    
C6    C9    1.184261 T    
C2    C13   1.421879 S    
C18   C20   1.423908 A    
C23   C25   1.415428 A    
C30   C58   1.522759 S    
C57   H45   1.110656 S    
C24   C26   1.418755 A    
C13   C15   1.379426 A    
C59   H53   1.109113 S    
C41   C42   1.531852 S    
O2    Zn2   2.011069 S    
C44   H14   1.110712 S    
C60   H51   1.110732 S    
O5    Zn1   1.944943 S    
C11   H1    1.078905 S    
C33   C34   1.432319 A    
C50   H28   1.110435 S    
C54   H38   1.108619 S    
C21   C26   1.420465 A    
C66   H64   1.109037 S    
C56   H46   1.109130 S    
C27   C35   1.422925 A    
C51   H37   1.109301 S    
C28   C36   1.421812 A    
C58   H55   1.078555 S    
