data_mof_unit_54509.cif
_audit_creation_date              2012-12-10T18:07:05-0500
_audit_creation_method            fapswitch 2.2
_symmetry_space_group_name_H-M    P1
_symmetry_Int_Tables_number       1
_space_group_crystal_system       triclinic
_cell_length_a                    10.921003
_cell_length_b                    12.696301
_cell_length_c                    13.889521
_cell_angle_alpha                 97.74996
_cell_angle_beta                  92.24345
_cell_angle_gamma                 93.530189
_cell_volume                      1902.46491934

loop_
_atom_site_label
_atom_site_type_symbol
_atom_type_description
_atom_site_fract_x
_atom_site_fract_y
_atom_site_fract_z
_atom_type_partial_charge
C1    C     C_R   0.503296 0.483618 0.315993 0.796058
C2    C     C_3   0.880367 0.501330 0.506337 -0.360472
C3    C     C_3   0.944994 0.555018 0.610719 0.588274
C4    C     C_3   0.924172 0.571628 0.420189 0.358192
C5    C     C_1   0.510238 0.525330 0.787441 -0.191347
C6    C     C_2   0.535036 0.538889 0.979227 0.409087
C7    C     C_2   0.480418 0.459530 0.020684 0.407950
C8    C     C_1   0.491531 0.467010 0.125736 -0.055123
C9    C     C_1   0.521398 0.532484 0.874320 -0.061804
C10   C     C_1   0.498936 0.474579 0.212729 -0.186708
C11   C     C_2   0.471923 0.025755 0.466334 0.330429
C12   C     C_R   0.259403 0.499324 0.495092 0.972994
C13   C     C_2   0.530356 0.974193 0.532990 0.316499
C14   C     C_1   0.524129 0.855101 0.521564 0.131650
C15   C     C_1   0.476652 0.144863 0.478209 0.123070
C16   C     C_R   0.500322 0.516365 0.684221 0.820580
C17   C     C_R   0.741251 0.500839 0.508396 0.859011
C18   C     C_3   0.063754 0.375266 0.477369 0.831309
C19   C     C_3   0.917604 0.376256 0.484231 0.345436
C20   C     C_3   0.086569 0.562804 0.593355 0.171184
C21   C     C_3   0.070878 0.561722 0.405950 0.346448
C22   C     C_3   0.121724 0.497998 0.493275 -0.362254
Cu1   Cu    Cu3+1 0.491980 0.395330 0.493960 0.964873
Cu2   Cu    Cu3+1 0.508020 0.604670 0.506040 0.951742
H1    H     H_    0.112358 0.645971 0.587481 0.062216
N1    N     N_1   0.479930 0.238040 0.484880 -0.177431
N2    N     N_1   0.520070 0.761960 0.515120 -0.175403
O1    O     O_R   0.492240 0.399110 0.356330 -0.583557
O2    O     O_R   0.505790 0.575900 0.366540 -0.572375
O3    O     O_R   0.310920 0.411610 0.494880 -0.554359
O4    O     O_R   0.324460 0.588390 0.505090 -0.578180
O5    O     O_R   0.494210 0.424100 0.633460 -0.566985
O6    O     O_R   0.507760 0.600890 0.643670 -0.593329
O7    O     O_R   0.675540 0.411610 0.494910 -0.581587
O8    O     O_R   0.689080 0.588390 0.505120 -0.565539
O9    O     O_3   0.117672 0.301744 0.535635 -0.604191
C23   C     C_3   0.145962 0.326017 0.635926 -0.162057
H2    H     H_    0.070842 0.359339 0.677121 0.249326
H3    H     H_    0.236212 0.370847 0.651063 0.224356
H4    H     H_    0.159249 0.249524 0.663868 0.134192
N3    N     N_2   0.900448 0.684682 0.450999 -0.384017
H5    H     H_    0.963282 0.732133 0.497203 0.240484
C24   C     C_3   0.811714 0.744333 0.403629 -0.541346
H6    H     H_    0.784736 0.811557 0.456338 0.177065
H7    H     H_    0.727064 0.694939 0.377113 0.270009
H8    H     H_    0.852519 0.779037 0.342335 0.187791
N4    N     N_2   0.913943 0.665922 0.647117 -0.463111
H9    H     H_    0.983601 0.717513 0.681547 0.218741
C25   C     C_3   0.795527 0.706356 0.669689 -0.651743
H10   H     H_    0.767544 0.757225 0.615119 0.248125
H11   H     H_    0.802688 0.756900 0.741803 0.177527
H12   H     H_    0.723860 0.643740 0.673822 0.245766
O10   O     O_3   0.415336 0.374821 0.961157 -0.591887
C26   C     C_3   0.358013 0.300019 0.014343 -0.317139
H13   H     H_    0.289746 0.337645 0.063045 0.157977
H14   H     H_    0.427188 0.261435 0.056250 0.167053
H15   H     H_    0.307659 0.236600 0.962313 0.189145
O11   O     O_3   0.599664 0.623817 0.038751 -0.598708
C27   C     C_3   0.662686 0.695300 0.985401 -0.338329
H16   H     H_    0.597248 0.735686 0.941694 0.171894
H17   H     H_    0.730260 0.654133 0.938418 0.151845
H18   H     H_    0.714658 0.757735 0.037413 0.188680
O12   O     O_3   0.587844 0.036769 0.614730 -0.595905
C28   C     C_3   0.676493 0.982288 0.661336 -0.363031
H19   H     H_    0.745195 0.951009 0.609628 0.145179
H20   H     H_    0.632206 0.917496 0.697054 0.174977
H21   H     H_    0.726754 0.039418 0.719086 0.197343
O13   O     O_3   0.417056 0.963219 0.383534 -0.594014
C29   C     C_3   0.325180 0.015562 0.338410 -0.373793
H22   H     H_    0.365322 0.084684 0.306181 0.167562
H23   H     H_    0.253775 0.039829 0.390336 0.155898
H24   H     H_    0.279413 0.959181 0.277880 0.189371
O14   O     O_3   0.087854 0.335769 0.378797 -0.634014
C30   C     C_3   0.128639 0.231819 0.358592 -0.245743
H25   H     H_    0.062757 0.171244 0.381198 0.160300
H26   H     H_    0.221846 0.227959 0.392203 0.208703
H27   H     H_    0.135698 0.212692 0.278797 0.141492
N5    N     N_2   0.855258 0.327982 0.390078 -0.406373
H28   H     H_    0.888413 0.347969 0.326521 0.269964
C31   C     C_3   0.778572 0.229261 0.373794 -0.583195
H29   H     H_    0.722902 0.225992 0.304660 0.199516
H30   H     H_    0.712886 0.224507 0.431617 0.260606
H31   H     H_    0.835942 0.159874 0.366388 0.196055
N6    N     N_2   0.876341 0.315843 0.563187 -0.369825
H32   H     H_    0.801137 0.339255 0.600340 0.287221
C32   C     C_3   0.891614 0.203049 0.565994 -0.621899
H33   H     H_    0.801060 0.157291 0.557213 0.221260
H34   H     H_    0.931477 0.192303 0.638402 0.212543
H35   H     H_    0.950914 0.168149 0.509530 0.245044
O15   O     O_3   0.159323 0.537427 0.673365 -0.574191
C33   C     C_3   0.179959 0.622712 0.750013 -0.278810
H36   H     H_    0.094710 0.637699 0.789043 0.181690
H37   H     H_    0.219791 0.696266 0.724590 0.141573
H38   H     H_    0.247854 0.599525 0.803432 0.183759
O16   O     O_3   0.933103 0.486636 0.684117 -0.572935
C34   C     C_3   0.835194 0.499658 0.746425 -0.308649
H39   H     H_    0.837756 0.437269 0.795035 0.182617
H40   H     H_    0.745736 0.485230 0.705452 0.134732
H41   H     H_    0.846358 0.576789 0.794933 0.180124
N7    N     N_2   0.137608 0.668649 0.411418 -0.407228
H42   H     H_    0.166191 0.714354 0.475745 0.240391
C35   C     C_3   0.136151 0.732956 0.332385 -0.652617
H43   H     H_    0.222299 0.785010 0.338221 0.245209
H44   H     H_    0.059009 0.785453 0.338370 0.209007
H45   H     H_    0.133078 0.685081 0.259603 0.243155
N8    N     N_2   0.092320 0.505218 0.308487 -0.376599
H46   H     H_    0.029210 0.448871 0.272612 0.289920
C36   C     C_3   0.214968 0.494971 0.273662 -0.626020
H47   H     H_    0.252133 0.420651 0.292102 0.238599
H48   H     H_    0.277980 0.563910 0.303992 0.257064
H49   H     H_    0.211028 0.491020 0.193268 0.195418
N9    N     N_2   0.850303 0.531766 0.328865 -0.439199
H50   H     H_    0.764045 0.496263 0.333764 0.256312
C37   C     C_3   0.860000 0.577555 0.238754 -0.674506
H51   H     H_    0.873407 0.513512 0.178138 0.219509
H52   H     H_    0.936106 0.638603 0.242408 0.254793
H53   H     H_    0.773473 0.614031 0.221150 0.243645

loop_
_geom_bond_atom_site_label_1
_geom_bond_atom_site_label_2
_ccdc_geom_bond_type
C29   H24   S    
N3    H5    S    
C6    O11   S    
O16   C34   S    
Cu2   N2    S    
C6    C9    S    
N9    C37   S    
C37   H51   S    
C7    C8    S    
N4    C25   S    
O10   C26   S    
C30   H26   S    
N8    H46   S    
O9    C23   S    
N6    C32   S    
C23   H4    S    
N5    C31   S    
C4    N3    S    
C34   H41   S    
C12   C22   S    
C36   H47   S    
C35   H45   S    
C18   C19   S    
O14   C30   S    
Cu1   N1    S    
C29   H23   S    
Cu2   O2    S    
C5    C16   S    
C11   C15   S    
O13   C29   S    
C25   H11   S    
C30   H27   S    
C34   H40   S    
C1    O1    A    
Cu1   Cu2   S    
C14   N2    T    
C21   N8    S    
Cu1   O7    S    
C4    N9    S    
C27   H16   S    
C18   C22   S    
C21   C22   S    
C2    C17   S    
N3    C24   S    
C35   H43   S    
C31   H31   S    
N7    C35   S    
N9    H50   S    
C26   H14   S    
C27   H17   S    
Cu2   O8    S    
C30   H25   S    
Cu1   O3    S    
N6    H32   S    
C31   H30   S    
C33   H36   S    
C21   N7    S    
C32   H33   S    
C15   N1    T    
O11   C27   S    
C20   O15   S    
C28   H20   S    
C19   N5    S    
C2    C4    S    
C24   H6    S    
C28   H21   S    
C5    C9    T    
C23   H2    S    
C16   O6    A    
C33   H37   S    
N4    H9    S    
C13   O12   S    
C25   H12   S    
C34   H39   S    
C1    O2    A    
C3    C20   S    
Cu1   O1    S    
C35   H44   S    
C24   H7    S    
C20   C22   S    
C18   O14   S    
C12   O4    A    
C17   O7    A    
C7    O10   S    
C19   N6    S    
C11   O13   S    
C26   H13   S    
C27   H18   S    
C12   O3    A    
C2    C19   S    
N5    H28   S    
C1    C10   S    
C31   H29   S    
C32   H35   S    
C37   H52   S    
C6    C7    D    
C16   O5    A    
Cu2   O6    S    
C36   H49   S    
Cu1   O5    S    
C2    C3    S    
Cu2   O4    S    
C23   H3    S    
C28   H19   S    
C33   H38   S    
C4    C21   S    
C11   C13   D    
O15   C33   S    
N8    C36   S    
C3    N4    S    
N7    H42   S    
C36   H48   S    
C32   H34   S    
C29   H22   S    
C24   H8    S    
C37   H53   S    
O12   C28   S    
C8    C10   T    
C25   H10   S    
C20   H1    S    
C3    O16   S    
C17   O8    A    
C13   C14   S    
C18   O9    S    
C26   H15   S    
