data_mof_unit_66026.cif
_audit_creation_date              2012-12-10T16:58:19-0500
_audit_creation_method            fapswitch 2.2
_symmetry_space_group_name_H-M    P1
_symmetry_Int_Tables_number       1
_space_group_crystal_system       triclinic
_cell_length_a                    21.75538
_cell_length_b                    21.734974
_cell_length_c                    22.138401
_cell_angle_alpha                 60.758142
_cell_angle_beta                  119.352335
_cell_angle_gamma                 89.942791
_cell_volume                      7553.19682325

loop_
_atom_site_label
_atom_site_type_symbol
_atom_type_description
_atom_site_fract_x
_atom_site_fract_y
_atom_site_fract_z
_atom_type_partial_charge
C1    C     C_R   0.621267 0.497676 0.504679 0.763540
C2    C     C_R   0.798824 0.559890 0.651000 -0.131003
C3    C     C_R   0.847405 0.582005 0.627195 -0.171406
C4    C     C_R   0.419658 0.580072 0.339727 0.806558
C5    C     C_R   0.854628 0.561713 0.579901 -0.174971
C6    C     C_R   0.806941 0.526362 0.547429 0.069758
C7    C     C_R   0.750039 0.513114 0.561760 0.058442
C8    C     C_R   0.692754 0.493044 0.513241 -0.105912
C9    C     C_R   0.700042 0.475259 0.463675 -0.185657
C10   C     C_R   0.761225 0.479097 0.459038 -0.207096
C11   C     C_R   0.814631 0.504275 0.500580 -0.083830
C12   C     C_3   0.288562 0.708627 0.082643 0.115695
C13   C     C_3   0.722740 0.196117 0.029394 -0.162867
C14   C     C_3   0.677469 0.279666 0.972899 -0.142532
C15   C     C_1   0.622499 0.375094 0.750237 -0.144873
C16   C     C_R   0.381097 0.500206 0.499601 0.847070
C17   C     C_1   0.874930 0.128478 0.249833 -0.159180
C18   C     C_3   0.750468 0.210100 0.972718 -0.151812
C19   C     C_3   0.705904 0.292947 0.917619 0.180280
C20   C     C_3   0.818307 0.225680 0.027111 -0.153267
C21   C     C_3   0.789905 0.212380 0.082430 0.180055
C22   C     C_3   0.773066 0.309211 0.970649 -0.164694
C23   C     C_3   0.292112 0.762245 0.972385 -0.147192
C24   C     C_3   0.745350 0.295225 0.027357 -0.147534
C25   C     C_1   0.659638 0.337873 0.825757 -0.074207
C26   C     C_1   0.836724 0.166868 0.174306 -0.072958
C27   C     C_R   0.249277 0.503580 0.367223 -0.200706
C28   C     C_R   0.578793 0.419873 0.660305 0.859574
C29   C     C_R   0.189545 0.495781 0.308473 0.025833
C30   C     C_R   0.130742 0.481793 0.317236 -0.191610
C31   C     C_R   0.129832 0.479065 0.380986 -0.193009
C32   C     C_R   0.187768 0.490877 0.437814 0.114792
C33   C     C_R   0.250669 0.498204 0.434344 0.056462
C34   C     C_3   0.206640 0.791382 0.917388 0.168329
C35   C     C_R   0.313114 0.500740 0.497478 -0.164755
C36   C     C_R   0.310733 0.501406 0.559845 -0.029803
C37   C     C_R   0.246148 0.499969 0.558284 -0.242059
C38   C     C_R   0.185296 0.494531 0.498783 -0.123713
C39   C     C_R   0.997694 0.883315 0.495447 0.771913
C40   C     C_3   0.205745 0.815568 0.971794 -0.184845
C41   C     C_R   0.080058 0.919894 0.660266 0.815023
C42   C     C_R   0.001295 0.117337 0.502632 0.775966
C43   C     C_R   0.919928 0.082034 0.339760 0.802637
C44   C     C_R   0.998465 0.618826 0.500228 0.786538
C45   C     C_3   0.289104 0.684796 0.027798 -0.171553
C46   C     C_R   0.881024 0.501299 0.499942 0.766394
C47   C     C_R   0.997283 0.380974 0.500017 0.781286
C48   C     C_R   0.118837 0.496880 0.499753 0.811773
C49   C     C_R   0.856852 0.871330 0.371992 0.158969
C50   C     C_R   0.790078 0.854191 0.344467 -0.131346
C51   C     C_R   0.790962 0.781950 0.368236 -0.171768
C52   C     C_3   0.203417 0.738079 0.026985 0.030526
C53   C     C_R   0.858186 0.726600 0.417349 -0.173454
C54   C     C_R   0.926198 0.740992 0.451464 0.068847
C55   C     C_R   0.925624 0.812173 0.437127 0.060903
C56   C     C_3   0.202828 0.714554 0.971295 -0.187643
C57   C     C_R   0.993907 0.820269 0.487133 -0.109283
C58   C     C_R   0.060820 0.762666 0.538513 -0.183330
C59   C     C_R   0.061435 0.696780 0.543260 -0.193146
C60   C     C_R   0.994837 0.685712 0.499929 -0.091334
C61   C     C_R   0.992639 0.122003 0.628406 -0.226903
C62   C     C_R   0.979039 0.126770 0.681984 0.026743
C63   C     C_R   0.965340 0.195486 0.671153 -0.179984
C64   C     C_1   0.373951 0.624844 0.249917 -0.110392
C65   C     C_R   0.968437 0.257531 0.610599 -0.200837
C66   C     C_R   0.985656 0.252592 0.558987 0.104399
C67   C     C_1   0.335423 0.662585 0.174466 0.026523
C68   C     C_R   0.993357 0.185014 0.564636 0.074893
C69   C     C_R   0.002961 0.181934 0.507230 -0.082918
C70   C     C_R   0.009573 0.243216 0.449335 -0.193341
C71   C     C_R   0.005595 0.308267 0.446445 -0.200031
C72   C     C_R   0.994321 0.313493 0.500960 -0.094027
C73   C     C_1   0.124631 0.875066 0.750124 -0.142197
C74   C     C_3   0.292023 0.785540 0.028309 -0.194443
C75   C     C_2   0.152240 0.725504 0.055746 0.851457
C76   C     C_2   0.375120 0.501280 0.629267 0.857653
C77   C     C_2   0.188816 0.501386 0.238517 0.857370
C78   C     C_1   0.161668 0.837341 0.825602 -0.020719
C79   C     C_3   0.852390 0.951023 0.318951 -0.386984
C80   C     C_3   0.817895 0.976437 0.228093 -0.848654
C81   C     C_2   0.978685 0.060244 0.748931 0.839114
C82   C     C_3   0.728590 0.471496 0.679116 -0.388923
C83   C     C_3   0.793757 0.417316 0.770542 -0.848927
C84   C     C_R   0.755139 0.519079 0.625421 0.160418
Cu1   Cu    Cu3+1 0.500040 0.438210 0.499990 0.990152
Cu2   Cu    Cu3+1 0.499960 0.561790 0.500010 0.976715
Cu3   Cu    Cu3+1 0.061810 0.999860 0.500010 0.967274
Cu4   Cu    Cu3+1 0.938190 0.999990 0.499990 0.975378
Cu5   Cu    Cu3+1 0.958570 0.541460 0.417120 0.959543
Cu6   Cu    Cu3+1 0.041430 0.458560 0.582880 0.960580
H1    H     H_    0.882975 0.610851 0.649896 0.153219
H2    H     H_    0.170864 0.869547 0.948033 0.165301
H3    H     H_    0.294042 0.514923 0.359199 0.174356
H4    H     H_    0.084851 0.473337 0.274381 0.182669
H5    H     H_    0.083709 0.466391 0.385587 0.155777
H6    H     H_    0.243503 0.502225 0.604879 0.184135
H7    H     H_    0.113097 0.768302 0.576224 0.163024
H8    H     H_    0.737003 0.897884 0.299318 0.138706
H9    H     H_    0.739209 0.769765 0.344177 0.149853
H10   H     H_    0.856326 0.672220 0.429749 0.136194
H11   H     H_    0.165593 0.685844 0.947205 0.152127
H12   H     H_    0.896720 0.575422 0.567575 0.136115
H13   H     H_    0.114165 0.654099 0.581083 0.158224
H14   H     H_    0.016961 0.240958 0.405386 0.154792
H15   H     H_    0.003907 0.068431 0.637960 0.176406
H16   H     H_    0.952820 0.201376 0.710114 0.185393
H17   H     H_    0.956154 0.309355 0.604247 0.162525
H18   H     H_    0.012451 0.354506 0.402138 0.150270
H19   H     H_    0.323801 0.630750 0.051526 0.150155
H20   H     H_    0.328357 0.772714 0.948852 0.139822
H21   H     H_    0.329132 0.814294 0.052447 0.148129
H22   H     H_    0.657450 0.459217 0.427188 0.161565
H23   H     H_    0.766821 0.462611 0.422548 0.151333
H24   H     H_    0.799501 0.569638 0.694822 0.141901
H25   H     H_    0.141161 0.679412 0.152578 0.335806
H26   H     H_    0.485760 0.462546 0.715149 0.329726
H27   H     H_    0.133493 0.501194 0.134103 0.339135
H28   H     H_    0.847157 0.936372 0.225949 0.265977
H29   H     H_    0.757920 0.981681 0.196258 0.244516
H30   H     H_    0.823099 0.031502 0.192938 0.247196
H31   H     H_    0.818444 0.987645 0.320525 0.222161
H32   H     H_    0.908075 0.957708 0.341048 0.193685
H33   H     H_    0.965865 0.017056 0.844508 0.346220
H34   H     H_    0.619043 0.302309 0.949629 0.140665
H35   H     H_    0.836669 0.385061 0.774325 0.265518
H36   H     H_    0.819254 0.447298 0.800411 0.246714
H37   H     H_    0.774038 0.377612 0.806510 0.245411
H38   H     H_    0.689437 0.507783 0.675729 0.221710
H39   H     H_    0.701046 0.436311 0.658879 0.188490
H40   H     H_    0.702464 0.149142 0.054475 0.136843
H41   H     H_    0.743758 0.329797 0.050761 0.137032
H42   H     H_    0.793303 0.356223 0.945570 0.137982
H43   H     H_    0.876709 0.203069 0.050297 0.140803
H44   H     H_    0.752089 0.175503 0.949350 0.141486
O1    O     O_R   0.590210 0.447820 0.500000 -0.585475
O2    O     O_R   0.034940 0.555150 0.570020 -0.587863
O3    O     O_R   0.874830 0.535020 0.430000 -0.587558
O4    O     O_R   0.590150 0.552170 0.500020 -0.587760
O5    O     O_R   0.944810 0.465010 0.569970 -0.588174
O6    O     O_R   0.965060 0.444870 0.429980 -0.591795
O7    O     O_R   0.035040 0.374860 0.569950 -0.584814
O8    O     O_R   0.055190 0.535000 0.430030 -0.585364
O9    O     O_R   0.125170 0.465000 0.570000 -0.580227
O10   O     O_R   0.439580 0.508290 0.379070 -0.571170
O11   O     O_R   0.439510 0.612640 0.379090 -0.581032
O12   O     O_R   0.947780 0.909820 0.499990 -0.581873
O13   O     O_R   0.409850 0.447830 0.499980 -0.580341
O14   O     O_R   0.409790 0.552180 0.500000 -0.566588
O15   O     O_R   0.560490 0.387360 0.620910 -0.575582
O16   O     O_R   0.560420 0.491710 0.620930 -0.586496
O17   O     O_R   0.052170 0.909710 0.500000 -0.581637
O18   O     O_2   0.085043 0.751680 0.003977 -0.574183
O19   O     O_R   0.181319 0.684230 0.141201 -0.752323
O20   O     O_2   0.364804 0.536486 0.654686 -0.596065
O21   O     O_R   0.447130 0.458766 0.667945 -0.773473
O22   O     O_2   0.241568 0.510751 0.232612 -0.583966
O23   O     O_R   0.112650 0.939420 0.620930 -0.582386
O24   O     O_R   0.127535 0.496190 0.178794 -0.769280
O25   O     O_2   0.991031 0.000006 0.758766 -0.589732
O26   O     O_R   0.964417 0.066173 0.801315 -0.768728
O27   O     O_R   0.008260 0.939530 0.620910 -0.561140
O28   O     O_R   0.052220 0.090030 0.500010 -0.581181
O29   O     O_R   0.947830 0.090140 0.500000 -0.581261
O30   O     O_R   0.991740 0.060320 0.379090 -0.576447
O31   O     O_R   0.887350 0.060430 0.379070 -0.592161
O32   O     O_R   0.964960 0.625150 0.430050 -0.574742

loop_
_geom_bond_atom_site_label_1
_geom_bond_atom_site_label_2
_ccdc_geom_bond_type
C44   O2    A    
C66   C68   A    
Cu3   Cu4   S    
C63   C65   A    
C28   O16   A    
C23   C45   S    
C12   C74   S    
C27   C29   A    
C1    C8    S    
C2    C84   A    
C35   C36   A    
C61   C68   A    
C21   C26   S    
C52   C75   S    
C80   H30   S    
Cu6   O5    S    
C15   C28   S    
C7    C8    A    
C54   C60   A    
C53   C54   A    
C27   C33   A    
C34   C56   S    
C79   H31   S    
C37   C38   A    
C13   C18   S    
C16   O13   A    
C81   O25   D    
C17   C26   T    
C22   C24   S    
C36   C37   A    
C56   H11   S    
C41   O27   A    
Cu2   O16   S    
C16   C35   S    
C30   C31   A    
C45   H19   S    
C15   C25   T    
H33   O26   S    
Cu5   O8    S    
C39   C57   S    
C39   O17   A    
C3    H1    S    
C18   C19   S    
C14   C24   S    
H26   O21   S    
C36   C76   S    
C5    H12   S    
C66   C72   A    
C45   C56   S    
C8    C9    A    
C47   O6    A    
C13   H40   S    
C18   H44   S    
C70   C71   A    
C32   C38   A    
C20   H43   S    
C29   C30   A    
C61   H15   S    
C9    C10   A    
C38   C48   S    
Cu6   O9    S    
C77   O24   S    
C43   O30   A    
Cu5   O6    S    
C9    H22   S    
Cu3   O30   S    
C80   H29   S    
C59   C60   A    
C81   O26   S    
Cu3   O17   S    
C13   C14   S    
H25   O19   S    
C69   C70   A    
C58   H7    S    
C83   H35   S    
Cu1   O10   S    
C12   C52   S    
C43   O31   A    
C53   H10   S    
C51   H9    S    
C47   C72   S    
C79   H32   S    
C80   H28   S    
C50   H8    S    
C14   H34   S    
C48   O8    A    
C64   C67   T    
C19   C22   S    
C6    C11   A    
C42   O29   A    
C68   C69   A    
C12   C67   S    
C58   C59   A    
Cu1   Cu2   S    
C82   C83   S    
C42   C69   S    
Cu3   O23   S    
C37   H6    S    
C82   H39   S    
C17   C43   S    
C62   C63   A    
Cu6   O2    S    
C75   O19   S    
C31   C32   A    
C75   O18   D    
C73   C78   T    
C23   C34   S    
C49   C55   A    
C50   C51   A    
C13   C21   S    
C44   O32   A    
C40   H2    S    
C63   H16   S    
C82   H38   S    
C10   H23   S    
Cu1   O1    S    
C46   O3    A    
C41   O23   A    
C62   C81   S    
C20   C22   S    
Cu4   O31   S    
Cu5   O3    S    
C55   C57   A    
C34   C40   S    
C27   H3    S    
C83   H36   S    
Cu2   O11   S    
C74   H21   S    
C23   H20   S    
C47   O7    A    
C54   C55   A    
C22   H42   S    
H27   O24   S    
C70   H14   S    
C14   C19   S    
Cu1   O13   S    
C83   H37   S    
C12   C45   S    
C3    C5    A    
Cu2   O14   S    
C4    O10   A    
C42   O28   A    
C6    C7    A    
Cu4   O29   S    
C4    C64   S    
C76   O21   S    
C82   C84   S    
C16   O14   A    
C59   H13   S    
C32   C33   A    
C2    C3    A    
C71   C72   A    
C77   O22   D    
C40   C52   S    
C34   C78   S    
C2    H24   S    
C24   H41   S    
C57   C58   A    
C5    C6    A    
C52   C56   S    
C44   C60   S    
C31   H5    S    
C4    O11   A    
C39   O12   A    
C76   O20   D    
C33   C35   A    
C40   C74   S    
C7    C84   A    
C18   C20   S    
C65   C66   A    
C61   C62   A    
C19   C25   S    
Cu1   O15   S    
Cu5   O32   S    
Cu6   O7    S    
C10   C11   A    
Cu2   O4    S    
C41   C73   S    
C79   C80   S    
C49   C79   S    
C28   O15   A    
Cu3   O28   S    
C29   C77   S    
C20   C21   S    
C48   O9    A    
C30   H4    S    
C49   C50   A    
C21   C24   S    
C1    O1    A    
Cu4   O12   S    
C11   C46   S    
C23   C74   S    
C51   C53   A    
Cu5   Cu6   S    
C71   H18   S    
C65   H17   S    
C1    O4    A    
Cu4   O27   S    
C46   O5    A    
