data_mof_unit_66516.cif
_audit_creation_date              2012-12-10T21:13:10-0500
_audit_creation_method            fapswitch 2.2
_symmetry_space_group_name_H-M    P1
_symmetry_Int_Tables_number       1
_space_group_crystal_system       triclinic
_cell_length_a                    17.542206
_cell_length_b                    16.829296
_cell_length_c                    15.025503
_cell_angle_alpha                 90.046295
_cell_angle_beta                  93.417563
_cell_angle_gamma                 90.013809
_cell_volume                      4427.98334911

loop_
_atom_site_label
_atom_site_type_symbol
_atom_type_description
_atom_site_fract_x
_atom_site_fract_y
_atom_site_fract_z
_atom_type_partial_charge
C1    C     C_R   0.353460 0.499996 0.507073 0.928433
C2    C     C_R   0.645992 0.500001 0.490502 0.932482
C3    C     C_R   0.502141 0.353738 0.045588 0.103955
C4    C     C_R   0.499531 0.646261 0.954561 0.104014
C5    C     C_R   0.845492 0.571658 0.452373 -0.170336
C6    C     C_R   0.150490 0.428177 0.497930 -0.169398
C7    C     C_R   0.150506 0.571739 0.498044 -0.169450
C8    C     C_R   0.845397 0.428257 0.452117 -0.170638
C9    C     C_R   0.766736 0.572652 0.457136 0.162591
C10   C     C_R   0.229004 0.427435 0.515941 0.167203
C11   C     C_R   0.229022 0.572512 0.516053 0.168125
C12   C     C_R   0.766637 0.427319 0.456876 0.163206
C13   C     C_R   0.726894 0.499994 0.468852 -0.181179
C14   C     C_R   0.270279 0.499980 0.514852 -0.179050
C15   C     C_R   0.884326 0.499943 0.453434 0.058597
C16   C     C_R   0.112466 0.499949 0.484913 0.058204
C17   C     C_1   0.964801 0.499923 0.459246 -0.003916
C18   C     C_1   0.032473 0.499930 0.468980 -0.002884
C19   C     C_R   0.452447 0.833284 0.438740 -0.006265
C20   C     C_R   0.547413 0.166767 0.561546 -0.006689
C21   C     C_R   0.547346 0.833333 0.561628 -0.007304
C22   C     C_R   0.452487 0.166608 0.438687 -0.006882
C23   C     C_R   0.453235 0.749095 0.439468 0.294462
C24   C     C_R   0.546763 0.250955 0.560579 0.294452
C25   C     C_R   0.546713 0.749153 0.560634 0.295508
C26   C     C_R   0.453258 0.250798 0.439441 0.295600
C27   C     C_R   0.499864 0.876204 0.500242 -0.012081
C28   C     C_R   0.499902 0.123797 0.500188 -0.012041
C29   C     C_1   0.499866 0.963709 0.500275 -0.029743
C30   C     C_1   0.499878 0.036292 0.500254 -0.029739
C31   C     C_R   0.501105 0.499960 0.326442 0.919667
C32   C     C_R   0.499032 0.500040 0.673574 0.923714
C33   C     C_R   0.496842 0.572461 0.814980 -0.206837
C34   C     C_R   0.504244 0.427539 0.185135 -0.206746
C35   C     C_R   0.497188 0.500180 0.769288 -0.089033
C36   C     C_R   0.503550 0.499819 0.230795 -0.088151
C37   C     C_R   0.496409 0.428090 0.814948 -0.201260
C38   C     C_R   0.504695 0.571907 0.185170 -0.201225
C39   C     C_R   0.498140 0.427576 0.907005 0.096423
C40   C     C_R   0.503364 0.572422 0.093133 0.095982
C41   C     C_R   0.499530 0.500337 0.953698 0.025761
C42   C     C_R   0.502060 0.499661 0.046442 0.025659
C43   C     C_R   0.498321 0.573648 0.907482 0.102850
C44   C     C_R   0.503177 0.426351 0.092656 0.102322
C45   C     C_R   0.499280 0.355191 0.952558 -0.226634
C46   C     C_R   0.502388 0.644807 0.047590 -0.226624
H1    H     H_    0.496013 0.627727 0.778197 0.199434
H2    H     H_    0.504923 0.372274 0.221913 0.200457
H3    H     H_    0.495104 0.372176 0.779035 0.182716
H4    H     H_    0.505871 0.627819 0.221083 0.183760
H5    H     H_    0.498491 0.299777 0.915629 0.154358
H6    H     H_    0.503182 0.700221 0.084519 0.154645
H7    H     H_    0.876604 0.627025 0.447655 0.171789
H8    H     H_    0.118756 0.372856 0.496484 0.171806
H9    H     H_    0.118785 0.627048 0.496686 0.171860
H10   H     H_    0.876435 0.372874 0.447198 0.171830
N1    N     N_R   0.500000 0.707230 0.500000 -0.164155
N2    N     N_R   0.500000 0.292770 0.500000 -0.164126
O1    O     O_R   0.389110 0.566570 0.500000 -0.579595
O2    O     O_R   0.610890 0.433430 0.500000 -0.578770
O3    O     O_R   0.610890 0.566570 0.500000 -0.579910
O4    O     O_R   0.389110 0.433430 0.500000 -0.580654
O5    O     O_R   0.499980 0.566550 0.367850 -0.610138
O6    O     O_R   0.500020 0.433450 0.632150 -0.609880
O7    O     O_R   0.500020 0.566550 0.632150 -0.612125
O8    O     O_R   0.499980 0.433450 0.367850 -0.612343
Zn1   Zn    Zn3+2 0.500000 0.588860 0.500000 1.028963
Zn2   Zn    Zn3+2 0.500000 0.411140 0.500000 1.029003
N3    N     N_3   0.503581 0.279079 0.092239 -0.438319
H11   H     H_    0.495356 0.231822 0.047462 0.196456
H12   H     H_    0.558365 0.272199 0.122618 0.193843
N4    N     N_3   0.498152 0.720923 0.907918 -0.438602
H13   H     H_    0.506628 0.768156 0.952683 0.196536
H14   H     H_    0.443309 0.727957 0.877749 0.193316
I1    I     I_    0.716839 0.686556 0.431748 -0.316987
I2    I     I_    0.274684 0.315908 0.560139 -0.313978
I3    I     I_    0.274750 0.684062 0.560417 -0.317524
I4    I     I_    0.716558 0.313493 0.431067 -0.320996
N5    N     N_3   0.402860 0.874380 0.374832 -0.413138
H15   H     H_    0.366099 0.910537 0.409275 0.209536
H16   H     H_    0.436187 0.910807 0.336310 0.195770
N6    N     N_3   0.597016 0.125726 0.625484 -0.413272
H17   H     H_    0.633704 0.089461 0.591071 0.210008
H18   H     H_    0.563688 0.089409 0.664128 0.195317
N7    N     N_3   0.596887 0.874494 0.625635 -0.410475
H19   H     H_    0.563512 0.910814 0.664264 0.196599
H20   H     H_    0.633588 0.910762 0.591283 0.209051
N8    N     N_3   0.402932 0.125402 0.374740 -0.410411
H21   H     H_    0.436287 0.088972 0.336210 0.197047
H22   H     H_    0.366175 0.089242 0.409146 0.208589
I5    I     I_    0.378043 0.692041 0.342598 -0.275470
I6    I     I_    0.622608 0.308129 0.656677 -0.270177
I7    I     I_    0.622474 0.692156 0.656813 -0.250766
I8    I     I_    0.378113 0.307683 0.342541 -0.255988

loop_
_geom_bond_atom_site_label_1
_geom_bond_atom_site_label_2
_ccdc_geom_bond_type
C26   I8    S    
C31   O8    A    
O8    Zn2   S    
C25   I7    S    
C20   N6    S    
C27   C29   S    
C41   C42   A    
C19   C23   A    
C7    H9    S    
C1    O4    A    
C8    H10   S    
C39   C41   A    
C4    C46   A    
N7    H19   S    
C40   C46   A    
C25   N1    A    
O6    Zn2   S    
C5    H7    S    
C3    N3    S    
N1    Zn1   S    
C1    O1    A    
C11   C14   A    
C2    O2    A    
C45   H5    S    
C46   H6    S    
C15   C17   S    
N3    H12   S    
C2    C13   S    
C9    C13   A    
C11   I3    S    
O1    Zn1   S    
C10   I2    S    
C20   C24   A    
O7    Zn1   S    
C12   I4    S    
C22   N8    S    
C19   C27   A    
C2    O3    A    
C39   C45   A    
C40   C42   A    
C21   C27   A    
C22   C28   A    
C41   C43   A    
C42   C44   A    
C6    H8    S    
C24   I6    S    
C21   N7    S    
N7    H20   S    
O5    Zn1   S    
C3    C44   A    
C33   C43   A    
C32   C35   S    
C31   O5    A    
C34   C44   A    
C32   O6    A    
N4    H14   S    
C10   C14   A    
N5    H16   S    
C20   C28   A    
C3    C45   A    
C7    C11   A    
C5    C9    A    
C29   C30   T    
C37   H3    S    
O3    Zn1   S    
C8    C12   A    
C17   C18   T    
C16   C18   S    
C12   C13   A    
C19   N5    S    
C26   N2    A    
N2    Zn2   S    
C7    C16   A    
N8    H22   S    
C8    C15   A    
N6    H18   S    
C33   H1    S    
C23   I5    S    
C34   H2    S    
C4    N4    S    
C23   N1    A    
C21   C25   A    
C35   C37   A    
N4    H13   S    
C6    C10   A    
C38   H4    S    
C4    C43   A    
O4    Zn2   S    
C28   C30   S    
C37   C39   A    
C38   C40   A    
C36   C38   A    
C33   C35   A    
C34   C36   A    
N3    H11   S    
C5    C15   A    
C6    C16   A    
N5    H15   S    
N8    H21   S    
O2    Zn2   S    
C24   N2    A    
N6    H17   S    
C22   C26   A    
C31   C36   S    
C1    C14   S    
C9    I1    S    
C32   O7    A    
