data_mof_unit_41716.cif
_audit_creation_date              2012-12-10T21:00:43-0500
_audit_creation_method            fapswitch 2.2
_symmetry_space_group_name_H-M    P1
_symmetry_Int_Tables_number       1
_space_group_crystal_system       triclinic
_cell_length_a                    18.119232
_cell_length_b                    18.209543
_cell_length_c                    18.405406
_cell_angle_alpha                 120.284204
_cell_angle_beta                  89.812436
_cell_angle_gamma                 120.010409
_cell_volume                      4281.92461727

loop_
_atom_site_label
_atom_site_type_symbol
_atom_type_description
_atom_site_fract_x
_atom_site_fract_y
_atom_site_fract_z
_atom_type_partial_charge
C1    C     C_R   0.110931 0.220374 0.609439 0.557721
C2    C     C_3   0.450073 0.896715 0.947048 0.036811
C3    C     C_3   0.446708 0.031035 0.020640 0.241426
C4    C     C_3   0.553292 0.968964 0.979360 0.241428
C5    C     C_3   0.412715 0.430480 0.448320 -0.095284
C6    C     C_3   0.587285 0.569520 0.551680 -0.095284
C7    C     C_3   0.482130 0.404588 0.447403 -0.126640
C8    C     C_3   0.517870 0.595412 0.552598 -0.126639
C9    C     C_3   0.550618 0.500215 0.449283 0.057804
C10   C     C_3   0.449382 0.499785 0.550718 0.057805
C11   C     C_3   0.482158 0.526224 0.449414 -0.119543
C12   C     C_R   0.889069 0.779625 0.390561 0.557728
C13   C     C_3   0.517843 0.473776 0.550586 -0.119543
C14   C     C_R   0.330277 0.218964 0.693682 -0.114393
C15   C     C_R   0.669703 0.781066 0.306409 -0.114414
C16   C     C_R   0.392826 0.780914 0.888152 0.507533
C17   C     C_R   0.607174 0.219086 0.111848 0.507533
C18   C     C_R   0.249043 0.160639 0.626295 -0.096373
C19   C     C_R   0.750956 0.839399 0.373774 -0.096367
C20   C     C_R   0.166231 0.112154 0.639126 0.028182
C21   C     C_R   0.833749 0.887843 0.360901 0.028165
C22   C     C_R   0.165639 0.122892 0.720204 -0.065409
C23   C     C_3   0.983329 0.429567 0.413188 -0.093297
C24   C     C_R   0.834305 0.877056 0.279801 -0.065422
C25   C     C_R   0.247167 0.181772 0.787674 -0.086223
C26   C     C_R   0.752758 0.818168 0.212352 -0.086209
C27   C     C_R   0.329431 0.229655 0.774365 -0.092216
C28   C     C_R   0.670512 0.770326 0.225704 -0.092250
C29   C     C_R   0.024257 0.944226 0.514421 0.207292
C30   C     C_R   0.975745 0.055773 0.485577 0.207305
C31   C     C_R   0.944965 0.892231 0.446747 0.035885
C32   C     C_R   0.055036 0.107768 0.553253 0.035884
C33   C     C_R   0.919842 0.946334 0.431305 -0.082268
C34   C     C_3   0.016671 0.570433 0.586812 -0.093290
C35   C     C_R   0.080156 0.053664 0.568698 -0.082273
C36   C     C_R   0.624174 0.502896 0.750278 -0.117259
C37   C     C_R   0.375842 0.497120 0.249733 -0.117252
C38   C     C_R   0.575958 0.475612 0.801940 -0.121734
C39   C     C_R   0.424057 0.524401 0.198069 -0.121717
C40   C     C_R   0.111101 0.501075 0.889896 0.513478
C41   C     C_R   0.888898 0.498925 0.110103 0.513465
C42   C     C_R   0.574053 0.550383 0.878973 0.035221
C43   C     C_R   0.425950 0.449623 0.121030 0.035228
C44   C     C_R   0.620837 0.652843 0.903698 -0.113827
C45   C     C_3   0.444000 0.965088 0.924584 -0.150624
C46   C     C_R   0.379157 0.347162 0.096302 -0.113835
C47   C     C_R   0.668100 0.679812 0.851389 -0.031392
C48   C     C_R   0.331894 0.320195 0.148613 -0.031393
C49   C     C_R   0.671228 0.605750 0.775146 0.273407
C50   C     C_R   0.328776 0.394263 0.224861 0.273413
C51   C     C_R   0.585261 0.520621 0.994245 0.190758
C52   C     C_R   0.414740 0.479382 0.005757 0.190756
C53   C     C_R   0.549637 0.495982 0.052854 0.018047
C54   C     C_R   0.450364 0.504020 0.947147 0.018049
C55   C     C_R   0.464104 0.474045 0.058533 -0.081159
C56   C     C_3   0.556000 0.034912 0.075416 -0.150622
C57   C     C_R   0.535897 0.525958 0.941468 -0.081151
C58   C     C_R   0.198528 0.841255 0.029165 -0.109453
C59   C     C_R   0.801470 0.158741 0.970829 -0.109449
C60   C     C_R   0.158939 0.758812 0.037578 -0.124751
C61   C     C_R   0.841052 0.241189 0.962425 -0.124739
C62   C     C_R   0.074981 0.665329 0.975933 0.049826
C63   C     C_R   0.925015 0.334668 0.024063 0.049835
C64   C     C_R   0.392460 0.499908 0.607764 0.501279
C65   C     C_R   0.607540 0.500092 0.392236 0.501281
C66   C     C_R   0.029938 0.655396 0.905001 0.301420
C67   C     C_3   0.549268 0.038081 0.957127 -0.114363
C68   C     C_R   0.970069 0.344592 0.094982 0.301411
C69   C     C_R   0.071195 0.738896 0.897490 -0.038301
C70   C     C_R   0.928821 0.261085 0.102483 -0.038319
C71   C     C_R   0.154971 0.831161 0.959033 -0.127579
C72   C     C_R   0.845040 0.168824 0.040946 -0.127586
C73   C     C_R   0.982546 0.575595 0.039250 -0.148029
C74   C     C_R   0.017451 0.424403 0.960748 -0.148004
C75   C     C_R   0.945195 0.497484 0.053396 0.017083
C76   C     C_R   0.054803 0.502514 0.946602 0.017102
C77   C     C_R   0.962942 0.420825 0.013593 -0.050151
C78   C     C_3   0.450732 0.961919 0.042873 -0.114364
C79   C     C_R   0.037054 0.579173 0.986404 -0.050149
C80   C     C_R   0.394134 0.500498 0.888893 0.556040
C81   C     C_R   0.605866 0.499503 0.111107 0.556045
C82   C     C_R   0.109053 0.500351 0.607909 0.510086
C83   C     C_R   0.890947 0.499649 0.392091 0.510082
C84   C     C_3   0.078934 0.526124 0.483013 -0.107961
C85   C     C_3   0.921066 0.473876 0.516987 -0.107954
C86   C     C_3   0.041715 0.592712 0.516884 0.088338
C87   C     C_3   0.958284 0.407288 0.483115 0.088341
C88   C     C_3   0.948023 0.498668 0.448335 0.040084
C89   C     C_3   0.549927 0.103285 0.052952 0.036811
C90   C     C_3   0.051977 0.501331 0.551665 0.040086
H1    H     H_    0.392456 0.275196 0.826600 0.106316
H2    H     H_    0.753267 0.809315 0.149646 0.107306
H3    H     H_    0.626264 0.444485 0.692019 0.093247
H4    H     H_    0.373761 0.555536 0.307997 0.093238
H5    H     H_    0.543413 0.397530 0.784229 0.117199
H6    H     H_    0.456613 0.602486 0.215784 0.117187
H7    H     H_    0.622187 0.712144 0.964488 0.108499
H8    H     H_    0.377799 0.287857 0.035509 0.108492
H9    H     H_    0.144410 0.549536 0.470576 0.126917
H10   H     H_    0.855590 0.450464 0.529424 0.126918
H11   H     H_    0.704344 0.759234 0.871436 0.141706
H12   H     H_    0.607473 0.724778 0.173485 0.106319
H13   H     H_    0.295641 0.240771 0.128562 0.141703
H14   H     H_    0.186076 0.895036 0.952430 0.144474
H15   H     H_    0.813941 0.104944 0.047542 0.144474
H16   H     H_    0.263111 0.913082 0.077085 0.157421
H17   H     H_    0.736883 0.086918 0.922914 0.157420
H18   H     H_    0.193977 0.767498 0.091951 0.111627
H19   H     H_    0.806006 0.232511 0.908061 0.111624
H20   H     H_    0.038042 0.732084 0.843386 0.131328
H21   H     H_    0.961984 0.267888 0.156576 0.131343
H22   H     H_    0.969876 0.635100 0.069920 0.154838
H23   H     H_    0.393738 0.255854 0.683151 0.097238
H24   H     H_    0.030122 0.364899 0.930078 0.154843
H25   H     H_    0.968188 0.370474 0.342078 0.138923
H26   H     H_    0.031813 0.629526 0.657922 0.138917
H27   H     H_    0.590554 0.069699 0.922560 0.111803
H28   H     H_    0.409446 0.930301 0.077440 0.111807
H29   H     H_    0.397020 0.936363 0.863426 0.116740
H30   H     H_    0.602980 0.063637 0.136573 0.116743
H31   H     H_    0.468450 0.326348 0.403160 0.122308
H32   H     H_    0.531550 0.673652 0.596841 0.122307
H33   H     H_    0.340024 0.372602 0.407459 0.176983
H34   H     H_    0.606256 0.744207 0.316973 0.097250
H35   H     H_    0.659976 0.627398 0.592540 0.176984
H36   H     H_    0.469586 0.548983 0.407777 0.116843
H37   H     H_    0.530416 0.451018 0.592224 0.116846
H38   H     H_    0.091212 0.686825 0.475012 0.242878
H39   H     H_    0.047080 0.721983 0.556147 0.262677
H40   H     H_    0.908794 0.313175 0.524988 0.242889
H41   H     H_    0.952916 0.278012 0.443844 0.262669
H42   H     H_    0.105735 0.929302 0.567446 0.331576
H43   H     H_    0.894289 0.070694 0.432516 0.331578
H44   H     H_    0.718531 0.575942 0.676955 0.317378
H45   H     H_    0.250524 0.153598 0.564340 0.103775
H46   H     H_    0.281482 0.424078 0.323057 0.317378
H47   H     H_    0.698402 0.582991 0.970304 0.334246
H48   H     H_    0.301600 0.417013 0.029698 0.334251
H49   H     H_    0.925102 0.513519 0.853906 0.330436
H50   H     H_    0.074882 0.486492 0.146109 0.330439
H51   H     H_    0.394990 0.097861 0.013442 0.324461
H52   H     H_    0.605010 0.902139 0.986559 0.324459
H53   H     H_    0.749504 0.846477 0.435747 0.103800
H54   H     H_    0.102236 0.086676 0.731301 0.121912
H55   H     H_    0.897693 0.913239 0.268670 0.121896
H56   H     H_    0.246628 0.190586 0.850363 0.107295
N1    N     N_3   0.087957 0.695695 0.535379 -0.613943
N2    N     N_3   0.912042 0.304304 0.464620 -0.613939
O1    O     O_3   0.251620 0.500000 0.748430 -0.458777
O2    O     O_R   0.570330 0.268390 0.136490 -0.523607
O3    O     O_R   0.134680 0.268390 0.572240 -0.498528
O4    O     O_R   0.865320 0.731610 0.427760 -0.498526
O5    O     O_R   0.306670 0.731630 0.863510 -0.542620
O6    O     O_R   0.693330 0.268370 0.136490 -0.542617
O7    O     O_R   0.135450 0.439270 0.865360 -0.537795
O8    O     O_R   0.864550 0.560730 0.134640 -0.537795
O9    O     O_R   0.429670 0.560710 0.692610 -0.533315
O10   O     O_R   0.570330 0.439290 0.307390 -0.533313
O11   O     O_R   0.308540 0.439240 0.865360 -0.476751
O12   O     O_3   0.748380 0.500000 0.251570 -0.458775
O13   O     O_R   0.691460 0.560760 0.134640 -0.476756
O14   O     O_R   0.133580 0.439310 0.571150 -0.535818
O15   O     O_R   0.866420 0.560690 0.428850 -0.535820
O16   O     O_R   0.430770 0.560690 0.864590 -0.561197
O17   O     O_R   0.569230 0.439310 0.135410 -0.561192
O18   O     O_R   0.133580 0.560760 0.692610 -0.537879
O19   O     O_R   0.866420 0.439240 0.307390 -0.537881
O20   O     O_3   0.045493 0.884766 0.522618 -0.691143
O21   O     O_3   0.954510 0.115233 0.477378 -0.691136
O22   O     O_3   0.722275 0.636620 0.727812 -0.712121
O23   O     O_R   0.134680 0.560740 0.864590 -0.531671
O24   O     O_3   0.277729 0.363397 0.272197 -0.712120
O25   O     O_3   0.666975 0.534613 0.987483 -0.670172
O26   O     O_3   0.333027 0.465392 0.012520 -0.670158
O27   O     O_3   0.947291 0.566424 0.841426 -0.702293
O28   O     O_3   0.052719 0.433561 0.158554 -0.702291
O29   O     O_3   0.390078 0.064173 0.043654 -0.698557
O30   O     O_3   0.609922 0.935827 0.956346 -0.698555
O31   O     O_R   0.865320 0.439260 0.135410 -0.531684
O32   O     O_R   0.306670 0.439270 0.571150 -0.552880
O33   O     O_R   0.693330 0.560730 0.428850 -0.552880
O34   O     O_R   0.135450 0.268370 0.694460 -0.548131
O35   O     O_R   0.864550 0.731630 0.305540 -0.548139
O36   O     O_R   0.429670 0.731610 0.863510 -0.523608
Zn1   Zn    Zn3+2 0.207400 0.586780 0.791530 0.952228
Zn2   Zn    Zn3+2 0.792600 0.413220 0.208470 0.952220
Zn3   Zn    Zn3+2 0.208510 0.413230 0.792630 0.969357
Zn4   Zn    Zn3+2 0.791490 0.586770 0.207370 0.969347
Zn5   Zn    Zn3+2 0.383150 0.586740 0.791530 0.939496
Zn6   Zn    Zn3+2 0.616850 0.413260 0.208470 0.939503
Zn7   Zn    Zn3+2 0.207400 0.413250 0.618010 0.955545
Zn8   Zn    Zn3+2 0.792600 0.586750 0.381990 0.955547

loop_
_geom_bond_atom_site_label_1
_geom_bond_atom_site_label_2
_ccdc_geom_bond_type
O8    Zn4   S    
C71   H14   S    
O1    Zn1   S    
C47   H11   S    
O18   Zn1   S    
C73   C75   A    
C12   O4    A    
H49   O27   S    
C17   O2    A    
C84   C90   S    
C76   C79   A    
O12   Zn2   S    
C61   H19   S    
C86   N1    S    
C6    C9    S    
C68   O28   S    
C47   C49   A    
O31   Zn2   S    
C65   O33   A    
C15   C19   A    
O6    Zn2   S    
C50   O24   S    
C74   C76   A    
H51   O29   S    
C29   O20   S    
C53   C81   S    
C78   H28   S    
C84   C86   S    
C5    C11   S    
O13   Zn4   S    
C24   H55   S    
O10   Zn6   S    
C82   O18   A    
C49   O22   S    
C64   O32   A    
O33   Zn8   S    
C86   C88   S    
C58   C71   A    
C66   C69   A    
C21   C33   S    
C26   H2    S    
C74   H24   S    
C67   C89   S    
C56   C78   S    
C60   C62   A    
C34   C86   S    
O11   Zn3   S    
C61   C63   A    
C14   C18   A    
C80   O16   A    
H43   O21   S    
C20   C35   S    
C36   H3    S    
H46   O24   S    
C74   C77   A    
C64   O9    A    
H48   O26   S    
C31   C33   A    
C40   O7    A    
C27   H1    S    
O15   Zn8   S    
C51   C57   A    
C14   C27   A    
O9    Zn5   S    
C2    C16   S    
C60   H18   S    
C52   C55   A    
C59   C72   A    
C41   O8    A    
C45   H29   S    
O3    Zn7   S    
C83   C88   S    
C46   H8    S    
C69   C71   A    
C10   C13   S    
C23   C87   S    
C4    C56   S    
C56   H30   S    
C42   C44   A    
C7    H31   S    
C17   O6    A    
C42   C57   S    
O14   Zn7   S    
C52   C54   A    
C58   C60   A    
C54   C80   S    
C53   C55   A    
C2    C45   S    
C46   C48   A    
C5    H33   S    
C59   C61   A    
O1    Zn7   S    
C15   H34   S    
C62   C66   A    
C85   C87   S    
H40   N2    S    
C32   C35   A    
C62   C79   S    
C18   H45   S    
C11   H36   S    
C17   C89   S    
O12   Zn8   S    
C87   N2    S    
C5    C7    S    
O23   Zn1   S    
C80   O11   A    
C39   C43   A    
C23   C84   S    
C82   O14   A    
O19   Zn2   S    
C83   O19   A    
C22   C25   A    
C1    C32   S    
C59   H17   S    
C40   C76   S    
C58   H16   S    
C34   C85   S    
C38   H5    S    
C2    C4    S    
C34   C90   S    
C30   O21   S    
C45   C67   S    
C2    C78   S    
C41   C75   S    
C67   H27   S    
C44   H7    S    
H50   O28   S    
C16   O36   A    
O17   Zn6   S    
C73   C79   A    
C21   C24   A    
H41   N2    S    
C75   C77   A    
C25   H56   S    
C68   C70   A    
C56   C89   S    
C69   H20   S    
C20   C22   A    
O1    Zn3   S    
C23   C88   S    
C9    C11   S    
C12   C31   S    
C66   O27   S    
O1    Zn5   S    
O12   Zn4   S    
O16   Zn5   S    
C52   O26   S    
C73   H22   S    
C63   C77   S    
C85   C88   S    
C43   C55   S    
C7    C9    S    
C83   O15   A    
C63   C68   A    
C19   H53   S    
C30   C33   A    
C19   C21   A    
C84   H9    S    
C81   O13   A    
C41   O31   A    
C8    C10   S    
C10   C64   S    
H42   O20   S    
C6    H35   S    
C4    O30   S    
C65   O10   A    
O32   Zn7   S    
C4    C67   S    
C6    C8    S    
C1    O34   A    
C44   C47   A    
H38   N1    S    
C38   C42   A    
C25   C27   A    
C14   H23   S    
C29   C35   A    
C26   C28   A    
C82   C90   S    
C3    C89   S    
C36   C38   A    
H47   O25   S    
C3    O29   S    
O12   Zn6   S    
C5    C10   S    
C29   C31   A    
C85   H10   S    
O7    Zn3   S    
O35   Zn4   S    
O4    Zn8   S    
C6    C13   S    
C30   C32   A    
C37   C50   A    
C48   H13   S    
C24   C26   A    
C8    H32   S    
C15   C28   A    
H52   O30   S    
O5    Zn1   S    
C8    C11   S    
C48   C50   A    
C12   O35   A    
C3    C45   S    
C37   H4    S    
C1    O3    A    
C18   C20   A    
O34   Zn3   S    
C43   C46   A    
C9    C65   S    
C39   H6    S    
H39   N1    S    
C51   O25   S    
C70   H21   S    
C23   H25   S    
O2    Zn6   S    
C13   H37   S    
C28   H12   S    
C7    C13   S    
C72   H15   S    
C37   C39   A    
H44   O22   S    
C87   C90   S    
C22   H54   S    
C16   O5    A    
C81   O17   A    
O36   Zn5   S    
C70   C72   A    
C51   C53   A    
C3    C78   S    
C34   H26   S    
C40   O23   A    
C36   C49   A    
C54   C57   A    
