data_mof_unit_51181.cif
_audit_creation_date              2012-12-10T18:57:44-0500
_audit_creation_method            fapswitch 2.2
_symmetry_space_group_name_H-M    P1
_symmetry_Int_Tables_number       1
_space_group_crystal_system       triclinic
_cell_length_a                    10.906257
_cell_length_b                    10.856444
_cell_length_c                    9.572841
_cell_angle_alpha                 90.337709
_cell_angle_beta                  89.678853
_cell_angle_gamma                 90.878707
_cell_volume                      1133.2844877

loop_
_atom_site_label
_atom_site_type_symbol
_atom_type_description
_atom_site_fract_x
_atom_site_fract_y
_atom_site_fract_z
_atom_type_partial_charge
C1    C     C_R   0.500573 0.262799 0.499604 0.825361
C2    C     C_R   0.433316 0.413944 0.072020 0.070349
C3    C     C_R   0.434352 0.415267 0.923457 -0.054177
C4    C     C_R   0.265278 0.496522 0.500625 0.849059
C5    C     C_R   0.557484 0.592586 0.926905 0.249954
C6    C     C_3   0.690310 0.627050 0.920838 -0.497270
C7    C     C_3   0.689946 0.627645 0.079435 -0.486510
C8    C     C_R   0.501101 0.737230 0.500081 0.803974
C9    C     C_R   0.734534 0.495437 0.499257 0.898851
C10   C     C_2   0.934453 0.440840 0.395018 0.030530
C11   C     C_2   0.867248 0.495295 0.496894 -0.333700
C12   C     C_R   0.503634 0.130209 0.497902 -0.097114
C13   C     C_2   0.067679 0.462478 0.389253 -0.247962
C14   C     C_2   0.133228 0.482454 0.505081 -0.311607
C15   C     C_R   0.495239 0.062677 0.620259 0.099246
C16   C     C_2   0.882475 0.357501 0.285739 0.383245
C17   C     C_2   0.358211 0.315668 0.139246 0.333733
C18   C     C_R   0.515554 0.064149 0.371249 -0.152166
C19   C     C_R   0.515877 0.934913 0.371571 -0.211379
C20   C     C_R   0.504410 0.869944 0.498601 -0.103710
C21   C     C_R   0.495843 0.938685 0.620646 0.119964
C22   C     C_3   0.477062 0.930505 0.774603 -0.454194
C23   C     C_3   0.476210 0.072349 0.774150 -0.414349
C24   C     C_R   0.557331 0.592763 0.073969 0.237665
Cu1   Cu    Cu3+1 0.499990 0.499980 0.640670 0.944278
Cu2   Cu    Cu3+1 0.500010 0.500020 0.359330 0.959967
H1    H     H_    0.556104 0.115677 0.827986 0.211289
H2    H     H_    0.523931 0.111497 0.272318 0.198447
H3    H     H_    0.524276 0.886654 0.272699 0.169297
H4    H     H_    0.386912 0.887970 0.802460 0.205702
H5    H     H_    0.557587 0.891752 0.828586 0.193474
H6    H     H_    0.385427 0.111213 0.801430 0.221409
H7    H     H_    0.930387 0.347315 0.186753 0.052163
H8    H     H_    0.320782 0.325734 0.242531 0.132727
H9    H     H_    0.382405 0.347138 0.864628 0.173274
H10   H     H_    0.747810 0.553087 0.875404 0.220587
H11   H     H_    0.706091 0.719856 0.875216 0.188514
H12   H     H_    0.747466 0.554287 0.124298 0.220654
H13   H     H_    0.704863 0.720925 0.125346 0.192345
H14   H     H_    0.910204 0.551358 0.577513 0.125153
H15   H     H_    0.113358 0.455076 0.288385 0.154750
H16   H     H_    0.090950 0.479793 0.607901 0.153712
N1    N     N_R   0.500780 0.500930 0.147930 -0.225747
N2    N     N_R   0.500780 0.500890 0.852020 -0.208966
O1    O     O_R   0.500000 0.319640 0.618810 -0.590175
O2    O     O_2   0.334554 0.219804 0.076869 -0.597582
O3    O     O_R   0.500010 0.319680 0.381230 -0.588121
O4    O     O_R   0.321940 0.499980 0.618760 -0.587265
O5    O     O_R   0.321950 0.500020 0.381180 -0.611310
O6    O     O_R   0.499990 0.680320 0.618770 -0.580656
O7    O     O_R   0.500000 0.680360 0.381190 -0.588790
O8    O     O_R   0.678050 0.499980 0.618820 -0.592053
O9    O     O_R   0.678060 0.500020 0.381240 -0.547736
O10   O     O_2   0.790912 0.294201 0.307489 -0.537132

loop_
_geom_bond_atom_site_label_1
_geom_bond_atom_site_label_2
_ccdc_geom_bond_type
C6    C7    S    
Cu1   O6    S    
C23   H1    S    
C16   H7    S    
C2    N1    A    
C19   C20   A    
Cu1   O4    S    
C12   C15   A    
C3    H9    S    
C4    O5    A    
C14   H16   S    
C23   H6    S    
C13   H15   S    
C2    C3    A    
C6    H11   S    
C10   C16   S    
Cu2   O7    S    
C17   O2    D    
C2    C17   S    
C9    C11   S    
C8    O7    A    
C1    O1    A    
C17   H8    S    
C8    C20   S    
C5    C24   A    
Cu2   O3    S    
Cu1   N2    S    
C15   C23   S    
C7    H12   S    
C6    H10   S    
Cu2   N1    S    
C9    O8    A    
C10   C11   D    
C4    C14   S    
C5    C6    S    
C16   O10   D    
C3    N2    A    
Cu1   O8    S    
C9    O9    A    
C22   H5    S    
Cu1   O1    S    
C11   H14   S    
C19   H3    S    
Cu2   O9    S    
C8    O6    A    
C15   C21   A    
C18   H2    S    
C20   C21   A    
C18   C19   A    
C4    O4    A    
Cu2   O5    S    
C12   C18   A    
C24   N1    A    
C7    H13   S    
C22   C23   S    
C1    O3    A    
C22   H4    S    
C13   C14   D    
Cu1   Cu2   S    
C21   C22   S    
C5    N2    A    
C1    C12   S    
C7    C24   S    
C10   C13   S    
