data_mof_unit_11211.cif
_audit_creation_date              2013-03-05T15:45:24-0500
_audit_creation_method            fapswitch 2.2
_symmetry_space_group_name_H-M    P1
_symmetry_Int_Tables_number       1
_space_group_crystal_system       triclinic
_cell_length_a                    29.683027
_cell_length_b                    17.102534
_cell_length_c                    19.280359
_cell_angle_alpha                 89.997263
_cell_angle_beta                  140.164848
_cell_angle_gamma                 89.998593
_cell_volume                      6269.85897055

loop_
_atom_site_label
_atom_site_type_symbol
_atom_site_description
_atom_site_fract_x
_atom_site_fract_y
_atom_site_fract_z
_atom_type_partial_charge
C1    C     C_R   0.190308 0.396339 0.789567 0.567085
C2    C     C_R   0.823803 0.582721 0.186510 0.576010
C3    C     C_R   0.809690 0.396485 0.210200 0.563757
C4    C     C_R   0.177784 0.584620 0.813148 0.595841
C5    C     C_R   0.690322 0.896471 0.789717 0.563365
C6    C     C_R   0.324015 0.082573 0.186506 0.575327
C7    C     C_R   0.309699 0.896095 0.209891 0.574618
C8    C     C_R   0.675970 0.082509 0.813498 0.576306
N1    N     N_R   0.127770 0.430660 0.707120 -0.099274
N2    N     N_R   0.872230 0.569340 0.292880 -0.093101
N3    N     N_R   0.872230 0.430660 0.292880 -0.099661
N4    N     N_R   0.127770 0.569340 0.707120 -0.096776
N5    N     N_R   0.627770 0.930660 0.707120 -0.099889
N6    N     N_R   0.372230 0.069340 0.292880 -0.093741
N7    N     N_R   0.372230 0.930660 0.292880 -0.102182
N8    N     N_R   0.627770 0.069340 0.707120 -0.093080
C9    C     C_R   0.835030 0.608075 0.419760 0.581595
C10   C     C_R   0.143482 0.412425 0.525999 0.511152
C11   C     C_R   0.165127 0.607043 0.580185 0.581542
C12   C     C_R   0.856543 0.412525 0.474042 0.512489
C13   C     C_R   0.334750 0.108235 0.418803 0.583454
C14   C     C_R   0.643224 0.912837 0.525498 0.511733
C15   C     C_R   0.665193 0.108181 0.580992 0.583102
C16   C     C_R   0.357005 0.913443 0.475027 0.514016
N9    N     N_R   0.889730 0.573880 0.452970 -0.156673
N10   N     N_R   0.110270 0.426120 0.547030 -0.120680
N11   N     N_R   0.110270 0.573880 0.547030 -0.158909
N12   N     N_R   0.889730 0.426120 0.452970 -0.120164
N13   N     N_R   0.389730 0.073880 0.452970 -0.157027
N14   N     N_R   0.610270 0.926120 0.547030 -0.120276
N15   N     N_R   0.610270 0.073880 0.547030 -0.156425
N16   N     N_R   0.389730 0.926120 0.452970 -0.119976
C17   C     C_R   0.939097 0.323239 0.558558 0.503502
C18   C     C_R   0.080208 0.693029 0.485077 0.400115
C19   C     C_R   0.060869 0.323242 0.441401 0.503161
C20   C     C_R   0.920297 0.693441 0.514797 0.399559
C21   C     C_R   0.439424 0.824005 0.559616 0.498040
C22   C     C_R   0.580165 0.193735 0.486434 0.391447
C23   C     C_R   0.560674 0.823559 0.440904 0.502883
C24   C     C_R   0.419799 0.193741 0.513511 0.391389
N17   N     N_R   0.941150 0.372910 0.507880 -0.155606
N18   N     N_R   0.058850 0.627090 0.492120 -0.150992
N19   N     N_R   0.058850 0.372910 0.492120 -0.155725
N20   N     N_R   0.941150 0.627090 0.507880 -0.149814
N21   N     N_R   0.441150 0.872910 0.507880 -0.154596
N22   N     N_R   0.558850 0.127090 0.492120 -0.150460
N23   N     N_R   0.558850 0.872910 0.492120 -0.154825
N24   N     N_R   0.441150 0.127090 0.507880 -0.150646
C25   C     C_R   0.095957 0.679763 0.726223 -0.124517
C26   C     C_R   0.889965 0.302457 0.291463 -0.090644
C27   C     C_R   0.907675 0.675177 0.273893 -0.126328
C28   C     C_R   0.110003 0.302423 0.708465 -0.091448
C29   C     C_R   0.591841 0.174674 0.725971 -0.124163
C30   C     C_R   0.390161 0.802217 0.293027 -0.122380
C31   C     C_R   0.408154 0.174699 0.274028 -0.124008
C32   C     C_R   0.610092 0.802421 0.708383 -0.089535
H1    H     H_    0.070533 0.733052 0.711968 0.195846
H2    H     H_    0.912827 0.244997 0.314380 0.186258
H3    H     H_    0.934632 0.726641 0.287983 0.188447
H4    H     H_    0.087107 0.244989 0.685553 0.185786
H5    H     H_    0.564493 0.225818 0.711666 0.189270
H6    H     H_    0.413305 0.744880 0.316502 0.189877
H7    H     H_    0.435498 0.225841 0.288331 0.189307
H8    H     H_    0.587274 0.744929 0.685348 0.185141
N25   N     N_R   0.076340 0.631640 0.652210 -0.094443
N26   N     N_R   0.923660 0.368360 0.347790 -0.102646
N27   N     N_R   0.923660 0.631640 0.347790 -0.091647
N28   N     N_R   0.076340 0.368360 0.652210 -0.102355
N29   N     N_R   0.576340 0.131640 0.652210 -0.091386
N30   N     N_R   0.423660 0.868360 0.347790 -0.100964
N31   N     N_R   0.423660 0.131640 0.347790 -0.091449
N32   N     N_R   0.576340 0.868360 0.652210 -0.101816
C33   C     C_R   0.180484 0.318544 0.793647 -0.048819
C34   C     C_R   0.846109 0.646004 0.173595 -0.073792
C35   C     C_R   0.819485 0.318670 0.206140 -0.048180
C36   C     C_R   0.157941 0.650827 0.825965 -0.075258
C37   C     C_R   0.680568 0.818612 0.793644 -0.048098
C38   C     C_R   0.346612 0.145561 0.173663 -0.075024
C39   C     C_R   0.319732 0.817844 0.207773 -0.028342
C40   C     C_R   0.653397 0.145530 0.826341 -0.075768
C41   C     C_R   0.853844 0.682448 0.463467 -0.006885
C42   C     C_R   0.108811 0.351079 0.450108 -0.121935
C43   C     C_R   0.146670 0.681022 0.536801 0.009754
C44   C     C_R   0.891157 0.351116 0.549856 -0.122861
C45   C     C_R   0.353258 0.182767 0.461770 -0.003209
C46   C     C_R   0.608481 0.851633 0.449388 -0.123909
C47   C     C_R   0.646668 0.182750 0.538068 -0.003345
C48   C     C_R   0.391696 0.852481 0.551340 -0.121806
Ni1   Ni    Ni4+2 0.119340 0.500000 0.625930 0.297087
Ni2   Ni    Ni4+2 0.880660 0.500000 0.374070 0.295040
Ni3   Ni    Ni4+2 0.619340 1.000000 0.625930 0.294814
Ni4   Ni    Ni4+2 0.380660 1.000000 0.374070 0.296353
Ni5   Ni    Ni4+2 1.000000 0.373980 0.500000 0.191414
Ni6   Ni    Ni4+2 0.000000 0.626020 0.500000 0.211604
Ni7   Ni    Ni4+2 0.500000 0.873980 0.500000 0.188887
Ni8   Ni    Ni4+2 0.500000 0.126020 0.500000 0.213196
C49   C     C_R   0.713496 0.153925 0.009191 -0.284789
C50   C     C_R   0.278436 0.795997 0.044686 -0.225114
C51   C     C_R   0.286751 0.153981 0.990961 -0.286590
C52   C     C_R   0.749372 0.808384 0.977363 -0.239564
C53   C     C_R   0.195242 0.670597 0.988791 -0.258128
C54   C     C_R   0.749736 0.308373 0.021909 -0.240518
C55   C     C_R   0.786618 0.654254 0.991210 -0.283434
C56   C     C_R   0.250001 0.308248 0.977769 -0.239110
H9    H     H_    0.697286 0.094440 0.001003 0.200320
H10   H     H_    0.312487 0.843657 0.068951 0.189193
H11   H     H_    0.303153 0.094569 0.999338 0.200820
H12   H     H_    0.732118 0.867096 0.969915 0.184390
H13   H     H_    0.161460 0.622432 0.963879 0.200666
H14   H     H_    0.766577 0.367226 0.028855 0.184641
H15   H     H_    0.803228 0.594904 0.999869 0.200180
H16   H     H_    0.232976 0.367027 0.970640 0.185983
C57   C     C_R   0.752214 0.196128 0.103706 0.388114
C58   C     C_R   0.243449 0.753397 0.953639 0.393978
C59   C     C_R   0.248023 0.196150 0.896398 0.388505
C60   C     C_R   0.784365 0.765604 0.068088 0.388579
C61   C     C_R   0.232836 0.711770 0.083354 0.376732
C62   C     C_R   0.714542 0.265528 0.931137 0.388929
C63   C     C_R   0.748118 0.696368 0.896728 0.388070
C64   C     C_R   0.285248 0.265441 0.068607 0.389626
C65   C     C_R   0.770010 0.273910 0.108366 -0.103533
C66   C     C_R   0.200488 0.691659 0.925095 -0.120212
C67   C     C_R   0.229951 0.273835 0.891490 -0.104383
C68   C     C_R   0.804137 0.688773 0.075391 -0.092161
C69   C     C_R   0.273937 0.775171 0.109210 -0.119771
C70   C     C_R   0.695314 0.188498 0.924424 -0.090978
C71   C     C_R   0.729859 0.774008 0.891534 -0.103935
C72   C     C_R   0.304712 0.188501 0.075548 -0.091519
C73   C     C_R   0.121962 0.320554 0.394869 -0.126929
C74   C     C_R   0.806312 0.735655 0.445383 -0.140866
C75   C     C_R   0.877983 0.320563 0.605050 -0.126581
C76   C     C_R   0.195004 0.734069 0.557503 -0.129565
C77   C     C_R   0.621627 0.821174 0.394101 -0.125548
C78   C     C_R   0.305706 0.235797 0.443785 -0.142235
C79   C     C_R   0.377937 0.821911 0.605846 -0.123428
C80   C     C_R   0.694140 0.235817 0.555926 -0.142029
C81   C     C_R   0.745368 0.859735 0.393346 0.227454
C82   C     C_R   0.149008 0.200694 0.367826 0.205879
C83   C     C_R   0.255186 0.858486 0.609714 0.219939
C84   C     C_R   0.850710 0.200659 0.631634 0.205664
C85   C     C_R   0.244685 0.359706 0.392197 0.225176
C86   C     C_R   0.648889 0.701099 0.367783 0.206140
C87   C     C_R   0.755137 0.359725 0.607483 0.227080
C88   C     C_R   0.350281 0.701268 0.630398 0.207022
C89   C     C_R   0.797369 0.816278 0.419781 0.214187
C90   C     C_R   0.101879 0.244112 0.352639 0.264965
C91   C     C_R   0.205864 0.813350 0.588848 0.228876
C92   C     C_R   0.897942 0.244056 0.647061 0.265191
C93   C     C_R   0.296500 0.316406 0.417982 0.216847
C94   C     C_R   0.601501 0.744761 0.351817 0.265765
C95   C     C_R   0.703390 0.316407 0.581840 0.214028
C96   C     C_R   0.398073 0.745445 0.647847 0.262901
C97   C     C_R   0.763431 0.699797 0.444685 0.611842
C98   C     C_R   0.162584 0.363806 0.395655 0.531489
C99   C     C_R   0.236037 0.699468 0.554032 0.602989
C100  C     C_R   0.837376 0.363821 0.604286 0.531976
C101  C     C_R   0.263176 0.199761 0.443694 0.609671
C102  C     C_R   0.662551 0.864234 0.395376 0.532621
C103  C     C_R   0.736553 0.199830 0.555767 0.610247
C104  C     C_R   0.336536 0.864546 0.604136 0.532098
C105  C     C_R   0.706142 0.740518 0.404423 -0.284065
C106  C     C_R   0.203671 0.322574 0.395240 -0.258401
C107  C     C_R   0.293084 0.740417 0.594149 -0.281839
C108  C     C_R   0.796173 0.322597 0.604471 -0.258487
C109  C     C_R   0.205997 0.240305 0.403919 -0.283058
C110  C     C_R   0.703945 0.822792 0.395696 -0.258551
C111  C     C_R   0.793762 0.240330 0.595609 -0.283478
C112  C     C_R   0.295264 0.822587 0.603842 -0.256432
O1    O     O_3   0.250814 0.425282 0.831361 -0.672977
H17   H     H_    0.288430 0.385518 0.880869 0.345745
O2    O     O_3   0.758379 0.548774 0.107562 -0.684514
H18   H     H_    0.731491 0.571368 0.036663 0.344135
O3    O     O_3   0.749031 0.425754 0.167658 -0.673412
H19   H     H_    0.711383 0.386053 0.118032 0.345421
O4    O     O_3   0.241786 0.547661 0.892259 -0.679665
H20   H     H_    0.269231 0.570994 0.963140 0.344662
O5    O     O_3   0.750976 0.925858 0.832345 -0.673598
H21   H     H_    0.788638 0.886152 0.881921 0.345769
O6    O     O_3   0.258447 0.048982 0.107470 -0.683420
H22   H     H_    0.231732 0.071432 0.036596 0.343122
O7    O     O_3   0.248726 0.925500 0.166165 -0.667705
H23   H     H_    0.210996 0.886071 0.115410 0.349570
O8    O     O_3   0.741453 0.048687 0.892570 -0.684647
H24   H     H_    0.768153 0.071066 0.963462 0.343809
O9    O     O_3   0.766254 0.585760 0.328522 -0.613711
H25   H     H_    0.766441 0.542845 0.294191 0.376879
O10   O     O_3   0.209115 0.441692 0.589264 -0.670239
H26   H     H_    0.234673 0.401898 0.591987 0.333272
O11   O     O_3   0.233790 0.584522 0.671701 -0.606419
H27   H     H_    0.233345 0.542038 0.706145 0.378090
O12   O     O_3   0.791040 0.442112 0.411010 -0.670321
H28   H     H_    0.765355 0.402389 0.408099 0.332911
O13   O     O_3   0.266067 0.085789 0.327261 -0.613501
H29   H     H_    0.266555 0.042543 0.293613 0.376607
O14   O     O_3   0.708670 0.942495 0.588356 -0.669975
H30   H     H_    0.734381 0.902744 0.591351 0.333152
O15   O     O_3   0.733880 0.085596 0.672265 -0.614090
H31   H     H_    0.733460 0.042399 0.706043 0.376846
O16   O     O_3   0.291781 0.943587 0.412607 -0.666427
H32   H     H_    0.265891 0.904029 0.409443 0.336742
O17   O     O_3   0.962227 0.247439 0.581501 -0.675396
H33   H     H_    0.971447 0.236757 0.542676 0.318368
O18   O     O_3   0.050242 0.765223 0.458964 -0.673560
H34   H     H_    0.017988 0.760867 0.460958 0.327939
O19   O     O_3   0.037709 0.247458 0.418423 -0.675338
H35   H     H_    0.028493 0.236776 0.457254 0.318308
O20   O     O_3   0.950839 0.764821 0.539889 -0.676024
H36   H     H_    0.982036 0.759356 0.535948 0.324663
O21   O     O_3   0.462983 0.748315 0.583955 -0.680252
H37   H     H_    0.471687 0.736775 0.544584 0.315619
O22   O     O_3   0.549960 0.265243 0.462213 -0.672469
H38   H     H_    0.516752 0.259104 0.462089 0.326604
O23   O     O_3   0.537402 0.747797 0.417445 -0.676176
H39   H     H_    0.528835 0.736629 0.457069 0.318421
O24   O     O_3   0.450010 0.265247 0.537768 -0.672036
H40   H     H_    0.483238 0.259114 0.537932 0.326626
N33   N     N_R   0.772278 0.160109 0.192101 0.251391
O25   O     O_R   0.785630 0.202355 0.262464 -0.363225
O26   O     O_R   0.772092 0.084320 0.198061 -0.271299
N34   N     N_R   0.253886 0.772001 0.893906 0.264208
O27   O     O_R   0.269399 0.843268 0.894104 -0.289424
O28   O     O_R   0.261076 0.716436 0.856871 -0.318046
N35   N     N_R   0.228243 0.160200 0.808225 0.251605
O29   O     O_R   0.214691 0.202522 0.737715 -0.362640
O30   O     O_R   0.228905 0.084436 0.802633 -0.281411
N36   N     N_R   0.795034 0.798728 0.148329 0.249249
O31   O     O_R   0.807545 0.873169 0.169753 -0.289390
O32   O     O_R   0.780973 0.757512 0.186724 -0.333315
N37   N     N_R   0.228826 0.688629 0.150543 0.255036
O33   O     O_R   0.247412 0.736042 0.222014 -0.368622
O34   O     O_R   0.203336 0.620559 0.137157 -0.286638
N38   N     N_R   0.703166 0.298808 0.850229 0.249274
O35   O     O_R   0.689831 0.373108 0.828133 -0.288187
O36   O     O_R   0.717178 0.257943 0.811562 -0.334074
N39   N     N_R   0.728731 0.660402 0.808912 0.251593
O37   O     O_R   0.715465 0.702712 0.738663 -0.362940
O38   O     O_R   0.729405 0.584635 0.803361 -0.271201
N40   N     N_R   0.296472 0.298664 0.149372 0.249693
O39   O     O_R   0.309702 0.372975 0.171408 -0.294582
O40   O     O_R   0.282428 0.257727 0.187954 -0.333304
O41   O     O_3   0.164194 0.444168 0.403948 -0.657746
H41   H     H_    0.213103 0.461871 0.453778 0.363479
O42   O     O_3   0.780912 0.625781 0.488828 -0.671992
H42   H     H_    0.765220 0.620528 0.519080 0.352492
O43   O     O_3   0.835927 0.444196 0.596288 -0.658048
H43   H     H_    0.787014 0.461982 0.546286 0.362859
O44   O     O_3   0.217740 0.626133 0.507857 -0.674320
H44   H     H_    0.233412 0.621523 0.477521 0.354439
O45   O     O_3   0.664136 0.944615 0.403448 -0.658215
H45   H     H_    0.713082 0.962296 0.453520 0.362760
O46   O     O_3   0.280916 0.125762 0.488011 -0.671734
H46   H     H_    0.265430 0.120392 0.518562 0.353172
O47   O     O_3   0.334890 0.944957 0.596690 -0.658615
H47   H     H_    0.286062 0.962475 0.547630 0.365326
O48   O     O_3   0.718707 0.125903 0.511237 -0.672790
H48   H     H_    0.734142 0.120603 0.480604 0.352285
N41   N     N_R   0.030145 0.218877 0.277154 0.290595
O49   O     O_R   0.014239 0.145520 0.266622 -0.243059
O50   O     O_R   0.979437 0.269975 0.214787 -0.332527
N42   N     N_R   0.838757 0.854709 0.417196 0.293179
O51   O     O_R   0.889802 0.900243 0.497336 -0.223064
O52   O     O_R   0.812906 0.863657 0.324840 -0.221479
N43   N     N_R   0.969652 0.218697 0.722565 0.290609
O53   O     O_R   0.985469 0.145313 0.732993 -0.243022
O54   O     O_R   0.020425 0.269700 0.785071 -0.331819
N44   N     N_R   0.171251 0.846755 0.607003 0.296045
O55   O     O_R   0.131044 0.907764 0.552347 -0.216593
O56   O     O_R   0.174644 0.812256 0.670956 -0.291915
N45   N     N_R   0.529624 0.719768 0.275753 0.291768
O57   O     O_R   0.513374 0.646388 0.263962 -0.241651
O58   O     O_R   0.479112 0.771128 0.213903 -0.333795
N46   N     N_R   0.337357 0.354963 0.414428 0.293305
O59   O     O_R   0.388758 0.400186 0.494652 -0.223833
O60   O     O_R   0.310353 0.365057 0.321324 -0.225858
N47   N     N_R   0.470198 0.720886 0.725056 0.291408
O61   O     O_R   0.487033 0.647533 0.738659 -0.243903
O62   O     O_R   0.520362 0.772651 0.786541 -0.330559
N48   N     N_R   0.662681 0.354940 0.585703 0.294095
O63   O     O_R   0.611175 0.400102 0.505490 -0.220314
O64   O     O_R   0.690029 0.365327 0.679028 -0.219456
N49   N     N_R   0.227359 0.437217 0.348225 0.266500
O65   O     O_R   0.162717 0.454365 0.255669 -0.262439
O66   O     O_R   0.275603 0.490749 0.399682 -0.259812
N50   N     N_R   0.635132 0.620434 0.335857 0.276140
O67   O     O_R   0.633713 0.596880 0.270027 -0.249660
O68   O     O_R   0.632915 0.568988 0.382900 -0.272763
N51   N     N_R   0.772312 0.437298 0.651183 0.265959
O69   O     O_R   0.836859 0.454510 0.743923 -0.268242
O70   O     O_R   0.724013 0.490841 0.599227 -0.257174
N52   N     N_R   0.363654 0.620252 0.660758 0.275547
O71   O     O_R   0.364530 0.595406 0.725575 -0.248524
O72   O     O_R   0.366604 0.569855 0.613786 -0.272650
N53   N     N_R   0.728252 0.937176 0.349292 0.265848
O73   O     O_R   0.663746 0.954281 0.256342 -0.269489
O74   O     O_R   0.776531 0.990715 0.401121 -0.256347
N54   N     N_R   0.135140 0.120132 0.335435 0.276171
O75   O     O_R   0.133408 0.096992 0.269123 -0.249849
O76   O     O_R   0.133259 0.068350 0.382610 -0.273399
N55   N     N_R   0.273213 0.935256 0.655475 0.267231
O77   O     O_R   0.337503 0.950436 0.750261 -0.267552
O78   O     O_R   0.227343 0.991628 0.599520 -0.266194
N56   N     N_R   0.864428 0.120025 0.663705 0.276001
O79   O     O_R   0.866189 0.096743 0.730011 -0.250513
O80   O     O_R   0.866174 0.068349 0.616282 -0.273114

loop_
_geom_bond_atom_site_label_1
_geom_bond_atom_site_label_2
_geom_bond_distance
_ccdc_geom_bond_type
C6    O6    1.373103 S    
C52   C71   1.395588 A    
N16   N21   1.340438 A    
N35   O29   1.301508 A    
C18   N18   1.350693 A    
C29   N29   1.330817 A    
C56   C67   1.395498 A    
C82   C109  1.413140 A    
C7    C39   1.378410 A    
N50   O67   1.301128 A    
C100  O43   1.380204 S    
C73   C98   1.404740 A    
C50   C58   1.375206 A    
C76   C99   1.401174 A    
C94   N45   1.442295 S    
N43   O54   1.302068 A    
C77   C102  1.404528 A    
N6    N31   1.450744 A    
C86   N50   1.436303 S    
C80   C103  1.403444 A    
N46   O59   1.301661 A    
C32   N32   1.334878 A    
C52   C60   1.372371 A    
N27   Ni6   1.882378 S    
N51   O70   1.300630 A    
C4    N4    1.338069 A    
C5    N5    1.335731 A    
C2    O2    1.373206 S    
C49   H9    1.083875 S    
C7    N7    1.339346 A    
O16   H32   0.989977 S    
C8    N8    1.340804 A    
O43   H43   0.990066 S    
N5    Ni3   1.821424 S    
C81   C110  1.413760 A    
N40   O40   1.301352 A    
C59   C67   1.408511 A    
O12   H28   0.990095 S    
N43   O53   1.300384 A    
C7    O7    1.376896 S    
C12   N12   1.343185 A    
O7    H23   0.991750 S    
C13   N13   1.338405 A    
C97   C105  1.397106 A    
C15   N15   1.338409 A    
C104  O47   1.379670 S    
O24   H40   0.989446 S    
C16   N16   1.343829 A    
N37   O33   1.301288 A    
C106  C109  1.412319 A    
N4    Ni1   1.821528 S    
O4    H20   0.990351 S    
C30   N30   1.330773 A    
N38   O36   1.301339 A    
C63   N39   1.442201 S    
N54   O75   1.301139 A    
N45   O58   1.302136 A    
C20   N20   1.347361 A    
C5    C37   1.377093 A    
C23   N23   1.331386 A    
C30   C39   1.366092 A    
C59   N35   1.442211 S    
C24   N24   1.348507 A    
N24   Ni8   1.866140 S    
C47   C80   1.477421 S    
C48   C79   1.484455 S    
C58   N34   1.439272 S    
C49   C70   1.398998 A    
C51   C72   1.399028 A    
N5    N32   1.450746 A    
C99   O44   1.384975 S    
C53   C66   1.398511 A    
C50   H10   1.085681 S    
C36   C66   1.424315 S    
C17   N17   1.330954 A    
N2    N27   1.450744 A    
N16   Ni4   1.831376 S    
C40   C70   1.432094 S    
C10   C42   1.410108 A    
C103  C111  1.396518 A    
C104  C112  1.416052 A    
C3    N3    1.335764 A    
O14   H30   0.990086 S    
O10   H26   0.990104 S    
N22   Ni8   1.866138 S    
N8    Ni3   1.821528 S    
O13   H29   0.991276 S    
C31   N31   1.330893 A    
C102  O45   1.380242 S    
C12   O12   1.372714 S    
O9    H25   0.991249 S    
O45   H45   0.990046 S    
C97   O42   1.384800 S    
C75   C100  1.404645 A    
O47   H47   0.989762 S    
C6    C38   1.388092 A    
C79   C96   1.407039 A    
C10   O10   1.372721 S    
C25   H1    1.075675 S    
N41   O49   1.300374 A    
C28   H4    1.077442 S    
C29   H5    1.075267 S    
C50   C69   1.395520 A    
C33   C67   1.430086 S    
N15   N22   1.340437 A    
C31   H7    1.075258 S    
C32   H8    1.077446 S    
C54   C65   1.395505 A    
C19   N19   1.330971 A    
C37   C71   1.429547 S    
C45   C78   1.477603 S    
C84   C111  1.413122 A    
C39   C69   1.422897 S    
C98   O41   1.380254 S    
C85   C106  1.413725 A    
C83   C112  1.418380 A    
C11   C43   1.377208 A    
C101  O46   1.384886 S    
N34   O27   1.301905 A    
C19   C42   1.383153 A    
N56   O80   1.301007 A    
C52   H12   1.085439 S    
C23   O23   1.371461 S    
C29   C40   1.378912 A    
N20   Ni6   1.866140 S    
C101  C109  1.396604 A    
C56   H16   1.085419 S    
C31   C38   1.378827 A    
C9    N9    1.338495 A    
C88   N52   1.436338 S    
N33   O25   1.301507 A    
C78   C93   1.419127 A    
N53   O73   1.301335 A    
C6    N6    1.340833 A    
C26   N26   1.334959 A    
C20   C41   1.381172 A    
C5    O5    1.377331 S    
O21   H37   0.991516 S    
C27   N27   1.330857 A    
C42   C73   1.482478 S    
N44   O56   1.299182 A    
C11   O11   1.375711 S    
N26   Ni5   1.882398 S    
C8    O8    1.373238 S    
N15   Ni3   1.831375 S    
C12   C44   1.410189 A    
C14   O14   1.372662 S    
N21   Ni7   1.866141 S    
N7    N30   1.450615 A    
C87   C95   1.409397 A    
C14   N14   1.343312 A    
C76   C91   1.417227 A    
C98   C106  1.414097 A    
C77   C94   1.407676 A    
C93   N46   1.427568 S    
N42   O51   1.301668 A    
N35   O30   1.301634 A    
N49   O66   1.300565 A    
C53   C61   1.393103 A    
N50   O68   1.301041 A    
C107  C112  1.412615 A    
C88   C96   1.401296 A    
N11   N18   1.340437 A    
C82   C90   1.401769 A    
C61   N37   1.444169 S    
N11   Ni1   1.831375 S    
O15   H31   0.991211 S    
C22   N22   1.348352 A    
C57   C65   1.408504 A    
N46   O60   1.297995 A    
N36   O31   1.301489 A    
N48   O63   1.301656 A    
C2    C34   1.387431 A    
C13   O13   1.375797 S    
C61   C69   1.406692 A    
C64   N40   1.435989 S    
C63   C71   1.408380 A    
C34   C68   1.431512 S    
C87   N51   1.438892 S    
C21   C48   1.386538 A    
N47   O61   1.300385 A    
C10   N10   1.343527 A    
C27   C34   1.378732 A    
C103  O48   1.384891 S    
O18   H34   0.990047 S    
C38   C72   1.432204 S    
O46   H46   0.991207 S    
O23   H39   0.991535 S    
C81   C89   1.409377 A    
C95   N48   1.427668 S    
C51   C59   1.395244 A    
C53   H13   1.084056 S    
O42   H42   0.991202 S    
N12   N17   1.340438 A    
C55   H15   1.083883 S    
N52   O71   1.301155 A    
O17   H33   0.991581 S    
N17   Ni5   1.866141 S    
C9    O9    1.375702 S    
N39   O37   1.301508 A    
N3    N26   1.450615 A    
N54   O76   1.300992 A    
N45   O57   1.300367 A    
C74   C89   1.419163 A    
C86   C105  1.413524 A    
C91   N44   1.434160 S    
C55   C68   1.398971 A    
C99   C107  1.394516 A    
C13   C45   1.383509 A    
O20   H36   0.989984 S    
C26   H2    1.077454 S    
C1    N1    1.336166 A    
N1    Ni1   1.821424 S    
N31   Ni8   1.882378 S    
C30   H6    1.077409 S    
O19   H35   0.991579 S    
C24   C45   1.380402 A    
N55   O77   1.301136 A    
C83   N55   1.436562 S    
C46   C77   1.482810 S    
N51   O69   1.301326 A    
N9    Ni2   1.831484 S    
C16   C48   1.408957 A    
C85   N49   1.439011 S    
C73   C90   1.407897 A    
C88   C107  1.413076 A    
C54   H14   1.085438 S    
C87   C108  1.413815 A    
C80   C95   1.419192 A    
C102  C110  1.414361 A    
N40   O39   1.301443 A    
C79   C104  1.407381 A    
C60   C68   1.401388 A    
N18   Ni6   1.866138 S    
C108  C111  1.412480 A    
C96   N47   1.442632 S    
C64   C72   1.401560 A    
C51   H11   1.083863 S    
N4    N25   1.450616 A    
C22   C47   1.380207 A    
C1    C33   1.377203 A    
C86   C94   1.402080 A    
C43   C76   1.470179 S    
N37   O34   1.301762 A    
C26   C35   1.369029 A    
C41   C74   1.478052 S    
N38   O35   1.301477 A    
N19   Ni5   1.866137 S    
C9    C41   1.384662 A    
C14   C46   1.410185 A    
O11   H27   0.991247 S    
C17   C44   1.383363 A    
O6    H22   0.989580 S    
N2    Ni2   1.821421 S    
O5    H21   0.991649 S    
N12   Ni2   1.831376 S    
C23   C46   1.383693 A    
N13   Ni4   1.831484 S    
C56   C64   1.372478 A    
O2    H18   0.989600 S    
O1    H17   0.991656 S    
O8    H24   0.989548 S    
N29   Ni8   1.882395 S    
C84   C92   1.401642 A    
N34   O28   1.300978 A    
C85   C93   1.409508 A    
O3    H19   0.991628 S    
N10   Ni1   1.831485 S    
C83   C91   1.413026 A    
C25   N25   1.332949 A    
N47   O62   1.302115 A    
O41   H41   0.990092 S    
C82   N54   1.436371 S    
C17   O17   1.371533 S    
N7    Ni4   1.821528 S    
N32   Ni7   1.882375 S    
C19   O19   1.371537 S    
O22   H38   0.989450 S    
C16   O16   1.372564 S    
C62   N38   1.436081 S    
C22   O22   1.369109 S    
C11   N11   1.335393 A    
C84   N56   1.436367 S    
C105  C110  1.412655 A    
C28   N28   1.334884 A    
C15   C47   1.383730 A    
C89   N42   1.427518 S    
N39   O38   1.301649 A    
N9    N20   1.340557 A    
C57   N33   1.442153 S    
C3    O3    1.377361 S    
N10   N19   1.340556 A    
N6    Ni4   1.821421 S    
N13   N24   1.340557 A    
N14   N23   1.340556 A    
N42   O52   1.297900 A    
C28   C33   1.368720 A    
N49   O65   1.301337 A    
C4    O4    1.372875 S    
C32   C37   1.368910 A    
C60   N36   1.436077 S    
N41   O50   1.302067 A    
C20   O20   1.368494 S    
C18   O18   1.371593 S    
C25   C36   1.376294 A    
C75   C92   1.407842 A    
N55   O78   1.300440 A    
C21   O21   1.371451 S    
N25   Ni6   1.882395 S    
N36   O32   1.301361 A    
N48   O64   1.298040 A    
C27   H3    1.074689 S    
C18   C43   1.380975 A    
C49   C57   1.395101 A    
O48   H48   0.991217 S    
C2    N2    1.340557 A    
C3    C35   1.377216 A    
N56   O79   1.301128 A    
C35   C65   1.429985 S    
C55   C63   1.394930 A    
N8    N29   1.450616 A    
N14   Ni3   1.831485 S    
C54   C62   1.372396 A    
O44   H44   0.991257 S    
N33   O26   1.301645 A    
C15   O15   1.375696 S    
C44   C75   1.482373 S    
N28   Ni5   1.882375 S    
C81   N53   1.439018 S    
N30   Ni7   1.882398 S    
N1    N28   1.450746 A    
N53   O74   1.300589 A    
N3    Ni2   1.821528 S    
C24   O24   1.369132 S    
C1    O1    1.377460 S    
C74   C97   1.403608 A    
N52   O72   1.301000 A    
C92   N43   1.441913 S    
C4    C36   1.383363 A    
N44   O55   1.300732 A    
C58   C66   1.402224 A    
C78   C101  1.403634 A    
C100  C108  1.414112 A    
C8    C40   1.388073 A    
N23   Ni7   1.866137 S    
C90   N41   1.441910 S    
C62   C70   1.401680 A    
C21   N21   1.332505 A    
