data_mof_unit_61183.cif
_audit_creation_date              2012-12-10T18:38:11-0500
_audit_creation_method            fapswitch 2.2
_symmetry_space_group_name_H-M    P1
_symmetry_Int_Tables_number       1
_space_group_crystal_system       triclinic
_cell_length_a                    15.124827
_cell_length_b                    13.902716
_cell_length_c                    10.679601
_cell_angle_alpha                 89.495636
_cell_angle_beta                  90.496112
_cell_angle_gamma                 89.982934
_cell_volume                      2245.49429716

loop_
_atom_site_label
_atom_site_type_symbol
_atom_type_description
_atom_site_fract_x
_atom_site_fract_y
_atom_site_fract_z
_atom_type_partial_charge
C1    C     C_R   0.330024 0.499995 0.499874 0.974792
C2    C     C_R   0.547755 0.790059 0.587934 0.754065
C3    C     C_R   0.499911 0.054783 0.499970 0.022470
C4    C     C_R   0.499854 0.945222 0.499981 0.026350
C5    C     C_R   0.500596 0.500555 0.259701 0.791499
C6    C     C_R   0.499646 0.499436 0.740262 0.793397
C7    C     C_3   0.508247 0.591251 0.037663 -0.066990
C8    C     C_3   0.492230 0.408633 0.962098 -0.069464
C9    C     C_3   0.575864 0.537152 0.957331 -0.115945
C10   C     C_3   0.424568 0.462657 0.042486 -0.102919
C11   C     C_3   0.431898 0.551972 0.956514 -0.088316
C12   C     C_R   0.670221 0.499975 0.500117 0.955882
C13   C     C_3   0.568542 0.447898 0.043314 -0.110302
C14   C     C_3   0.499578 0.498095 0.876283 -0.104287
C15   C     C_3   0.500890 0.501830 0.123606 -0.106388
C16   C     C_R   0.094653 0.571030 0.433324 0.597422
C17   C     C_R   0.905561 0.420212 0.453925 0.601925
C18   C     C_R   0.906239 0.579144 0.546491 0.596230
C19   C     C_R   0.095685 0.428294 0.566414 0.607393
C20   C     C_R   0.186623 0.571517 0.433800 0.486768
C21   C     C_R   0.813598 0.419953 0.454488 0.493198
C22   C     C_R   0.814277 0.579628 0.545932 0.484512
C23   C     C_R   0.564191 0.107818 0.566854 -0.292756
C24   C     C_R   0.187656 0.428046 0.565838 0.485024
C25   C     C_R   0.233580 0.499893 0.499869 -0.496522
C26   C     C_R   0.767129 0.499865 0.500179 -0.510337
C27   C     C_R   0.048890 0.499634 0.499946 -0.223522
C28   C     C_R   0.952156 0.499640 0.500162 -0.228250
C29   C     C_1   0.356949 0.608232 0.907020 0.309522
C30   C     C_1   0.643537 0.391424 0.092184 0.284108
C31   C     C_1   0.518114 0.691803 0.076499 0.384301
C32   C     C_1   0.483293 0.308413 0.921320 0.365490
C33   C     C_1   0.658875 0.577146 0.909025 0.331618
C34   C     C_R   0.452241 0.892255 0.409423 -0.299482
C35   C     C_1   0.341779 0.422603 0.091508 0.346288
C36   C     C_R   0.435676 0.108811 0.433126 -0.300158
C37   C     C_R   0.547289 0.891118 0.590782 -0.303146
C38   C     C_R   0.562199 0.208914 0.567447 0.759635
C39   C     C_R   0.451783 0.791126 0.412517 0.748324
C40   C     C_R   0.437743 0.209906 0.432572 0.746237
Cu1   Cu    Cu3+1 0.500000 0.596430 0.500000 1.109008
Cu2   Cu    Cu3+1 0.500000 0.403570 0.500000 1.119723
F1    F     F_    0.050113 0.639106 0.366072 -0.532583
F2    F     F_    0.402348 0.743088 0.327187 -0.578528
F3    F     F_    0.376664 0.258895 0.363809 -0.608829
F4    F     F_    0.596312 0.741098 0.674538 -0.589084
F5    F     F_    0.949279 0.343658 0.406188 -0.526501
F6    F     F_    0.950652 0.655606 0.594198 -0.529479
F7    F     F_    0.052182 0.360087 0.633673 -0.529770
F8    F     F_    0.229652 0.640252 0.366864 -0.528531
F9    F     F_    0.770322 0.342403 0.407754 -0.549122
F10   F     F_    0.771713 0.657289 0.592645 -0.528147
F11   F     F_    0.231754 0.359306 0.632551 -0.563701
F12   F     F_    0.623239 0.256910 0.636316 -0.601142
H1    H     H_    0.616947 0.072617 0.618252 0.201378
H2    H     H_    0.415578 0.927531 0.335006 0.197805
H3    H     H_    0.382896 0.074377 0.381734 0.201239
H4    H     H_    0.583670 0.925451 0.665405 0.196495
N1    N     N_R   0.500000 0.258690 0.500000 -0.296530
N2    N     N_R   0.500000 0.741310 0.500000 -0.305807
N3    N     N_1   0.297945 0.652483 0.867850 -0.184747
N4    N     N_1   0.702606 0.346930 0.130634 -0.128713
N5    N     N_1   0.526134 0.771085 0.106599 -0.207232
N6    N     N_1   0.476260 0.229514 0.889136 -0.208321
N7    N     N_1   0.724281 0.608581 0.871029 -0.113387
N8    N     N_1   0.276617 0.391149 0.130338 -0.147123
O1    O     O_R   0.371460 0.581430 0.500010 -0.527543
O2    O     O_R   0.628540 0.418570 0.499990 -0.498187
O3    O     O_R   0.628540 0.581430 0.499990 -0.522709
O4    O     O_R   0.371460 0.418570 0.500010 -0.502146
O5    O     O_R   0.499980 0.581420 0.316850 -0.556183
O6    O     O_R   0.500020 0.418580 0.683150 -0.568066
O7    O     O_R   0.500020 0.581420 0.683150 -0.553570
O8    O     O_R   0.499980 0.418580 0.316850 -0.567638

loop_
_geom_bond_atom_site_label_1
_geom_bond_atom_site_label_2
_ccdc_geom_bond_type
C9    C33   S    
C21   C26   A    
C34   H2    S    
C8    C13   S    
Cu1   Cu2   S    
C3    C23   A    
C12   O3    A    
C33   N7    T    
Cu1   O1    S    
C2    F4    S    
C6    O6    A    
C12   O2    A    
Cu1   O3    S    
C10   C15   S    
C11   C14   S    
C2    N2    A    
C20   C25   A    
Cu2   O4    S    
C5    O8    A    
C9    C13   S    
C20   F8    S    
C10   C35   S    
C19   C27   A    
C37   H4    S    
Cu1   O5    S    
C16   C27   A    
C7    C15   S    
C40   N1    A    
C1    C25   S    
C4    C34   A    
C40   F3    S    
C29   N3    T    
Cu2   O8    S    
C7    C31   S    
C34   C39   A    
C8    C32   S    
C31   N5    T    
C13   C30   S    
C36   C40   A    
C18   C28   A    
C24   C25   A    
C32   N6    T    
C36   H3    S    
C35   N8    T    
C24   F11   S    
C17   C21   A    
C12   C26   S    
C7    C11   S    
C9    C14   S    
C6    C14   S    
C19   F7    S    
C38   F12   S    
C16   C20   A    
Cu2   O6    S    
C16   F1    S    
C30   N4    T    
C3    C4    S    
C21   F9    S    
C6    O7    A    
C22   F10   S    
C7    C9    S    
C8    C14   S    
C18   C22   A    
C17   C28   A    
C17   F5    S    
Cu1   N2    S    
C18   F6    S    
Cu2   N1    S    
C23   H1    S    
C39   F2    S    
C23   C38   A    
C1    O4    A    
C13   C15   S    
C19   C24   A    
C5    O5    A    
C2    C37   A    
C3    C36   A    
C39   N2    A    
C1    O1    A    
Cu2   O2    S    
C5    C15   S    
C10   C11   S    
Cu1   O7    S    
C38   N1    A    
C4    C37   A    
C11   C29   S    
C8    C10   S    
C22   C26   A    
C27   C28   S    
