data_mof_unit_26243.cif
_audit_creation_date              2012-12-10T17:47:05-0500
_audit_creation_method            fapswitch 2.2
_symmetry_space_group_name_H-M    P1
_symmetry_Int_Tables_number       1
_space_group_crystal_system       triclinic
_cell_length_a                    9.934763
_cell_length_b                    10.64799
_cell_length_c                    13.64074
_cell_angle_alpha                 91.941935
_cell_angle_beta                  82.960184
_cell_angle_gamma                 89.918901
_cell_volume                      1431.26577015

loop_
_atom_site_label
_atom_site_type_symbol
_atom_type_description
_atom_site_fract_x
_atom_site_fract_y
_atom_site_fract_z
_atom_type_partial_charge
C1    C     C_R   0.500170 0.739276 0.498244 0.827320
C2    C     C_R   0.555242 0.939433 0.564803 -0.186016
C3    C     C_R   0.555635 0.067627 0.563369 -0.195139
C4    C     C_R   0.475692 0.500622 0.685456 0.883415
C5    C     C_R   0.502954 0.127665 0.487277 -0.103824
C6    C     C_R   0.839235 0.667581 0.628414 -0.242136
C7    C     C_R   0.899040 0.749157 0.691997 0.650251
C8    C     C_R   0.038243 0.747263 0.692915 -0.270391
C9    C     C_R   0.118562 0.664443 0.629825 -0.248887
C10   C     C_R   0.061690 0.581500 0.563721 0.164291
C11   C     C_R   0.917300 0.582187 0.563345 0.091535
C12   C     C_1   0.458196 0.505852 0.789094 -0.120656
C13   C     C_R   0.938933 0.421569 0.439253 -0.083329
C14   C     C_R   0.081905 0.421740 0.439168 -0.071509
C15   C     C_R   0.500928 0.260485 0.495075 0.967778
C16   C     C_R   0.524492 0.501181 0.314575 0.953260
C17   C     C_1   0.544114 0.505762 0.211166 -0.085507
C18   C     C_2   0.571020 0.515600 0.019263 -0.220895
C19   C     C_2   0.453394 0.517395 0.980105 0.572450
C20   C     C_1   0.450974 0.511442 0.876674 0.012574
C21   C     C_1   0.560004 0.510467 0.123665 0.102718
C22   C     C_2   0.709591 0.515533 0.962310 0.904700
C23   C     C_R   0.406360 0.857763 0.331114 -0.170832
C24   C     C_R   0.361024 0.917043 0.251865 -0.217748
C25   C     C_R   0.362990 0.047189 0.248688 -0.178032
C26   C     C_R   0.409874 0.119048 0.324794 0.586606
C27   C     C_R   0.453698 0.060525 0.407629 -0.036624
C28   C     C_R   0.452395 0.928611 0.410047 0.036595
C29   C     C_R   0.501490 0.871125 0.490419 -0.052561
F1    F     F_    0.332090 0.518376 0.038860 -0.630698
F2    F     F_    0.820933 0.829938 0.753714 -0.650890
F3    F     F_    0.416303 0.244635 0.313771 -0.693727
H1    H     H_    0.731840 0.674180 0.632783 0.221747
H2    H     H_    0.893844 0.357389 0.389603 0.156819
H3    H     H_    0.827899 0.536413 0.832653 0.357947
H4    H     H_    0.084546 0.810225 0.742888 0.193748
H5    H     H_    0.224570 0.667694 0.635072 0.229608
H6    H     H_    0.143912 0.357649 0.389438 0.185680
H7    H     H_    0.594073 0.893236 0.625301 0.178974
H8    H     H_    0.406752 0.756325 0.328773 0.162710
H9    H     H_    0.326178 0.861687 0.191965 0.194795
H10   H     H_    0.329939 0.092812 0.185971 0.185129
H11   H     H_    0.594418 0.120583 0.623124 0.168711
N1    N     N_R   0.857120 0.501200 0.500900 -0.105247
N2    N     N_R   0.142720 0.501280 0.500940 -0.113648
O1    O     O_R   0.385310 0.683220 0.500000 -0.643964
O2    O     O_R   0.728867 0.539865 0.861485 -0.796029
O3    O     O_R   0.614640 0.683250 0.500010 -0.632620
O4    O     O_R   0.368830 0.499960 0.640340 -0.635973
O5    O     O_R   0.598160 0.499980 0.640350 -0.607330
O6    O     O_R   0.385360 0.316750 0.499990 -0.577609
O7    O     O_R   0.614690 0.316780 0.500000 -0.621526
O8    O     O_R   0.401840 0.500020 0.359650 -0.566108
O9    O     O_R   0.631170 0.500040 0.359660 -0.613282
O10   O     O_2   0.808431 0.495695 0.005075 -0.571276
Zn1   Zn    Zn3+2 0.346870 0.499980 0.499990 0.983133
Zn2   Zn    Zn3+2 0.653130 0.500020 0.500010 0.971517

loop_
_geom_bond_atom_site_label_1
_geom_bond_atom_site_label_2
_ccdc_geom_bond_type
C25   H10   S    
C23   C24   A    
C1    O3    A    
C26   F3    S    
C6    C7    A    
C15   O6    A    
C4    C12   S    
O4    Zn1   S    
C9    C10   A    
N1    Zn2   S    
C23   H8    S    
C19   C20   S    
C6    H1    S    
C4    O4    A    
H3    O2    S    
C12   C20   T    
C10   N2    A    
C1    C29   S    
C2    C3    A    
C15   O7    A    
C11   N1    A    
C18   C22   S    
C13   C14   A    
C24   H9    S    
C19   F1    S    
C3    H11   S    
C26   C27   A    
C22   O10   D    
C2    C29   A    
C9    H5    S    
C28   C29   A    
C22   O2    S    
C14   N2    A    
C6    C11   A    
C8    H4    S    
C16   O9    A    
C1    O1    A    
C5    C15   S    
C23   C28   A    
C10   C11   A    
C14   H6    S    
C18   C21   S    
O3    Zn2   S    
C7    F2    S    
C24   C25   A    
C18   C19   D    
O7    Zn2   S    
O8    Zn1   S    
O1    Zn1   S    
C27   C28   A    
C7    C8    A    
C16   O8    A    
C16   C17   S    
C13   H2    S    
C25   C26   A    
C5    C27   A    
O5    Zn2   S    
C2    H7    S    
C13   N1    A    
C17   C21   T    
O6    Zn1   S    
N2    Zn1   S    
C4    O5    A    
C8    C9    A    
C3    C5    A    
O9    Zn2   S    
