data_mof_unit_33912.cif
_audit_creation_date              2012-10-26T19:35:12-0400
_audit_creation_method            fapswitch 2.2
_symmetry_space_group_name_H-M    P1
_symmetry_Int_Tables_number       1
_space_group_crystal_system       triclinic
_cell_length_a                    10.762786
_cell_length_b                    10.829067
_cell_length_c                    9.566726
_cell_angle_alpha                 89.554891
_cell_angle_beta                  89.767352
_cell_angle_gamma                 90.774616
_cell_volume                      1114.86560236

loop_
_atom_site_label
_atom_site_type_symbol
_atom_type_description
_atom_site_fract_x
_atom_site_fract_y
_atom_site_fract_z
_atom_type_partial_charge
C1    C     C_R   0.497171 0.262265 0.500518 0.545626
C2    C     C_R   0.466756 0.936180 0.373814 -0.147389
C3    C     C_R   0.485334 0.870368 0.498878 -0.002932
C4    C     C_R   0.262693 0.502036 0.500263 0.538449
C5    C     C_R   0.485983 0.934507 0.624461 -0.012673
C6    C     C_3   0.574198 0.926644 0.743726 -0.260915
C7    C     C_3   0.570802 0.066855 0.748330 -0.115626
C8    C     C_R   0.568762 0.585367 0.071665 0.114253
C9    C     C_R   0.422355 0.424349 0.075454 0.022850
C10   C     C_R   0.422548 0.424187 0.926567 0.026140
C11   C     C_R   0.565142 0.588350 0.924916 0.124318
C12   C     C_R   0.067139 0.609786 0.561621 0.022576
C13   C     C_3   0.700184 0.618061 0.912648 -0.257108
C14   C     C_3   0.706938 0.608378 0.071110 -0.112197
C15   C     C_R   0.497876 0.737546 0.499465 0.531651
C16   C     C_R   0.737416 0.502764 0.499760 0.536894
C17   C     C_R   0.132565 0.710992 0.620053 -0.127367
C18   C     C_R   0.069283 0.811116 0.676767 0.032471
C19   C     C_R   0.939344 0.811611 0.673333 -0.088234
C20   C     C_R   0.873440 0.713171 0.614802 -0.144053
C21   C     C_R   0.936006 0.610546 0.559932 0.026056
C22   C     C_1   0.510420 0.110452 0.876482 0.217682
C23   C     C_R   0.129118 0.509084 0.500783 0.015436
C24   C     C_2   0.783600 0.499517 0.114221 0.266768
C25   C     C_2   0.140579 0.914965 0.738074 0.233598
C26   C     C_R   0.063176 0.413073 0.437434 -0.109101
C27   C     C_R   0.934953 0.413022 0.437697 -0.094331
C28   C     C_R   0.871333 0.509857 0.499496 0.022931
C29   C     C_R   0.483466 0.061725 0.626727 0.024721
C30   C     C_R   0.484012 0.128845 0.501172 -0.003598
C31   C     C_R   0.466344 0.064990 0.374947 -0.150358
Cu1   Cu    Cu3+1 0.499990 0.499980 0.640670 0.940216
Cu2   Cu    Cu3+1 0.500010 0.500020 0.359330 0.951453
H1    H     H_    0.111376 0.336692 0.389905 0.128002
H2    H     H_    0.888693 0.888737 0.715245 0.148399
H3    H     H_    0.773339 0.718854 0.611499 0.122850
H4    H     H_    0.884880 0.336537 0.390557 0.128688
H5    H     H_    0.458213 0.114050 0.276460 0.167802
H6    H     H_    0.458730 0.889031 0.274753 0.150386
H7    H     H_    0.531808 0.878002 0.835498 0.144648
H8    H     H_    0.742812 0.407310 0.119366 0.129493
H9    H     H_    0.241194 0.911779 0.742197 0.111978
H10   H     H_    0.666037 0.891393 0.711358 0.108654
H11   H     H_    0.661155 0.113485 0.724272 0.124977
H12   H     H_    0.361508 0.361084 0.131998 0.140769
H13   H     H_    0.361775 0.360968 0.871561 0.150443
H14   H     H_    0.753339 0.546481 0.856319 0.175968
H15   H     H_    0.716854 0.713689 0.873639 0.107079
H16   H     H_    0.733860 0.696593 0.122292 0.143168
H17   H     H_    0.233045 0.714042 0.620501 0.120140
N1    N     N_R   0.500790 0.500930 0.147930 -0.251440
N2    N     N_R   0.500790 0.500890 0.852020 -0.238775
N3    N     N_1   0.462984 0.142657 0.978314 -0.344362
O1    O     O_R   0.500000 0.319640 0.618810 -0.495280
O2    O     O_2   0.088142 0.005093 0.784892 -0.501191
O3    O     O_R   0.500010 0.319680 0.381230 -0.513392
O4    O     O_R   0.319640 0.499980 0.618820 -0.505526
O5    O     O_R   0.319650 0.500020 0.381230 -0.494309
O6    O     O_R   0.499990 0.680320 0.618770 -0.510497
O7    O     O_R   0.500000 0.680360 0.381190 -0.502563
O8    O     O_R   0.680350 0.499980 0.618770 -0.515877
O9    O     O_R   0.680360 0.500020 0.381180 -0.496193
O10   O     O_2   0.894072 0.513843 0.138267 -0.502246

loop_
_geom_bond_atom_site_label_1
_geom_bond_atom_site_label_2
_ccdc_geom_bond_type
C17   H17   S    
C4    O4    A    
C13   H15   S    
C1    O1    A    
C16   C28   S    
C29   C30   A    
C7    C29   S    
C22   N3    T    
C7    C22   S    
C15   O7    A    
C6    C7    S    
C19   C20   A    
C8    N1    A    
C31   H5    S    
C30   C31   A    
C10   N2    A    
Cu1   Cu2   S    
Cu2   O3    S    
C2    C3    A    
C19   H2    S    
C7    H11   S    
C12   C17   A    
C9    H12   S    
C24   H8    S    
C11   C13   S    
C12   C23   A    
C26   C27   A    
Cu2   O5    S    
C18   C25   S    
C16   O9    A    
Cu1   O4    S    
C27   H4    S    
C8    C11   A    
C25   H9    S    
C2    H6    S    
Cu1   O1    S    
C1    C30   S    
C21   C28   A    
C26   H1    S    
Cu1   O8    S    
C17   C18   A    
C24   O10   D    
C5    C29   A    
C6    H10   S    
C5    C6    S    
C6    H7    S    
Cu2   O9    S    
C14   H16   S    
Cu2   N1    S    
C16   O8    A    
C14   C24   S    
C20   H3    S    
C10   H13   S    
C3    C15   S    
C20   C21   A    
C18   C19   A    
C9    C10   A    
C23   C26   A    
Cu2   O7    S    
C27   C28   A    
C13   H14   S    
C4    C23   S    
Cu1   N2    S    
C8    C14   S    
C11   N2    A    
Cu1   O6    S    
C4    O5    A    
C13   C14   S    
C15   O6    A    
C12   C21   A    
C1    O3    A    
C25   O2    D    
C2    C31   A    
C3    C5    A    
C9    N1    A    
