data_mof_unit_15634.cif
_audit_creation_date              2012-12-10T17:02:05-0500
_audit_creation_method            fapswitch 2.2
_symmetry_space_group_name_H-M    P1
_symmetry_Int_Tables_number       1
_space_group_crystal_system       triclinic
_cell_length_a                    10.769982
_cell_length_b                    11.036859
_cell_length_c                    9.834174
_cell_angle_alpha                 111.041787
_cell_angle_beta                  98.127548
_cell_angle_gamma                 91.037425
_cell_volume                      1077.04647639

loop_
_atom_site_label
_atom_site_type_symbol
_atom_type_description
_atom_site_fract_x
_atom_site_fract_y
_atom_site_fract_z
_atom_type_partial_charge
C1    C     C_R   0.490942 0.254192 0.440752 0.840527
C2    C     C_R   0.070541 0.402600 0.553791 0.098115
C3    C     C_R   0.128573 0.488625 0.500185 -0.097822
C4    C     C_R   0.057310 0.565927 0.438483 -0.195598
C5    C     C_R   0.928852 0.563909 0.435026 -0.205484
C6    C     C_R   0.869853 0.484612 0.493348 -0.095455
C7    C     C_2   0.486178 0.114954 0.407465 -0.351506
C8    C     C_2   0.502975 0.069658 0.516720 -0.167807
C9    C     C_2   0.514311 0.885141 0.592670 -0.362013
C10   C     C_2   0.498209 0.930540 0.483479 -0.154084
C11   C     C_2   0.510853 0.510351 0.081182 -0.069168
C12   C     C_R   0.262518 0.496314 0.500374 0.789692
C13   C     C_2   0.488989 0.489787 0.918853 -0.069838
C14   C     C_R   0.509144 0.745829 0.559270 0.868541
C15   C     C_R   0.736973 0.494899 0.497608 0.786891
C16   C     C_R   0.139368 0.315620 0.605688 -0.188159
C17   C     C_R   0.079011 0.230259 0.655169 -0.141933
C18   C     C_R   0.949408 0.228152 0.651628 -0.131080
C19   C     C_R   0.879366 0.311464 0.598679 -0.172506
C20   C     C_R   0.938776 0.400486 0.550184 0.095448
Cu1   Cu    Cu3+1 0.521920 0.521810 0.644910 0.936275
Cu2   Cu    Cu3+1 0.478080 0.478190 0.355090 0.942384
H1    H     H_    0.101904 0.630083 0.395167 0.152682
H2    H     H_    0.415242 0.418150 0.846268 0.155571
H3    H     H_    0.584279 0.582350 0.153881 0.157255
H4    H     H_    0.624976 0.621184 0.933924 0.193920
H5    H     H_    0.375908 0.377813 0.065821 0.193601
H6    H     H_    0.239518 0.310589 0.606159 0.140418
H7    H     H_    0.132860 0.164249 0.694597 0.134101
H8    H     H_    0.902660 0.160467 0.688246 0.137625
H9    H     H_    0.778517 0.303200 0.593507 0.150316
H10   H     H_    0.875543 0.627244 0.390303 0.144899
H11   H     H_    0.481221 0.864881 0.368586 0.182069
H12   H     H_    0.520270 0.135355 0.631596 0.179862
H13   H     H_    0.531310 0.951101 0.707365 0.151073
N1    N     N_2   0.445130 0.445430 0.137370 -0.284223
N2    N     N_2   0.554930 0.554500 0.862630 -0.284499
O1    O     O_R   0.511700 0.332330 0.577400 -0.593326
O2    O     O_R   0.474680 0.295500 0.332650 -0.570807
O3    O     O_R   0.338160 0.518420 0.622400 -0.580160
O4    O     O_R   0.301140 0.481590 0.377650 -0.568864
O5    O     O_R   0.525320 0.704500 0.667350 -0.569635
O6    O     O_R   0.488300 0.667670 0.422600 -0.579954
O7    O     O_R   0.698860 0.518410 0.622350 -0.575841
O8    O     O_R   0.661840 0.481580 0.377600 -0.575428
H14   H     H_    0.468877 0.048953 0.292799 0.153923

loop_
_geom_bond_atom_site_label_1
_geom_bond_atom_site_label_2
_ccdc_geom_bond_type
C12   O3    A    
C9    C14   S    
H4    N2    S    
C16   H6    S    
C12   O4    A    
C18   H8    S    
H5    N1    S    
Cu1   O7    S    
C2    C16   A    
C9    C10   D    
C1    O2    A    
C13   N2    D    
C19   C20   A    
C14   O5    A    
C5    H10   S    
C19   H9    S    
C17   C18   A    
Cu1   N2    S    
C7    C8    D    
C8    H12   S    
Cu1   Cu2   S    
C11   C13   S    
Cu1   O5    S    
Cu1   O3    S    
C6    C20   A    
Cu2   O2    S    
C1    O1    A    
C11   N1    D    
C15   O7    A    
C2    C3    A    
C10   H11   S    
C5    C6    A    
Cu2   O4    S    
C16   C17   A    
C15   O8    A    
C2    C20   A    
C3    C4    A    
C7    H14   S    
Cu2   O8    S    
C17   H7    S    
C8    C10   S    
C18   C19   A    
C9    H13   S    
C4    H1    S    
C11   H3    S    
C14   O6    A    
C3    C12   S    
C6    C15   S    
C1    C7    S    
Cu2   N1    S    
Cu1   O1    S    
Cu2   O6    S    
C13   H2    S    
C4    C5    A    
