data_mof_unit_7562.cif
_audit_creation_date              2012-12-10T17:53:10-0500
_audit_creation_method            fapswitch 2.2
_symmetry_space_group_name_H-M    P1
_symmetry_Int_Tables_number       1
_space_group_crystal_system       triclinic
_cell_length_a                    14.711009
_cell_length_b                    14.526398
_cell_length_c                    27.834149
_cell_angle_alpha                 76.42921
_cell_angle_beta                  103.186794
_cell_angle_gamma                 115.397671
_cell_volume                      5167.8783868

loop_
_atom_site_label
_atom_site_type_symbol
_atom_type_description
_atom_site_fract_x
_atom_site_fract_y
_atom_site_fract_z
_atom_type_partial_charge
C1    C     C_R   0.880026 0.310787 0.508480 0.858837
C2    C     C_R   0.120169 0.688826 0.490018 0.854930
C3    C     C_R   0.993596 0.498274 0.897540 -0.115839
C4    C     C_R   0.004821 0.496634 0.102861 -0.115735
C5    C     C_R   0.969827 0.406012 0.879801 -0.178644
C6    C     C_R   0.038326 0.590142 0.121399 -0.179418
C7    C     C_R   0.948482 0.313495 0.913481 0.700465
C8    C     C_R   0.070879 0.683703 0.088707 0.702102
C9    C     C_R   0.015073 0.591327 0.863694 -0.012856
C10   C     C_R   0.973556 0.402621 0.135870 -0.012636
C11   C     C_R   0.000812 0.502012 0.645471 -0.302781
C12   C     C_R   0.998844 0.497466 0.354508 -0.302664
C13   C     C_R   0.970849 0.402209 0.033658 0.100615
C14   C     C_R   0.023265 0.591911 0.966412 0.101295
C15   C     C_R   0.030943 0.591988 0.018257 -0.046931
C16   C     C_R   0.971807 0.403106 0.982549 -0.047261
C17   C     C_R   0.002296 0.496965 0.051403 0.088960
C18   C     C_R   0.996135 0.497713 0.949027 0.088759
C19   C     C_R   0.938800 0.309399 0.067876 -0.159789
C20   C     C_R   0.040901 0.683093 0.930984 -0.160934
C21   C     C_R   0.940470 0.309872 0.117867 -0.088120
C22   C     C_R   0.037204 0.682634 0.880782 -0.092192
C23   C     C_R   0.000234 0.500551 0.592523 0.897171
C24   C     C_R   0.999763 0.499461 0.407458 0.902827
C25   C     C_R   0.949789 0.312328 0.963672 -0.247571
C26   C     C_R   0.067483 0.684401 0.038354 -0.247646
C27   C     C_R   0.813640 0.199486 0.511740 -0.278089
C28   C     C_R   0.189544 0.797069 0.476201 -0.287820
C29   C     C_R   0.789925 0.018319 0.530665 0.371719
C30   C     C_R   0.228698 0.966967 0.425601 0.352338
C31   C     C_R   0.853524 0.123356 0.529509 0.594850
C32   C     C_R   0.157064 0.870274 0.443774 0.598029
C33   C     C_R   0.710497 0.169365 0.492816 -0.178059
C34   C     C_R   0.292937 0.823950 0.492766 -0.189729
C35   C     C_R   0.645430 0.064760 0.493110 0.040925
C36   C     C_R   0.366435 0.912490 0.469879 0.031857
C37   C     C_R   0.682752 0.988470 0.519336 -0.277706
C38   C     C_R   0.333712 0.983773 0.433953 -0.281311
C39   C     C_R   0.542584 0.035188 0.470161 -0.145646
C40   C     C_R   0.472049 0.934007 0.483691 -0.134029
C41   C     C_R   0.509445 0.859018 0.511105 0.551327
C42   C     C_R   0.510355 0.099346 0.429724 0.560273
C43   C     C_R   0.611418 0.886533 0.532183 0.371562
C44   C     C_R   0.407944 0.068239 0.408286 0.363054
C45   C     C_R   0.969626 0.409484 0.828789 0.703265
C46   C     C_R   0.038023 0.587063 0.172305 0.704615
C47   C     C_R   0.713911 0.667487 0.415150 0.508761
C48   C     C_R   0.288566 0.336566 0.586642 0.481983
C49   C     C_R   0.795104 0.637006 0.428311 0.813512
C50   C     C_R   0.205187 0.363570 0.571944 0.811929
C51   C     C_R   0.716495 0.511663 0.494384 -0.100819
C52   C     C_R   0.285144 0.490990 0.506766 -0.064053
C53   C     C_R   0.630561 0.538303 0.482635 -0.062045
C54   C     C_R   0.373134 0.467690 0.519992 -0.059047
C55   C     C_R   0.631350 0.618545 0.442132 -0.085725
C56   C     C_R   0.372726 0.388062 0.560780 -0.104445
C57   C     C_R   0.544569 0.488560 0.509237 0.154121
C58   C     C_R   0.460339 0.519378 0.494255 0.166911
C59   C     C_R   0.466234 0.600818 0.454132 -0.141028
C60   C     C_R   0.539804 0.408895 0.550173 -0.197644
C61   C     C_R   0.549916 0.649198 0.428839 -0.036234
C62   C     C_R   0.455964 0.360260 0.575352 -0.043826
C63   C     C_R   0.014517 0.591133 0.813271 0.684891
C64   C     C_R   0.974238 0.403330 0.186249 0.687481
C65   C     C_R   0.083992 0.501085 0.732179 0.210162
C66   C     C_R   0.918365 0.504496 0.267333 0.206417
C67   C     C_R   0.083749 0.498502 0.682049 0.553521
C68   C     C_R   0.919216 0.508101 0.317397 0.568809
C69   C     C_R   0.917828 0.507249 0.659740 -0.345042
C70   C     C_R   0.078016 0.484213 0.340778 -0.353986
C71   C     C_R   0.916487 0.507503 0.709530 0.680798
C72   C     C_R   0.078761 0.482650 0.291084 0.683024
C73   C     C_R   0.998639 0.503858 0.745933 0.016519
C74   C     C_R   0.999858 0.493229 0.254200 0.016762
Cu1   Cu    Cu3+1 0.081740 0.475690 0.513040 1.082335
Cu2   Cu    Cu3+1 0.918260 0.524310 0.486960 1.079155
H1    H     H_    0.853034 0.509765 0.632445 0.224720
H2    H     H_    0.140231 0.476055 0.368443 0.223179
H3    H     H_    0.313995 0.773940 0.524179 0.256563
H4    H     H_    0.680395 0.228323 0.479473 0.230757
H5    H     H_    0.550258 0.711185 0.398236 0.213532
H6    H     H_    0.456447 0.299558 0.606542 0.213608
H7    H     H_    0.278206 0.549323 0.475985 0.179874
H8    H     H_    0.723041 0.452600 0.524821 0.165825
H9    H     H_    0.407203 0.629700 0.441220 0.159782
H10   H     H_    0.600044 0.381923 0.563988 0.137425
H11   H     H_    0.914862 0.236558 0.142392 0.208344
H12   H     H_    0.052144 0.754797 0.855325 0.207330
H13   H     H_    0.909741 0.234186 0.057238 0.162933
H14   H     H_    0.056099 0.756483 0.940526 0.163975
H15   H     H_    0.935025 0.238408 0.986941 0.185258
H16   H     H_    0.096207 0.759632 0.016250 0.184824
N1    N     N_R   0.993783 0.501390 0.797135 -0.429831
N2    N     N_R   0.004456 0.494553 0.203114 -0.430417
N3    N     N_R   0.795430 0.560780 0.467350 -0.285824
N4    N     N_R   0.204570 0.439220 0.532650 -0.290643
O1    O     O_R   0.977900 0.338120 0.517190 -0.485757
O2    O     O_R   0.022100 0.661880 0.482810 -0.493954
O3    O     O_R   0.839850 0.379180 0.495160 -0.605524
O4    O     O_R   0.160150 0.620820 0.504840 -0.590421
O5    O     O_R   0.069030 0.479490 0.580750 -0.476625
O6    O     O_R   0.930970 0.520510 0.419250 -0.472449
O7    O     O_R   0.930970 0.520550 0.558720 -0.610765
O8    O     O_R   0.069030 0.479450 0.441280 -0.616595
O9    O     O_2   0.946031 0.322215 0.810776 -0.397060
O10   O     O_2   0.070227 0.675350 0.191023 -0.392311
O11   O     O_2   0.943476 0.313620 0.218045 -0.473363
O12   O     O_2   0.036111 0.680082 0.780699 -0.475722
F1    F     F_    0.056176 0.848950 0.430778 -0.536009
F2    F     F_    0.955018 0.150871 0.544528 -0.551025
S1    S     S_3+6 0.848700 0.933964 0.530262 0.137869
O13   O     O_2   0.876925 0.887322 0.582620 -0.170771
O14   O     O_2   0.778924 0.850246 0.499971 -0.258008
O15   O     O_3   0.955564 0.000766 0.504165 -0.434979
H17   H     H_    0.992062 0.954169 0.512506 0.405855
S2    S     S_3+6 0.186538 0.069460 0.404163 0.132664
O16   O     O_2   0.270977 0.169948 0.415681 -0.270655
O17   O     O_2   0.149928 0.076581 0.348971 -0.136215
O18   O     O_3   0.089324 0.047248 0.433341 -0.450299
H18   H     H_    0.070236 0.106988 0.419766 0.398822
F3    F     F_    0.449607 0.756641 0.514696 -0.655959
F4    F     F_    0.579776 0.183744 0.405656 -0.603069
F5    F     F_    0.124352 0.313834 0.597195 -0.526490
F6    F     F_    0.874365 0.684369 0.401990 -0.512354
F7    F     F_    0.716090 0.744503 0.376156 -0.558459
F8    F     F_    0.286863 0.260285 0.625965 -0.570146
F9    F     F_    0.834450 0.510340 0.722630 -0.592107
F10   F     F_    0.157114 0.471742 0.278547 -0.586539
F11   F     F_    0.926948 0.222964 0.898456 -0.568110
F12   F     F_    0.106278 0.775840 0.104931 -0.565807
F13   F     F_    0.842587 0.522462 0.329739 -0.550529
F14   F     F_    0.164432 0.492622 0.669045 -0.564357
S3    S     S_3+6 0.816312 0.516961 0.221718 0.140948
O19   O     O_2   0.844616 0.629035 0.200233 -0.141707
O20   O     O_2   0.795194 0.457411 0.180155 -0.286381
O21   O     O_3   0.709654 0.474215 0.247460 -0.378619
H19   H     H_    0.692370 0.399514 0.258887 0.371812
S4    S     S_3+6 0.190552 0.498565 0.777075 0.136878
O22   O     O_2   0.206550 0.557111 0.818303 -0.285267
O23   O     O_2   0.171822 0.388296 0.799188 -0.141396
O24   O     O_3   0.296950 0.550261 0.750332 -0.389823
H20   H     H_    0.307770 0.623554 0.738485 0.364438
S5    S     S_3+6 0.635680 0.800920 0.585816 0.119671
O25   O     O_2   0.665354 0.725292 0.571368 -0.207081
O26   O     O_2   0.717936 0.860457 0.623436 -0.217725
O27   O     O_3   0.529339 0.734294 0.612564 -0.467399
H21   H     H_    0.545779 0.683620 0.639767 0.395107
S6    S     S_3+6 0.382305 0.113334 0.343574 0.146978
O28   O     O_2   0.288163 0.034154 0.319595 -0.220275
O29   O     O_2   0.369837 0.213297 0.336357 -0.161829
O30   O     O_3   0.480414 0.133760 0.315305 -0.442502
H22   H     H_    0.462711 0.161586 0.280060 0.390612

loop_
_geom_bond_atom_site_label_1
_geom_bond_atom_site_label_2
_ccdc_geom_bond_type
S5    O27   S    
C66   C68   A    
C21   H11   S    
C70   H2    S    
C8    C26   A    
C14   C18   A    
C43   S5    S    
S1    O13   D    
S6    O30   S    
C73   N1    S    
C45   N1    A    
C1    O3    A    
O15   H17   S    
C47   C49   A    
C30   S2    S    
C27   C33   A    
Cu2   O3    S    
C12   C68   A    
C72   F10   S    
C19   H13   S    
C35   C37   A    
S6    O29   D    
Cu2   N3    S    
C9    C22   A    
C29   C37   A    
C23   O5    A    
C26   H16   S    
S5    O25   D    
C66   C74   A    
C46   O10   S    
Cu1   O1    S    
C65   C73   A    
S2    O16   D    
C30   C38   A    
C3    C18   A    
C60   C62   A    
C41   F3    S    
C69   C71   A    
C74   N2    S    
C44   S6    S    
C69   H1    S    
C23   O7    A    
C67   F14   S    
C11   C67   A    
C65   C67   A    
S3    O21   S    
O30   H22   S    
C22   H12   S    
C24   O6    A    
C48   C56   A    
C1    C27   S    
C52   C54   A    
Cu2   O7    S    
C48   C50   A    
C62   H6    S    
C2    O4    A    
S3    O20   D    
C41   C43   A    
C71   F9    S    
C42   C44   A    
C45   O9    S    
Cu1   N4    S    
C47   F7    S    
C39   C42   A    
C53   C55   A    
C10   C21   A    
Cu2   O6    S    
C54   C56   A    
C25   H15   S    
C59   C61   A    
C32   F1    S    
C13   C19   A    
C27   C31   A    
C14   C20   A    
C28   C32   A    
S6    O28   D    
C4    C6    A    
C1    O1    A    
C39   C40   A    
C5    C7    A    
C53   C57   A    
C15   C26   A    
C6    C8    A    
C58   C59   A    
C49   F6    S    
C20   H14   S    
C51   C53   A    
C37   C43   A    
C52   H7    S    
C35   C39   A    
Cu1   Cu2   S    
C59   H9    S    
C38   C44   A    
C3    C9    A    
C34   H3    S    
C66   S3    S    
C46   N2    A    
C36   C40   A    
S1    O14   D    
C49   N3    A    
S4    O23   D    
C4    C17   A    
C72   C74   A    
C40   C41   A    
C20   C22   A    
C8    F12   S    
S3    O19   D    
C56   C62   A    
C65   S4    S    
C4    C10   A    
C42   F4    S    
C64   O11   S    
C47   C55   A    
O27   H21   S    
C54   C58   A    
C16   C25   A    
S5    O26   D    
C12   C70   A    
C60   H10   S    
C6    C46   A    
C19   C21   A    
C9    C63   A    
C29   S1    S    
C10   C64   A    
C50   F5    S    
O21   H19   S    
C3    C5    A    
S4    O24   S    
C70   C72   A    
O18   H18   S    
C11   C69   A    
C33   H4    S    
C15   C17   A    
C68   F13   S    
C12   C24   S    
C7    C25   A    
S2    O18   S    
C13   C17   A    
C36   C38   A    
C63   O12   S    
C64   N2    A    
C29   C31   A    
C61   H5    S    
O24   H20   S    
C30   C32   A    
C50   N4    A    
C57   C58   A    
Cu1   O8    S    
C5    C45   A    
C48   F8    S    
C55   C61   A    
C11   C23   S    
Cu1   O4    S    
C33   C35   A    
C31   F2    S    
S2    O17   D    
C52   N4    A    
S1    O15   S    
C34   C36   A    
C7    F11   S    
S4    O22   D    
C28   C34   A    
C57   C60   A    
C2    O2    A    
C16   C18   A    
C13   C16   A    
C71   C73   A    
Cu1   O5    S    
C14   C15   A    
C2    C28   S    
C24   O8    A    
C63   N1    A    
Cu2   O2    S    
C51   H8    S    
C51   N3    A    
