data_mof_unit_40082.cif
_audit_creation_date              2013-03-05T15:57:28-0500
_audit_creation_method            fapswitch 2.2
_symmetry_space_group_name_H-M    P1
_symmetry_Int_Tables_number       1
_space_group_crystal_system       triclinic
_cell_length_a                    13.800843
_cell_length_b                    15.068816
_cell_length_c                    15.750561
_cell_angle_alpha                 88.96773
_cell_angle_beta                  68.710823
_cell_angle_gamma                 91.67494
_cell_volume                      3049.25608851

loop_
_atom_site_label
_atom_site_type_symbol
_atom_site_description
_atom_site_fract_x
_atom_site_fract_y
_atom_site_fract_z
_atom_type_partial_charge
O1    O     O_R   0.417730 0.629750 0.499970 -0.566252
O2    O     O_R   0.582270 0.370250 0.500030 -0.566251
O3    O     O_R   0.582270 0.629730 0.499980 -0.602007
O4    O     O_R   0.417730 0.370270 0.500020 -0.602007
C1    C     C_R   0.501272 0.671321 0.499417 0.815476
C2    C     C_R   0.498728 0.328679 0.500583 0.815476
O5    O     O_R   0.371590 0.500020 0.629830 -0.535546
O6    O     O_R   0.628410 0.499980 0.370170 -0.535545
O7    O     O_R   0.536130 0.499990 0.629840 -0.599583
O8    O     O_R   0.463870 0.500010 0.370160 -0.599583
C3    C     C_R   0.435971 0.501771 0.673154 0.822570
C4    C     C_R   0.564029 0.498229 0.326846 0.822570
Cu1   Cu    Cu3+1 0.402580 0.500010 0.499990 0.970819
Cu2   Cu    Cu3+1 0.597420 0.499990 0.500010 0.970819
C5    C     C_R   0.396260 0.505870 0.773860 -0.184438
C6    C     C_R   0.603740 0.494129 0.226140 -0.184438
C7    C     C_R   0.259397 0.512338 0.922981 -0.232882
C8    C     C_R   0.740603 0.487662 0.077019 -0.232882
C9    C     C_R   0.290737 0.517975 0.827820 0.338188
C10   C     C_R   0.709263 0.482024 0.172179 0.338188
C11   C     C_R   0.468033 0.497064 0.817180 -0.276913
C12   C     C_R   0.531967 0.502936 0.182820 -0.276912
C13   C     C_R   0.439717 0.505647 0.911478 0.064866
C14   C     C_R   0.560283 0.494353 0.088522 0.064866
C15   C     C_R   0.332504 0.502694 0.965890 0.041521
C16   C     C_R   0.667496 0.497306 0.034110 0.041522
C17   C     C_R   0.515854 0.510629 0.952738 -0.016858
C18   C     C_R   0.484146 0.489370 0.047262 -0.016858
C19   C     C_R   0.377532 0.463550 0.097154 0.152048
C20   C     C_R   0.622468 0.536450 0.902846 0.152048
C21   C     C_R   0.300930 0.483861 0.060466 0.138340
C22   C     C_R   0.699070 0.516139 0.939534 0.138340
H1    H     H_    0.453042 0.518811 0.223064 0.185355
H2    H     H_    0.546958 0.481189 0.776936 0.185355
H3    H     H_    0.177214 0.515902 0.962553 0.191777
H4    H     H_    0.822786 0.484098 0.037447 0.191777
C23   C     C_R   0.570563 0.187233 0.526594 -0.205897
C24   C     C_R   0.429438 0.812767 0.473404 -0.205897
C25   C     C_R   0.497075 0.231842 0.501556 -0.070240
C26   C     C_R   0.502925 0.768158 0.498442 -0.070240
C27   C     C_R   0.424019 0.184105 0.476171 -0.243666
C28   C     C_R   0.575982 0.815895 0.523826 -0.243666
C29   C     C_R   0.423577 0.091047 0.475164 0.108331
C30   C     C_R   0.576425 0.908953 0.524831 0.108334
C31   C     C_R   0.498831 0.046499 0.500338 0.017388
C32   C     C_R   0.501171 0.953501 0.499659 0.017387
C33   C     C_R   0.572047 0.095055 0.526122 0.070895
C34   C     C_R   0.427955 0.904945 0.473874 0.070895
C35   C     C_R   0.350497 0.041410 0.449345 0.169685
C36   C     C_R   0.649507 0.958590 0.550648 0.169684
C37   C     C_R   0.353773 0.948713 0.449047 -0.198646
C38   C     C_R   0.646231 0.051287 0.550946 -0.198645
H5    H     H_    0.626828 0.224355 0.546783 0.150941
H6    H     H_    0.373173 0.775644 0.453215 0.150941
H7    H     H_    0.369077 0.220252 0.455803 0.161395
H8    H     H_    0.630924 0.779748 0.544195 0.161395
H9    H     H_    0.298030 0.910243 0.429398 0.145632
H10   H     H_    0.701975 0.089757 0.570594 0.145632
C39   C     C_R   0.234707 0.550903 0.437190 -0.025078
C40   C     C_R   0.765293 0.449097 0.562810 -0.025079
N1    N     N_R   0.256170 0.500070 0.500040 -0.181157
N2    N     N_R   0.743830 0.499930 0.499960 -0.181157
C41   C     C_R   0.177928 0.445961 0.561791 0.354348
C42   C     C_R   0.822072 0.554039 0.438209 0.354348
C43   C     C_R   0.072398 0.452937 0.568798 -0.018176
C44   C     C_R   0.927602 0.547063 0.431202 -0.018176
C45   C     C_R   0.051582 0.500630 0.500380 0.007804
C46   C     C_R   0.948418 0.499370 0.499619 0.007804
C47   C     C_R   0.133977 0.548816 0.432349 -0.007475
C48   C     C_R   0.866023 0.451184 0.567651 -0.007475
C49   C     C_R   0.987556 0.411697 0.640568 -0.166766
C50   C     C_R   0.012444 0.588303 0.359432 -0.166766
C51   C     C_R   0.886247 0.407901 0.639376 0.162834
C52   C     C_R   0.113753 0.592098 0.360624 0.162834
H11   H     H_    0.297854 0.590397 0.388697 0.147066
H12   H     H_    0.702145 0.409603 0.611303 0.147066
H13   H     H_    0.997698 0.384145 0.700338 0.169101
H14   H     H_    0.002302 0.615854 0.299662 0.169101
C53   C     C_3   0.186159 0.477634 0.119945 -0.805701
H15   H     H_    0.171858 0.466464 0.193260 0.251615
H16   H     H_    0.149567 0.541109 0.114660 0.237972
H17   H     H_    0.146722 0.422379 0.097809 0.249587
C54   C     C_3   0.813841 0.522366 0.880055 -0.805701
H18   H     H_    0.828142 0.533536 0.806740 0.251616
H19   H     H_    0.853278 0.577621 0.902191 0.249587
H20   H     H_    0.850433 0.458891 0.885340 0.237973
C55   C     C_3   0.205849 0.367455 0.608988 -0.720765
H21   H     H_    0.139776 0.325989 0.654428 0.174308
H22   H     H_    0.247068 0.319864 0.556864 0.209901
H23   H     H_    0.250607 0.386929 0.651221 0.261484
C56   C     C_3   0.794151 0.632545 0.391011 -0.720765
H24   H     H_    0.860224 0.674011 0.345572 0.174308
H25   H     H_    0.749393 0.613071 0.348779 0.261484
H26   H     H_    0.752932 0.680136 0.443136 0.209901
C57   C     C_3   0.801131 0.358268 0.715993 -0.901895
H27   H     H_    0.737944 0.403589 0.751152 0.235172
H28   H     H_    0.768986 0.302228 0.688265 0.230799
H29   H     H_    0.830060 0.330286 0.767681 0.243549
C58   C     C_3   0.198869 0.641732 0.284007 -0.901896
H30   H     H_    0.262056 0.596411 0.248848 0.235172
H31   H     H_    0.169940 0.669714 0.232319 0.243549
H32   H     H_    0.231014 0.697772 0.311735 0.230799
N3    N     N_R   0.785683 0.464671 0.211826 0.120405
O9    O     O_R   0.773610 0.395027 0.265251 -0.340899
O10   O     O_R   0.875870 0.506867 0.180461 -0.390099
N4    N     N_R   0.214317 0.535328 0.788174 0.120405
O11   O     O_R   0.226389 0.604973 0.734749 -0.340899
O12   O     O_R   0.124130 0.493133 0.819539 -0.390099
C59   C     C_3   0.346873 0.399386 0.179005 -0.860024
H33   H     H_    0.414785 0.364987 0.183746 0.245480
H34   H     H_    0.306623 0.433990 0.243246 0.225966
H35   H     H_    0.293702 0.345666 0.171922 0.246026
C60   C     C_3   0.653127 0.600614 0.820995 -0.860024
H36   H     H_    0.693377 0.566010 0.756754 0.225966
H37   H     H_    0.585215 0.635013 0.816254 0.245481
H38   H     H_    0.706298 0.654334 0.828078 0.246026
C61   C     C_3   0.268724 0.085304 0.422137 -0.870865
H39   H     H_    0.218137 0.124383 0.479396 0.232323
H40   H     H_    0.306686 0.129836 0.361361 0.235116
H41   H     H_    0.218141 0.035912 0.404613 0.235739
C62   C     C_3   0.731285 0.914696 0.577848 -0.870876
H42   H     H_    0.781865 0.875615 0.520588 0.232325
H43   H     H_    0.781872 0.964089 0.595364 0.235743
H44   H     H_    0.693328 0.870166 0.638626 0.235118

loop_
_geom_bond_atom_site_label_1
_geom_bond_atom_site_label_2
_geom_bond_distance
_ccdc_geom_bond_type
C15   C21   1.412650 A    
C44   C46   1.403303 A    
C55   H21   1.100374 S    
C41   C43   1.427230 A    
C16   C22   1.412649 A    
C57   H27   1.109624 S    
C8    C16   1.412804 A    
C57   H29   1.110621 S    
C25   C27   1.398057 A    
C10   N3    1.434953 S    
C31   C32   1.402833 A    
C5    C9    1.413779 A    
C54   H18   1.107377 S    
O1    C1    1.293080 A    
C19   C59   1.520193 S    
C18   C19   1.431688 A    
C24   C26   1.398828 A    
C14   C16   1.414120 A    
C59   H34   1.109983 S    
N4    O11   1.301290 A    
Cu2   N2    2.020324 S    
C8    C10   1.401178 A    
C40   N2    1.361361 A    
O4    Cu1   1.972254 S    
N1    C41   1.390715 A    
C27   H7    1.081217 S    
C62   H44   1.110510 S    
N2    C42   1.390715 A    
C28   H8    1.081218 S    
C3    C5    1.481344 S    
C34   C37   1.398893 A    
C44   C50   1.416349 A    
C4    C6    1.481344 S    
C35   C37   1.398931 A    
C36   C38   1.398929 A    
C37   H9    1.084871 S    
C13   C17   1.423048 A    
C23   C33   1.389867 A    
C24   C34   1.389868 A    
O6    C4    1.302052 A    
C60   H38   1.110930 S    
C23   H5    1.085038 S    
C46   C48   1.416819 A    
C26   C28   1.398054 A    
Cu1   Cu2   2.689080 S    
C17   C20   1.431687 A    
C27   C29   1.402505 A    
O2    C2    1.293080 A    
C36   C62   1.509740 S    
C28   C30   1.402505 A    
C12   H1    1.079248 S    
C30   C32   1.420079 A    
C31   C33   1.409515 A    
C38   H10   1.084870 S    
C32   C34   1.409513 A    
C39   N1    1.361362 A    
C45   C46   1.427714 A    
C50   C52   1.404588 A    
C59   H33   1.109284 S    
C61   H41   1.111035 S    
C56   H24   1.100375 S    
C49   C51   1.404589 A    
C29   C35   1.416600 A    
C11   H2    1.079248 S    
C43   C45   1.403304 A    
C43   C49   1.416348 A    
C40   H12   1.080272 S    
C6    C12   1.399818 A    
C45   C47   1.416819 A    
C42   C44   1.427230 A    
O5    C3    1.302050 A    
O7    Cu2   1.908155 S    
C56   H25   1.097691 S    
O7    C3    1.301879 A    
C58   H30   1.109625 S    
C24   H6    1.085037 S    
C40   C48   1.419100 A    
C6    C10   1.413779 A    
C58   H32   1.110284 S    
C48   C51   1.411587 A    
C47   C52   1.411586 A    
N3    O10   1.301325 A    
C29   C31   1.420078 A    
C62   H42   1.110619 S    
C33   C38   1.398890 A    
O3    Cu2   1.972254 S    
O8    C4    1.301879 A    
C39   C47   1.419100 A    
O4    C2    1.300150 A    
C54   H19   1.110324 S    
C11   C13   1.401359 A    
C35   C61   1.509747 S    
C59   H35   1.110930 S    
O1    Cu1   1.960073 S    
C51   C57   1.510720 S    
C39   H11   1.080273 S    
C49   H13   1.078527 S    
C53   H16   1.110286 S    
C60   H36   1.109984 S    
C30   C36   1.416598 A    
C22   C54   1.518536 S    
O6    Cu2   1.931333 S    
C41   C55   1.517747 S    
C14   C18   1.423048 A    
O3    C1    1.300150 A    
O8    Cu1   1.908155 S    
C53   H17   1.110324 S    
C57   H28   1.110285 S    
C21   C53   1.518536 S    
C52   C58   1.510721 S    
C7    C15   1.412804 A    
C61   H40   1.110520 S    
C19   C21   1.414685 A    
C61   H39   1.110625 S    
C56   H26   1.103555 S    
C20   C22   1.414688 A    
C5    C11   1.399818 A    
N4    O12   1.301325 A    
C7    C9    1.401178 A    
C12   C14   1.401359 A    
C13   C15   1.414121 A    
O2    Cu2   1.960071 S    
C62   H43   1.111022 S    
C53   H15   1.107379 S    
C9    N4    1.434953 S    
O5    Cu1   1.931335 S    
C54   H20   1.110285 S    
Cu1   N1    2.020322 S    
C23   C25   1.398826 A    
C55   H23   1.097693 S    
C50   H14   1.078529 S    
N3    O9    1.301289 A    
C55   H22   1.103555 S    
C2    C25   1.458443 S    
C7    H3    1.081288 S    
C42   C56   1.517749 S    
C60   H37   1.109283 S    
C1    C26   1.458446 S    
C8    H4    1.081289 S    
C58   H31   1.110620 S    
C17   C18   1.418531 A    
C20   C60   1.520193 S    
