data_mof_unit_13835.cif
_audit_creation_date              2013-03-05T16:48:13-0500
_audit_creation_method            fapswitch 2.2
_symmetry_space_group_name_H-M    P1
_symmetry_Int_Tables_number       1
_space_group_crystal_system       triclinic
_cell_length_a                    23.451688
_cell_length_b                    8.925433
_cell_length_c                    8.096555
_cell_angle_alpha                 89.955213
_cell_angle_beta                  90.014863
_cell_angle_gamma                 90.172987
_cell_volume                      1694.73401363

loop_
_atom_site_label
_atom_site_type_symbol
_atom_site_description
_atom_site_fract_x
_atom_site_fract_y
_atom_site_fract_z
_atom_type_partial_charge
O1    O     O_R   0.500000 0.285350 0.636850 -0.613655
O2    O     O_R   0.500000 0.714650 0.363150 -0.612954
O3    O     O_R   0.500000 0.714650 0.636850 -0.614692
O4    O     O_R   0.500000 0.285350 0.363150 -0.616050
C1    C     C_R   0.499985 0.217969 0.500040 0.942462
C2    C     C_R   0.500015 0.782031 0.499959 0.944179
O5    O     O_R   0.416160 0.500000 0.636910 -0.626029
O6    O     O_R   0.583840 0.500000 0.363090 -0.619317
O7    O     O_R   0.583840 0.500000 0.636910 -0.625720
O8    O     O_R   0.416160 0.500000 0.363090 -0.619618
C3    C     C_R   0.208115 0.482964 0.491484 0.121621
C4    C     C_R   0.791936 0.500127 0.492299 0.116639
C5    C     C_R   0.388979 0.498945 0.499818 0.927391
C6    C     C_R   0.611012 0.500068 0.499875 0.927287
Zn1   Zn    Zn3+2 0.500000 0.500000 0.682780 1.002061
Zn2   Zn    Zn3+2 0.500000 0.500000 0.317220 1.003527
C7    C     C_R   0.298214 0.466685 0.349033 -0.315246
C8    C     C_R   0.702080 0.471762 0.350323 -0.315850
C9    C     C_R   0.295887 0.514001 0.644280 -0.196541
C10   C     C_R   0.703819 0.528450 0.643522 -0.198964
C11   C     C_R   0.326818 0.493551 0.498072 -0.175465
C12   C     C_R   0.673178 0.499887 0.498349 -0.176200
C13   C     C_R   0.881289 0.616511 0.425420 0.652876
C14   C     C_R   0.118971 0.352745 0.522018 0.621305
C15   C     C_R   0.879552 0.367732 0.534025 0.583106
C16   C     C_R   0.120242 0.607328 0.431368 0.608147
N1    N     N_R   0.852650 0.495610 0.486277 -0.363214
N2    N     N_R   0.147419 0.481317 0.483459 -0.363880
C17   C     C_R   0.938926 0.354445 0.515692 -0.134594
C18   C     C_R   0.060898 0.606515 0.409294 -0.149428
C19   C     C_R   0.940990 0.613317 0.411544 -0.120291
C20   C     C_R   0.059059 0.348230 0.514730 -0.120519
C21   C     C_R   0.969957 0.481627 0.461488 -0.139643
C22   C     C_R   0.029943 0.478343 0.460734 -0.139729
C23   C     C_R   0.968076 0.219659 0.553550 0.331613
C24   C     C_R   0.031761 0.731020 0.341385 0.343787
C25   C     C_R   0.971874 0.736721 0.347497 0.463294
C26   C     C_R   0.028097 0.217768 0.558259 0.471815
C27   C     C_1   0.499995 0.065199 0.500057 -0.174190
C28   C     C_1   0.500006 0.934801 0.499941 -0.173936
C29   C     C_R   0.238765 0.460594 0.344989 0.495729
C30   C     C_R   0.761568 0.470889 0.346589 0.495389
C31   C     C_R   0.236584 0.510138 0.642728 0.447737
C32   C     C_R   0.763130 0.530201 0.642146 0.451376
N3    N     N_1   0.500000 0.500000 0.073640 -0.031361
N4    N     N_1   0.500000 0.500000 0.926360 -0.030905
O9    O     O_2   0.851572 0.739366 0.380878 -0.442382
O10   O     O_2   0.149050 0.231246 0.568870 -0.430724
O11   O     O_2   0.848579 0.256356 0.602841 -0.487100
O12   O     O_2   0.150896 0.733524 0.406047 -0.471364
O13   O     O_3   0.939186 0.087752 0.583996 -0.708040
H1    H     H_    0.910614 0.075515 0.494778 0.404151
O14   O     O_3   0.060475 0.846332 0.263821 -0.696193
H2    H     H_    0.088520 0.800224 0.187769 0.382381
O15   O     O_3   0.942535 0.858960 0.285538 -0.682194
H3    H     H_    0.969196 0.940639 0.255407 0.382349
O16   O     O_3   0.057448 0.088967 0.601338 -0.644334
H4    H     H_    0.030770 0.007939 0.633313 0.383439
O17   O     O_3   0.209323 0.433724 0.200115 -0.707896
H5    H     H_    0.237023 0.419977 0.108856 0.366248
O18   O     O_3   0.791312 0.441020 0.203130 -0.702213
H6    H     H_    0.763808 0.422689 0.112246 0.365304
O19   O     O_3   0.208438 0.534774 0.790068 -0.725797
H7    H     H_    0.166754 0.533848 0.771385 0.349209
O20   O     O_3   0.790965 0.561649 0.788509 -0.712831
H8    H     H_    0.832573 0.566683 0.769142 0.355314
H9    H     H_    0.322006 0.449720 0.235893 0.178249
H10   H     H_    0.678483 0.449015 0.237989 0.178510
H11   H     H_    0.317710 0.534940 0.760050 0.190707
H12   H     H_    0.681731 0.551213 0.758301 0.191856

loop_
_geom_bond_atom_site_label_1
_geom_bond_atom_site_label_2
_geom_bond_distance
_ccdc_geom_bond_type
Zn2   N3    1.972159 S    
O4    Zn2   1.951317 S    
C4    C30   1.402151 A    
O7    C6    1.279619 A    
C19   C21   1.417912 A    
C3    C31   1.415330 A    
O1    Zn1   1.951887 S    
C13   N1    1.361359 A    
C15   N1    1.361525 A    
C26   O16   1.386031 S    
O2    Zn2   1.951886 S    
C32   O20   1.381389 S    
C17   C23   1.418743 A    
C16   N2    1.361070 A    
Zn1   N4    1.972159 S    
C18   C24   1.416890 A    
O15   H3    0.989426 S    
O3    C2    1.260582 A    
C6    C12   1.457980 S    
C14   C20   1.406709 A    
C21   C22   1.407170 A    
O7    Zn1   2.001052 S    
C5    C11   1.458500 S    
O17   H5    0.991895 S    
C4    C32   1.415058 A    
O8    Zn2   2.001055 S    
N3    N4    1.192460 T    
C23   O13   1.378666 S    
C30   O18   1.381603 S    
C10   H12   1.083696 S    
O16   H4    0.989214 S    
O2    C2    1.260829 A    
C3    N2    1.424912 S    
O1    C1    1.260833 A    
O5    Zn1   2.000865 S    
C24   C25   1.406409 A    
C10   C32   1.391047 A    
C10   C12   1.400650 A    
C16   C18   1.403093 A    
C13   C19   1.405000 A    
C7    C29   1.395438 A    
C20   C26   1.414821 A    
C16   O12   1.349941 S    
C15   C17   1.405721 A    
O18   H6    0.991774 S    
C15   O11   1.349540 S    
C9    H11   1.083928 S    
C13   O9    1.349812 S    
C18   C22   1.415472 A    
C7    H9    1.083689 S    
C8    H10   1.083521 S    
O19   H7    0.989181 S    
C25   O15   1.385246 S    
C17   C21   1.416043 A    
O5    C5    1.279864 A    
C2    C28   1.363544 S    
O13   H1    0.991029 S    
C29   O17   1.381732 S    
C14   N2    1.361759 A    
O6    Zn2   2.000863 S    
O20   H8    0.989220 S    
C31   O19   1.381610 S    
C3    C29   1.401811 A    
C27   C28   1.163860 T    
C1    C27   1.363535 S    
C23   C26   1.408261 A    
O3    Zn1   1.951316 S    
O6    C6    1.277581 A    
C24   O14   1.379188 S    
C4    N1    1.425388 S    
C8    C30   1.395477 A    
C9    C11   1.400857 A    
C20   C22   1.417706 A    
C8    C12   1.400260 A    
C7    C11   1.400965 A    
C19   C25   1.414607 A    
O14   H2    0.991628 S    
C9    C31   1.391153 A    
O4    C1    1.260580 A    
O8    C5    1.277586 A    
C14   O10   1.349563 S    
