data_mof_unit_46302.cif
_audit_creation_date              2012-12-11T16:48:27-0500
_audit_creation_method            fapswitch 2.2
_symmetry_space_group_name_H-M    P1
_symmetry_Int_Tables_number       1
_space_group_crystal_system       triclinic
_cell_length_a                    17.2648
_cell_length_b                    24.277867
_cell_length_c                    15.135678
_cell_angle_alpha                 89.904317
_cell_angle_beta                  125.803455
_cell_angle_gamma                 89.722093
_cell_volume                      5145.15286724

loop_
_atom_site_label
_atom_site_type_symbol
_atom_type_description
_atom_site_fract_x
_atom_site_fract_y
_atom_site_fract_z
_atom_type_partial_charge
C1    C     C_R   0.358675 0.345905 0.910689 0.086284
C2    C     C_R   0.421341 0.499302 0.630674 -0.087638
C3    C     C_R   0.098132 0.876544 0.907929 -0.103348
C4    C     C_R   0.382064 0.314874 0.999051 -0.019624
C5    C     C_R   0.689126 0.363438 0.998316 0.030750
C6    C     C_R   0.882063 0.814874 0.999051 -0.019625
C7    C     C_R   0.189126 0.863438 0.998316 0.030749
C8    C     C_3   0.946637 0.413059 0.231122 -0.254403
C9    C     C_3   0.117167 0.296040 0.861028 -0.141879
C10   C     C_3   0.446638 0.913058 0.231123 -0.254404
C11   C     C_3   0.617171 0.796039 0.861035 -0.141871
C12   C     C_3   0.604924 0.380275 0.348970 -0.303643
C13   C     C_R   0.981079 0.999059 0.306856 -0.090461
C14   C     C_3   0.307189 0.400700 0.577002 -0.224214
C15   C     C_3   0.104924 0.880275 0.348970 -0.303643
C16   C     C_3   0.807189 0.900700 0.577002 -0.224214
C17   C     C_3   0.208792 0.429207 0.889264 -0.158227
C18   C     C_3   0.865389 0.380673 0.400657 -0.275751
C19   C     C_3   0.708793 0.929207 0.889264 -0.158227
C20   C     C_3   0.365389 0.880673 0.400657 -0.275748
C21   C     C_R   0.921341 0.999302 0.630674 -0.087638
C22   C     C_R   0.173931 0.505785 0.725334 -0.017474
C23   C     C_R   0.812953 0.500438 0.356168 -0.024752
C24   C     C_R   0.673931 0.005785 0.725334 -0.017474
C25   C     C_R   0.312953 0.000438 0.356168 -0.024751
C26   C     C_2   0.913989 0.479436 0.551189 -0.132432
C27   C     C_2   0.012357 0.471459 0.646832 -0.163428
C28   C     C_2   0.413989 0.979436 0.551189 -0.132432
C29   C     C_R   0.690206 0.375569 0.089424 -0.165605
C30   C     C_2   0.512357 0.971459 0.646832 -0.163427
C31   C     C_2   0.900595 0.504777 0.464655 -0.178110
C32   C     C_2   0.073367 0.513408 0.681861 -0.166825
C33   C     C_2   0.400595 0.004777 0.464655 -0.178110
C34   C     C_2   0.573367 0.013408 0.681861 -0.166825
C35   C     C_R   0.399495 0.775692 0.084109 0.099540
C36   C     C_R   0.743724 0.683511 0.898546 0.102080
C37   C     C_R   0.899495 0.275692 0.084109 0.099541
C38   C     C_R   0.243724 0.183511 0.898546 0.102079
C39   C     C_R   0.356695 0.742461 0.991742 0.060646
C40   C     C_R   0.858674 0.845905 0.910689 0.086282
C41   C     C_R   0.763538 0.662605 0.996657 0.078382
C42   C     C_R   0.856695 0.242461 0.991742 0.060645
C43   C     C_R   0.263538 0.162605 0.996657 0.078383
C44   C     C_R   0.282492 0.766682 0.892448 -0.207568
C45   C     C_R   0.848529 0.679972 0.094263 -0.212961
C46   C     C_R   0.782492 0.266682 0.892447 -0.207568
C47   C     C_R   0.348529 0.179972 0.094263 -0.212961
C48   C     C_R   0.736834 0.314243 0.892868 -0.150837
C49   C     C_R   0.395433 0.227050 0.094601 -0.173195
C50   C     C_R   0.236835 0.814243 0.892868 -0.150837
C51   C     C_R   0.190206 0.875569 0.089424 -0.165605
C52   C     C_R   0.895433 0.727050 0.094601 -0.173194
C53   C     C_R   0.763744 0.337187 0.992823 -0.002594
C54   C     C_R   0.356947 0.257238 0.997484 0.061714
C55   C     C_R   0.263744 0.837187 0.992823 -0.002594
C56   C     C_R   0.856946 0.757238 0.997484 0.061712
C57   C     C_R   0.440886 0.651788 0.088405 -0.136916
C58   C     C_R   0.601587 0.619413 0.910103 -0.145941
C59   C     C_R   0.940886 0.151788 0.088405 -0.136916
C60   C     C_R   0.101587 0.119413 0.910103 -0.145942
C61   C     C_R   0.856076 0.323545 0.084156 -0.001731
C62   C     C_R   0.378515 0.683607 0.996634 0.067532
C63   C     C_R   0.286440 0.231774 0.900012 -0.060085
C64   C     C_R   0.356076 0.823545 0.084156 -0.001732
C65   C     C_R   0.786440 0.731774 0.900012 -0.060089
C66   C     C_3   0.905762 0.319603 0.205305 0.520785
C67   C     C_3   0.198682 0.251901 0.794242 0.548234
C68   C     C_3   0.405761 0.819603 0.205306 0.520784
C69   C     C_3   0.698681 0.751901 0.794242 0.548233
C70   C     C_3   0.448792 0.765372 0.202562 -0.616705
C71   C     C_3   0.653121 0.697134 0.788546 -0.708400
C72   C     C_3   0.948793 0.265373 0.202562 -0.616706
C73   C     C_R   0.690065 0.634831 0.000116 0.053499
C74   C     C_3   0.153121 0.197134 0.788547 -0.708406
C75   C     C_R   0.459729 0.451814 0.522657 0.171302
C76   C     C_R   0.479025 0.452377 0.447448 0.247095
C77   C     C_R   0.959729 0.951814 0.522657 0.171301
C78   C     C_R   0.979026 0.952377 0.447449 0.247096
C79   C     C_R   0.412512 0.495792 0.530937 0.040983
C80   C     C_R   0.451609 0.497419 0.377876 0.042247
C81   C     C_R   0.912512 0.995792 0.530937 0.040983
C82   C     C_R   0.951609 0.997419 0.377876 0.042247
C83   C     C_R   0.374789 0.538596 0.454018 -0.210847
C84   C     C_R   0.878515 0.183607 0.996634 0.067532
C85   C     C_R   0.393919 0.539178 0.376180 -0.211687
C86   C     C_R   0.874789 0.038596 0.454018 -0.210846
C87   C     C_R   0.893918 0.039178 0.376180 -0.211688
C88   C     C_3   0.577127 0.428574 0.527671 -0.479031
C89   C     C_3   0.555203 0.427938 0.610050 -0.532454
C90   C     C_3   0.077128 0.928574 0.527671 -0.479031
C91   C     C_3   0.055204 0.927938 0.610051 -0.532453
C92   C     C_R   0.503581 0.453410 0.271464 0.600695
C93   C     C_R   0.438041 0.454130 0.694469 0.574211
C94   C     C_R   0.003581 0.953410 0.271464 0.600694
C95   C     C_R   0.190065 0.134831 0.000116 0.053499
C96   C     C_R   0.938041 0.954129 0.694469 0.574211
C97   C     C_R   0.232745 0.548592 0.746230 -0.254377
C98   C     C_R   0.760353 0.545651 0.296010 -0.244477
C99   C     C_R   0.732745 0.048592 0.746230 -0.254377
C100  C     C_R   0.260353 0.045651 0.296010 -0.244477
C101  C     C_R   0.496157 0.545636 0.265544 -0.235480
C102  C     C_R   0.445355 0.545039 0.695070 -0.244785
C103  C     C_R   0.996157 0.045636 0.265544 -0.235481
C104  C     C_R   0.945355 0.045039 0.695070 -0.244785
C105  C     C_R   0.230198 0.457833 0.761067 0.562605
C106  C     C_R   0.481079 0.499059 0.306856 -0.090461
C107  C     C_R   0.760819 0.453681 0.298389 0.552892
C108  C     C_R   0.730198 0.957833 0.761067 0.562605
C109  C     C_R   0.260819 0.953681 0.298389 0.552891
C110  C     C_R   0.350284 0.651399 0.907422 -0.133160
C111  C     C_R   0.691085 0.624227 0.091659 -0.123654
C112  C     C_R   0.850283 0.151399 0.907422 -0.133160
C113  C     C_R   0.191085 0.124227 0.091659 -0.123653
C114  C     C_R   0.440726 0.347039 0.089386 -0.135637
C115  C     C_R   0.598132 0.376543 0.907929 -0.103349
C116  C     C_R   0.940726 0.847039 0.089386 -0.135636
H1    H     H_    0.326147 0.331364 0.828689 0.102615
H2    H     H_    0.872363 0.661887 0.171763 0.123452
H3    H     H_    0.393852 0.877284 0.487656 0.168842
H4    H     H_    0.750635 0.245880 0.815582 0.120060
H5    H     H_    0.372363 0.161887 0.171763 0.123452
H6    H     H_    0.672795 0.326947 0.815858 0.118104
H7    H     H_    0.454796 0.242405 0.172311 0.122541
H8    H     H_    0.172795 0.826947 0.815858 0.118103
H9    H     H_    0.954796 0.742405 0.172311 0.122541
H10   H     H_    0.859996 0.312700 0.232870 0.005759
H11   H     H_    0.210939 0.255659 0.730123 0.028503
H12   H     H_    0.359995 0.812700 0.232870 0.005760
H13   H     H_    0.748554 0.371058 0.172820 0.139206
H14   H     H_    0.710939 0.755660 0.730122 0.028504
H15   H     H_    0.419320 0.729461 0.219270 0.154543
H16   H     H_    0.644333 0.669651 0.724595 0.181698
H17   H     H_    0.919321 0.229462 0.219271 0.154543
H18   H     H_    0.144333 0.169652 0.724595 0.181699
H19   H     H_    0.337090 0.572856 0.458937 0.136191
H20   H     H_    0.368395 0.573313 0.319290 0.139431
H21   H     H_    0.837090 0.072856 0.458936 0.136190
H22   H     H_    0.868395 0.073312 0.319290 0.139431
H23   H     H_    0.585408 0.385915 0.508281 0.224703
H24   H     H_    0.826147 0.831364 0.828689 0.102615
H25   H     H_    0.600528 0.456602 0.679004 0.194946
H26   H     H_    0.085409 0.885916 0.508282 0.224703
H27   H     H_    0.100528 0.956602 0.679004 0.194945
H28   H     H_    0.635296 0.457412 0.548209 0.185242
H29   H     H_    0.549638 0.385641 0.634040 0.214768
H30   H     H_    0.135296 0.957412 0.548209 0.185242
H31   H     H_    0.049638 0.885641 0.634040 0.214768
H32   H     H_    0.488690 0.665942 0.171103 0.106147
H33   H     H_    0.578783 0.616814 0.827336 0.126038
H34   H     H_    0.988690 0.165942 0.171103 0.106147
H35   H     H_    0.248554 0.871058 0.172820 0.139206
H36   H     H_    0.078783 0.116814 0.827336 0.126039
H37   H     H_    0.489540 0.588315 0.280612 0.136764
H38   H     H_    0.433148 0.587561 0.668393 0.133119
H39   H     H_    0.989540 0.088315 0.280612 0.136764
H40   H     H_    0.933148 0.087561 0.668393 0.133119
H41   H     H_    0.315761 0.665673 0.824712 0.085043
H42   H     H_    0.749130 0.631363 0.175578 0.095882
H43   H     H_    0.815761 0.165673 0.824712 0.085042
H44   H     H_    0.249130 0.131363 0.175578 0.095882
H45   H     H_    0.482153 0.331526 0.170975 0.155116
H46   H     H_    0.957832 0.527455 0.471147 0.138895
H47   H     H_    0.571202 0.374166 0.823531 0.133160
H48   H     H_    0.982153 0.831526 0.170975 0.155116
H49   H     H_    0.071202 0.874166 0.823531 0.133160
H50   H     H_    0.857045 0.455857 0.543509 0.150155
H51   H     H_    0.036662 0.429187 0.669100 0.193022
H52   H     H_    0.357045 0.955857 0.543509 0.150156
H53   H     H_    0.536663 0.929187 0.669100 0.193023
H54   H     H_    0.876727 0.421442 0.216180 0.110977
H55   H     H_    0.942298 0.421981 0.156317 0.156789
H56   H     H_    0.999017 0.441911 0.295138 0.162285
H57   H     H_    0.045006 0.555148 0.657852 0.143249
H58   H     H_    0.163175 0.272049 0.937755 0.132903
H59   H     H_    0.044031 0.278919 0.808630 0.120682
H60   H     H_    0.107772 0.337509 0.883660 0.133972
H61   H     H_    0.376727 0.921442 0.216179 0.110978
H62   H     H_    0.442300 0.921980 0.156319 0.156790
H63   H     H_    0.499018 0.941910 0.295139 0.162285
H64   H     H_    0.663185 0.772051 0.937764 0.132901
H65   H     H_    0.544037 0.778917 0.808643 0.120679
H66   H     H_    0.607773 0.837510 0.883663 0.133970
H67   H     H_    0.527859 0.765724 0.248408 0.221618
H68   H     H_    0.457832 0.027455 0.471147 0.138894
H69   H     H_    0.587627 0.700276 0.784915 0.200474
H70   H     H_    0.027860 0.265724 0.248408 0.221618
H71   H     H_    0.087627 0.200276 0.784916 0.200473
H72   H     H_    0.660796 0.407777 0.413881 0.166081
H73   H     H_    0.615294 0.375472 0.283855 0.201694
H74   H     H_    0.614459 0.338971 0.385645 0.163380
H75   H     H_    0.266355 0.428186 0.595131 0.119010
H76   H     H_    0.280140 0.358309 0.568880 0.174731
H77   H     H_    0.292927 0.412149 0.497681 0.149885
H78   H     H_    0.160796 0.907777 0.413881 0.166082
H79   H     H_    0.545006 0.055147 0.657852 0.143249
H80   H     H_    0.115294 0.875472 0.283855 0.201694
H81   H     H_    0.114459 0.838971 0.385645 0.163380
H82   H     H_    0.766354 0.928187 0.595129 0.119010
H83   H     H_    0.780139 0.858309 0.568880 0.174731
H84   H     H_    0.792928 0.912149 0.497680 0.149885
H85   H     H_    0.214104 0.591800 0.734261 0.137251
H86   H     H_    0.773373 0.587745 0.324363 0.135791
H87   H     H_    0.714104 0.091800 0.734261 0.137251
H88   H     H_    0.273373 0.087745 0.324363 0.135791
H89   H     H_    0.135782 0.440713 0.862347 0.131281
H90   H     H_    0.250636 0.745881 0.815582 0.120060
H91   H     H_    0.232889 0.394193 0.946763 0.169243
H92   H     H_    0.258799 0.463566 0.937720 0.106364
H93   H     H_    0.864130 0.337848 0.375299 0.167696
H94   H     H_    0.915020 0.404682 0.391642 0.163238
H95   H     H_    0.893852 0.377284 0.487656 0.168842
H96   H     H_    0.635782 0.940713 0.862348 0.131281
H97   H     H_    0.732889 0.894194 0.946764 0.169241
H98   H     H_    0.758799 0.963567 0.937719 0.106364
H99   H     H_    0.364130 0.837848 0.375299 0.167696
H100  H     H_    0.415020 0.904682 0.391642 0.163238
N1    N     N_R   0.395410 0.396350 0.944340 -0.054966
N2    N     N_R   0.474920 0.471030 0.794350 -0.096903
N3    N     N_R   0.025080 0.971030 0.205650 -0.106977
N4    N     N_R   0.974920 0.971030 0.794350 -0.096903
N5    N     N_R   0.320260 0.527820 0.794570 -0.066770
N6    N     N_R   0.679740 0.527820 0.205430 -0.063102
N7    N     N_R   0.820260 0.027820 0.794570 -0.066770
N8    N     N_R   0.179740 0.027820 0.205430 -0.063102
N9    N     N_R   0.524590 0.527840 0.205200 -0.064689
N10   N     N_R   0.475410 0.527840 0.794800 -0.065199
N11   N     N_R   0.024590 0.027840 0.205200 -0.064689
N12   N     N_R   0.604590 0.396350 0.055660 -0.041891
N13   N     N_R   0.975410 0.027840 0.794800 -0.065199
N14   N     N_R   0.320750 0.471000 0.795020 -0.109677
N15   N     N_R   0.679250 0.471000 0.204980 -0.097339
N16   N     N_R   0.820750 0.971000 0.795020 -0.109677
N17   N     N_R   0.179250 0.971000 0.204980 -0.097339
N18   N     N_R   0.393620 0.602490 0.942710 -0.034481
N19   N     N_R   0.606380 0.602490 0.057290 -0.034324
N20   N     N_R   0.893620 0.102490 0.942710 -0.034481
N21   N     N_R   0.106380 0.102490 0.057290 -0.034324
N22   N     N_R   0.451720 0.396350 0.057510 -0.062466
N23   N     N_R   0.895410 0.896350 0.944340 -0.054966
N24   N     N_R   0.548280 0.396350 0.942490 -0.045050
N25   N     N_R   0.951720 0.896350 0.057510 -0.062465
N26   N     N_R   0.048280 0.896350 0.942490 -0.045050
N27   N     N_R   0.104590 0.896350 0.055660 -0.041891
N28   N     N_R   0.449930 0.602500 0.055880 -0.036519
N29   N     N_R   0.550070 0.602500 0.944120 -0.037044
N30   N     N_R   0.949930 0.102500 0.055880 -0.036519
N31   N     N_R   0.050070 0.102500 0.944120 -0.037044
N32   N     N_R   0.525080 0.471030 0.205650 -0.106977
Ni1   Ni    Ni4+2 0.435420 0.434270 0.870230 0.234635
Ni2   Ni    Ni4+2 0.564580 0.434270 0.129770 0.216795
Ni3   Ni    Ni4+2 0.935420 0.934270 0.870230 0.234635
Ni4   Ni    Ni4+2 0.064580 0.934270 0.129770 0.216795
Ni5   Ni    Ni4+2 0.563430 0.564580 0.128740 0.196915
Ni6   Ni    Ni4+2 0.436570 0.564580 0.871260 0.190431
Ni7   Ni    Ni4+2 0.063430 0.064580 0.128740 0.196915
Ni8   Ni    Ni4+2 0.936570 0.064580 0.871260 0.190431
O1    O     O_3   0.979495 0.358644 0.267372 -0.598235
O2    O     O_3   0.770627 0.400949 0.339672 -0.676701
O3    O     O_3   0.708830 0.912903 0.798849 -0.614207
O4    O     O_3   0.270627 0.900949 0.339672 -0.676701
O5    O     O_3   0.157030 0.301161 0.801891 -0.574871
O6    O     O_3   0.479495 0.858643 0.267373 -0.598235
O7    O     O_3   0.657027 0.801160 0.801890 -0.574871
O8    O     O_3   0.511897 0.399692 0.306105 -0.655069
O9    O     O_3   0.406118 0.400712 0.661024 -0.655968
O10   O     O_3   0.011897 0.899692 0.306105 -0.655069
O11   O     O_3   0.906118 0.900712 0.661024 -0.655968
O12   O     O_3   0.208830 0.412903 0.798849 -0.614206

loop_
_geom_bond_atom_site_label_1
_geom_bond_atom_site_label_2
_ccdc_geom_bond_type
C45   H2    S    
C34   H79   S    
C79   C83   A    
C88   H28   S    
C112  H43   S    
C107  N15   A    
C17   H92   S    
C24   C99   A    
C100  H88   S    
C46   C48   A    
C11   H65   S    
C7    C55   S    
N8    N17   A    
C15   O10   S    
C91   H31   S    
C92   N32   A    
C16   H82   S    
C57   C62   A    
C69   O7    S    
C77   C78   A    
C78   C90   S    
C105  O12   S    
C89   H29   S    
C12   H73   S    
C11   H66   S    
C26   C27   S    
C84   C112  A    
C22   C32   S    
N4    N13   A    
C107  O2    S    
C10   H63   S    
C20   H100  S    
C4    C114  A    
C18   H94   S    
C111  H42   S    
C95   C113  A    
N12   N24   A    
C57   N28   A    
C3    C7    A    
C96   N4    A    
C19   O3    S    
C115  N24   A    
C15   H81   S    
C89   H25   S    
C47   H5    S    
C93   O9    S    
C54   C63   A    
C2    C102  A    
C103  N11   A    
C56   C65   A    
C49   H7    S    
C80   C106  S    
C102  N10   A    
N21   N31   A    
C9    H60   S    
C101  N9    A    
C60   H36   S    
C37   C42   A    
C69   C71   S    
C99   N7    A    
C94   N3    A    
C2    C79   S    
C86   H21   S    
C71   H16   S    
N5    Ni6   S    
C15   H78   S    
C53   C61   A    
N7    Ni8   S    
C66   C72   S    
C35   C70   S    
N32   Ni2   S    
C69   H14   S    
C9    O5    S    
N5    N14   A    
C111  N19   A    
C35   C64   A    
C24   C108  A    
C11   O7    S    
C13   C103  A    
N14   Ni1   S    
C43   C47   A    
C49   C54   A    
C68   H12   S    
C83   H19   S    
C81   C86   A    
C16   H84   S    
C14   O9    S    
C25   C109  A    
C40   H24   S    
C114  N22   A    
C14   H76   S    
N31   Ni8   S    
C66   O1    S    
C96   O11   S    
C113  N21   A    
C31   H46   S    
C51   H35   S    
N24   Ni1   S    
C22   C97   A    
C38   C74   S    
C5    C115  A    
C21   C104  A    
C12   H72   S    
C36   C41   A    
N25   Ni4   S    
N1    Ni1   S    
C71   H69   S    
C61   C66   S    
C68   O6    S    
C67   O5    S    
C8    H54   S    
C73   C111  A    
C91   H27   S    
C40   N23   A    
C2    C93   A    
N12   Ni2   S    
C48   C53   A    
C94   O10   S    
C63   C67   S    
C92   O8    S    
C30   C34   D    
N23   Ni3   S    
C19   H96   S    
C10   H62   S    
C20   H99   S    
N20   N30   A    
C17   H91   S    
C18   H93   S    
C50   H8    S    
C59   C84   A    
N19   Ni5   S    
C36   C71   S    
C47   C49   A    
C97   H85   S    
C74   H18   S    
C67   C74   S    
C28   H52   S    
C86   C87   A    
N22   Ni2   S    
C114  H45   S    
N11   Ni7   S    
C45   C52   A    
C112  N20   A    
C72   H17   S    
C13   C82   S    
N20   Ni8   S    
C76   C88   S    
C66   H10   S    
C93   N2    A    
C19   H97   S    
C3    N26   A    
C23   C31   S    
C35   C39   A    
C75   C76   A    
C30   H53   S    
C80   C85   A    
C67   H11   S    
N19   N29   A    
C26   H50   S    
C78   C82   A    
C25   C100  A    
C43   C95   S    
C62   C110  A    
C101  H37   S    
C23   C107  A    
C55   C64   A    
C23   C98   A    
C33   H68   S    
C44   H90   S    
C82   C87   A    
C42   C84   S    
C9    H58   S    
N23   N25   A    
N16   Ni3   S    
C1    H1    S    
C104  H40   S    
C16   H83   S    
C8    H55   S    
C6    C116  A    
C90   H26   S    
C88   H23   S    
C8    H56   S    
C20   O4    S    
C15   H80   S    
C103  H39   S    
C83   C85   A    
C14   H77   S    
C21   C81   S    
N6    N15   A    
N3    Ni4   S    
C99   H87   S    
C42   C46   A    
N2    Ni1   S    
C29   H13   S    
C37   C72   S    
C76   C80   A    
N26   Ni3   S    
C87   H22   S    
C90   C91   S    
C5    C29   A    
C64   C68   S    
N13   Ni8   S    
C72   H70   S    
N7    N16   A    
C3    H49   S    
C74   H71   S    
C108  N16   A    
C59   H34   S    
C44   C50   A    
C101  C106  A    
C39   C62   S    
N18   Ni6   S    
C116  N25   A    
C77   C91   S    
C41   C45   A    
N27   Ni4   S    
C4    C54   S    
C27   C32   D    
C36   C65   A    
C10   H61   S    
C26   C31   D    
C116  H48   S    
C58   N29   A    
C51   N27   A    
C92   C106  A    
C6    C56   S    
C46   H4    S    
N18   N28   A    
C28   C33   D    
C37   C61   A    
C52   H9    S    
C58   H33   S    
C39   C44   A    
C21   C96   A    
C58   C73   A    
C17   O12   S    
C22   C105  A    
C12   H74   S    
N29   Ni6   S    
C98   H86   S    
C50   C55   A    
C13   C94   A    
N28   Ni5   S    
C1    C4    A    
C98   N6    A    
C105  N14   A    
C19   H98   S    
C109  O4    S    
C28   C30   S    
C18   H95   S    
C5    C53   S    
C7    C51   A    
C38   C43   A    
C90   H30   S    
N21   Ni7   S    
C102  H38   S    
C48   H6    S    
N6    Ni5   S    
C104  N13   A    
N4    Ni3   S    
C32   H57   S    
C52   C56   A    
N9    N32   A    
C65   C69   S    
N26   N27   A    
C17   H89   S    
C70   H15   S    
C97   N5    A    
C9    H59   S    
C59   N30   A    
C6    C40   A    
C113  H44   S    
C115  H47   S    
C24   C34   S    
C18   O2    S    
C16   O11   S    
C110  H41   S    
C75   C89   S    
C85   H20   S    
C41   C73   S    
C60   C95   A    
C10   O6    S    
C70   H67   S    
N10   Ni6   S    
C8    O1    S    
C88   C89   S    
N8    Ni7   S    
C60   N31   A    
N9    Ni5   S    
C77   C81   A    
N30   Ni7   S    
C57   H32   S    
C25   C33   S    
C38   C63   A    
C68   C70   S    
C100  N8    A    
C14   H75   S    
C108  O3    S    
C1    N1    A    
C11   H64   S    
C29   N12   A    
N3    N11   A    
N15   Ni2   S    
C75   C79   A    
N1    N22   A    
N2    N10   A    
C20   H3    S    
C12   O8    S    
C110  N18   A    
N17   Ni4   S    
C27   H51   S    
C109  N17   A    
