data_mof_unit_46516.cif
_audit_creation_date              2012-12-10T18:11:38-0500
_audit_creation_method            fapswitch 2.2
_symmetry_space_group_name_H-M    P1
_symmetry_Int_Tables_number       1
_space_group_crystal_system       triclinic
_cell_length_a                    10.498263
_cell_length_b                    12.648033
_cell_length_c                    13.006093
_cell_angle_alpha                 81.655351
_cell_angle_beta                  92.638534
_cell_angle_gamma                 101.348721
_cell_volume                      1675.01552456

loop_
_atom_site_label
_atom_site_type_symbol
_atom_type_description
_atom_site_fract_x
_atom_site_fract_y
_atom_site_fract_z
_atom_type_partial_charge
C1    C     C_R   0.475789 0.439160 0.690753 0.846416
C2    C     C_3   0.064944 0.605606 0.496538 -0.194951
C3    C     C_3   0.974916 0.540883 0.584522 -0.242357
C4    C     C_3   0.877621 0.499529 0.500236 -0.123112
C5    C     C_R   0.411776 0.710441 0.058807 -0.133360
C6    C     C_R   0.503184 0.598194 0.197912 -0.158543
C7    C     C_R   0.452900 0.293080 0.841916 -0.211671
C8    C     C_R   0.447968 0.261946 0.948796 -0.186157
C9    C     C_R   0.445544 0.339620 0.013905 -0.099610
C10   C     C_R   0.441405 0.448609 0.971723 0.074860
C11   C     C_R   0.418373 0.472525 0.864923 0.023355
C12   C     C_R   0.742022 0.499550 0.501429 0.887996
C13   C     C_R   0.456418 0.534121 0.032185 -0.123499
C14   C     C_R   0.410597 0.631119 0.993223 -0.009090
C15   C     C_R   0.363441 0.646254 0.890393 0.452792
C16   C     C_R   0.368816 0.566821 0.826669 -0.290168
C17   C     C_R   0.519742 0.527233 0.129526 0.418599
C18   C     C_R   0.453458 0.691981 0.161905 -0.281061
C19   C     C_R   0.444562 0.400183 0.799679 -0.054335
C20   C     C_R   0.330499 0.099914 0.330545 -0.263776
C21   C     C_R   0.675730 0.801194 0.613174 -0.066643
C22   C     C_R   0.739918 0.908991 0.610044 -0.084423
C23   C     C_R   0.513572 0.561064 0.308417 0.893027
C24   C     C_R   0.679311 0.990041 0.555795 -0.201492
C25   C     C_R   0.554683 0.964623 0.510746 0.023762
C26   C     C_R   0.508150 0.855212 0.499699 0.194939
C27   C     C_R   0.484854 0.044646 0.463741 -0.102960
C28   C     C_R   0.392798 0.018507 0.382801 0.051875
C29   C     C_R   0.360358 0.910070 0.360826 -0.044265
C30   C     C_R   0.412493 0.829317 0.424073 -0.286944
C31   C     C_R   0.494166 0.146007 0.500920 0.547410
C32   C     C_R   0.356613 0.202716 0.360219 -0.036026
C33   C     C_R   0.258697 0.501390 0.496617 0.911106
C34   C     C_3   0.936979 0.397280 0.498351 -0.288171
C35   C     C_3   0.035519 0.440425 0.580699 0.464348
C36   C     C_3   0.124296 0.503800 0.495084 -0.132469
C37   C     C_3   0.026604 0.464443 0.412803 0.477431
C38   C     C_3   0.964597 0.565232 0.412267 -0.219784
H1    H     H_    0.464182 0.233886 0.792683 0.199275
H2    H     H_    0.442253 0.312523 0.096627 0.189022
H3    H     H_    0.451428 0.178759 0.981373 0.169073
H4    H     H_    0.328273 0.576086 0.748696 0.189540
H5    H     H_    0.311485 0.266536 0.318661 0.166330
H6    H     H_    0.259892 0.085231 0.268670 0.198544
H7    H     H_    0.720520 0.735453 0.651255 0.179999
H8    H     H_    0.886273 0.312360 0.495500 0.156226
H9    H     H_    0.735683 0.070333 0.539151 0.174709
H10   H     H_    0.384870 0.747735 0.406912 0.219310
H11   H     H_    0.930215 0.615943 0.343684 0.158980
H12   H     H_    0.121320 0.689777 0.495644 0.203850
H13   H     H_    0.949154 0.570932 0.655409 0.167740
H14   H     H_    0.442813 0.748759 0.214083 0.189479
H15   H     H_    0.375312 0.784271 0.032183 0.204977
N1    N     N_R   0.432930 0.222190 0.444670 -0.132965
N2    N     N_R   0.566370 0.776980 0.554790 -0.143499
O1    O     O_R   0.467970 0.366730 0.627150 -0.598155
O2    O     O_R   0.510820 0.544830 0.662520 -0.629594
O3    O     O_R   0.664630 0.410960 0.482340 -0.644565
O4    O     O_R   0.707470 0.589060 0.517710 -0.602850
O5    O     O_R   0.489180 0.455170 0.337480 -0.575464
O6    O     O_R   0.532030 0.633270 0.372850 -0.636271
O7    O     O_R   0.292530 0.410940 0.482290 -0.570433
O8    O     O_R   0.335370 0.589040 0.517660 -0.665413
Zn1   Zn    Zn3+2 0.471390 0.381080 0.476380 0.991435
Zn2   Zn    Zn3+2 0.528610 0.618920 0.523620 0.916500
O9    O     O_3   0.089049 0.381134 0.666470 -0.604940
C39   C     C_3   0.988553 0.316612 0.728237 0.085506
H16   H     H_    0.935484 0.250477 0.685986 0.186270
H17   H     H_    0.919732 0.366081 0.750055 0.121172
C40   C     C_3   0.047448 0.265010 0.827448 -0.766166
H18   H     H_    0.101375 0.329409 0.871411 0.255101
H19   H     H_    0.969304 0.212996 0.876899 0.204724
H20   H     H_    0.115473 0.213946 0.808249 0.265716
O10   O     O_3   0.594115 0.448819 0.160957 -0.617960
C41   C     C_3   0.717922 0.483909 0.116384 0.085634
H21   H     H_    0.773699 0.553563 0.153087 0.137603
H22   H     H_    0.711402 0.508567 0.030714 0.147205
C42   C     C_3   0.791292 0.390473 0.135059 -0.779389
H23   H     H_    0.885314 0.414913 0.094502 0.206510
H24   H     H_    0.809425 0.369092 0.219635 0.280046
H25   H     H_    0.733961 0.318061 0.103873 0.254206
C43   C     C_2   0.271886 0.877153 0.273688 0.871187
O11   O     O_2   0.190409 0.792999 0.286864 -0.678270
O12   O     O_R   0.286126 0.939033 0.175229 -0.825713
H26   H     H_    0.222004 0.906841 0.122069 0.345811
O13   O     O_3   0.512224 0.148665 0.607426 -0.628041
C44   C     C_3   0.637529 0.201991 0.636715 0.157360
H27   H     H_    0.636314 0.284116 0.653109 0.179942
H28   H     H_    0.711370 0.215875 0.576353 0.091406
C45   C     C_3   0.679529 0.141786 0.739600 -0.914355
H29   H     H_    0.742753 0.085074 0.726681 0.267912
H30   H     H_    0.734208 0.200510 0.789061 0.204882
H31   H     H_    0.593734 0.094745 0.783827 0.276386
C46   C     C_2   0.872761 0.935962 0.655435 0.894412
O14   O     O_2   0.920811 0.865063 0.708175 -0.642595
O15   O     O_R   0.944043 0.042453 0.637304 -0.829956
H32   H     H_    0.033026 0.050531 0.672403 0.350659
O16   O     O_3   0.058118 0.417515 0.327634 -0.612109
C47   C     C_3   0.111773 0.499803 0.247946 0.117115
H33   H     H_    0.192435 0.559744 0.277568 0.151290
H34   H     H_    0.035147 0.542968 0.211020 0.153768
C48   C     C_3   0.165787 0.447675 0.165576 -0.823646
H35   H     H_    0.093666 0.377367 0.143950 0.259060
H36   H     H_    0.189024 0.508199 0.095138 0.225710
H37   H     H_    0.255151 0.418480 0.195655 0.243738
O17   O     O_3   0.305083 0.734925 0.856346 -0.614309
C49   C     C_3   0.363448 0.795162 0.764650 0.090526
H38   H     H_    0.327894 0.753823 0.696085 0.161376
H39   H     H_    0.471610 0.807689 0.770033 0.143202
C50   C     C_3   0.325364 0.906431 0.747738 -0.750300
H40   H     H_    0.363236 0.952232 0.812942 0.244520
H41   H     H_    0.366518 0.953163 0.674027 0.240555
H42   H     H_    0.217901 0.897079 0.742985 0.278408

loop_
_geom_bond_atom_site_label_1
_geom_bond_atom_site_label_2
_ccdc_geom_bond_type
C44   H27   S    
O8    Zn2   S    
C34   C37   S    
C22   C46   S    
C35   C36   S    
C26   N2    A    
C18   H14   S    
C7    C8    A    
C38   H11   S    
C11   C19   A    
C29   C30   A    
C15   O17   S    
C30   H10   S    
C36   C37   S    
C1    O1    A    
C42   H24   S    
O17   C49   S    
C15   C16   A    
O16   C47   S    
C33   C36   S    
C48   H37   S    
C34   C35   S    
C50   H40   S    
O7    Zn1   S    
C2    H12   S    
C20   H6    S    
C12   O4    A    
O12   H26   S    
C8    C9    A    
C49   H38   S    
O1    Zn1   S    
C40   H18   S    
C34   H8    S    
C4    C12   S    
C9    C10   A    
C12   O3    A    
O9    C39   S    
C31   O13   S    
C21   C22   A    
C49   H39   S    
C46   O14   D    
C32   N1    A    
C37   O16   S    
N2    Zn2   S    
C21   H7    S    
O3    Zn1   S    
C23   O5    A    
C6    C18   A    
C4    C34   S    
C1    C19   S    
O10   C41   S    
C27   C31   A    
C39   H16   S    
C8    H3    S    
C21   N2    A    
C3    H13   S    
O13   C44   S    
C33   O7    A    
C5    C18   A    
C20   C28   A    
C35   O9    S    
C25   C26   A    
C9    H2    S    
C39   H17   S    
C48   H36   S    
C41   H21   S    
C37   C38   S    
C1    O2    A    
C11   C16   A    
C2    C38   S    
C45   H30   S    
C47   H33   S    
C3    C35   S    
C33   O8    A    
O15   H32   S    
C40   H20   S    
C24   C25   A    
C46   O15   S    
C41   H22   S    
C50   H42   S    
C5    C14   A    
C47   H34   S    
C4    C38   S    
C26   C30   A    
C43   O12   S    
C44   H28   S    
C17   O10   S    
C49   C50   S    
C22   C24   A    
C3    C4    S    
C16   H4    S    
C45   H31   S    
C20   C32   A    
C2    C36   S    
C6    C17   A    
C28   C29   A    
C42   H23   S    
C24   H9    S    
O2    Zn2   S    
C10   C13   A    
C25   C27   A    
C7    C19   A    
C13   C17   A    
O5    Zn1   S    
C39   C40   S    
C2    C3    S    
C5    H15   S    
C29   C43   S    
O4    Zn2   S    
C42   H25   S    
C45   H29   S    
N1    Zn1   S    
C6    C23   S    
C32   H5    S    
C31   N1    A    
C48   H35   S    
C41   C42   S    
C50   H41   S    
C10   C11   A    
O6    Zn2   S    
C23   O6    A    
C47   C48   S    
C43   O11   D    
C44   C45   S    
C27   C28   A    
C7    H1    S    
C14   C15   A    
C40   H19   S    
C13   C14   A    
