data_mof_unit_12214.cif
_audit_creation_date              2013-03-05T16:15:18-0500
_audit_creation_method            fapswitch 2.2
_symmetry_space_group_name_H-M    P1
_symmetry_Int_Tables_number       1
_space_group_crystal_system       triclinic
_cell_length_a                    27.798248
_cell_length_b                    10.609006
_cell_length_c                    9.472598
_cell_angle_alpha                 90.01497
_cell_angle_beta                  90.149808
_cell_angle_gamma                 90.564394
_cell_volume                      2793.43553846

loop_
_atom_site_label
_atom_site_type_symbol
_atom_site_description
_atom_site_fract_x
_atom_site_fract_y
_atom_site_fract_z
_atom_type_partial_charge
O1    O     O_R   0.500020 0.316850 0.620870 -0.586813
O2    O     O_R   0.499980 0.683150 0.379130 -0.583245
O3    O     O_R   0.500000 0.316860 0.379090 -0.593960
O4    O     O_R   0.500000 0.683140 0.620910 -0.591460
C1    C     C_R   0.499397 0.259653 0.499895 0.756098
C2    C     C_R   0.500123 0.740461 0.500118 0.761328
O5    O     O_R   0.430270 0.500020 0.620880 -0.528009
O6    O     O_R   0.569730 0.499980 0.379120 -0.563589
O7    O     O_R   0.430250 0.500030 0.379090 -0.565678
O8    O     O_R   0.569750 0.499970 0.620910 -0.526011
C3    C     C_R   0.407815 0.497946 0.499958 0.823558
C4    C     C_R   0.592605 0.499313 0.500121 0.828295
Cu1   Cu    Cu3+1 0.500010 0.499990 0.643150 0.970484
Cu2   Cu    Cu3+1 0.499990 0.500010 0.356850 0.949953
C5    C     C_R   0.178114 0.408714 0.574193 0.520358
C6    C     C_R   0.824080 0.608619 0.518676 0.590423
O9    O     O_2   0.202900 0.319267 0.643903 -0.551943
O10   O     O_2   0.799777 0.718092 0.521911 -0.537331
N1    N     N_R   0.202282 0.502092 0.503075 -0.449050
N2    N     N_R   0.799481 0.496057 0.520255 -0.438542
C7    C     C_R   0.178165 0.598109 0.438368 0.560456
C8    C     C_R   0.823359 0.383755 0.525047 0.538812
C9    C     C_R   0.280076 0.592763 0.570913 -0.182076
C10   C     C_R   0.720856 0.445070 0.623066 -0.208271
C11   C     C_R   0.330396 0.594345 0.568854 0.107573
C12   C     C_R   0.670516 0.442352 0.618009 0.109941
C13   C     C_R   0.328867 0.398212 0.432392 0.167332
C14   C     C_R   0.673727 0.550202 0.389276 0.119805
C15   C     C_R   0.278384 0.405693 0.422217 0.279698
C16   C     C_R   0.724304 0.545830 0.393545 0.276648
C17   C     C_R   0.253949 0.499977 0.498151 0.207217
C18   C     C_R   0.747748 0.495753 0.512239 0.242155
C19   C     C_R   0.102244 0.502105 0.506512 -0.049765
C20   C     C_R   0.899597 0.496233 0.516476 -0.053025
C21   C     C_R   0.127683 0.404464 0.572935 -0.007402
C22   C     C_R   0.874490 0.610748 0.512648 -0.021559
C23   C     C_R   0.102247 0.305515 0.637000 -0.148712
C24   C     C_R   0.900243 0.724482 0.503704 -0.141816
C25   C     C_R   0.127677 0.601420 0.441830 -0.082661
C26   C     C_R   0.873870 0.381960 0.526207 -0.082320
C27   C     C_R   0.355019 0.496561 0.499908 -0.160987
C28   C     C_R   0.646145 0.497023 0.501561 -0.151835
H1    H     H_    0.120819 0.231680 0.693519 0.185798
H2    H     H_    0.882012 0.814231 0.506447 0.189986
C29   C     C_R   0.975767 0.382492 0.532265 -0.008311
C30   C     C_R   0.025883 0.606725 0.455613 -0.009303
C31   C     C_R   0.975627 0.610412 0.481989 0.050874
C32   C     C_R   0.026291 0.391362 0.553063 0.052899
C33   C     C_R   0.950438 0.496215 0.510146 0.052725
C34   C     C_R   0.051360 0.500156 0.504845 0.051884
C35   C     C_R   0.949158 0.266475 0.532057 0.136747
C36   C     C_R   0.052091 0.703142 0.382484 0.129716
C37   C     C_R   0.898936 0.268337 0.530207 -0.122577
C38   C     C_R   0.102267 0.699036 0.377482 -0.123785
O11   O     O_2   0.798316 0.274131 0.526360 -0.546951
O12   O     O_2   0.202953 0.689552 0.370294 -0.548362
C39   C     C_R   0.052343 0.298955 0.626914 -0.225601
C40   C     C_R   0.950019 0.724270 0.488731 -0.223182
H3    H     H_    0.739542 0.405974 0.713250 0.165578
H4    H     H_    0.260830 0.665369 0.627243 0.163619
H5    H     H_    0.879556 0.179173 0.529118 0.198937
H6    H     H_    0.121315 0.772575 0.320402 0.198349
H7    H     H_    0.034484 0.223633 0.682906 0.151951
H8    H     H_    0.968156 0.814441 0.488600 0.156271
C41   C     C_3   0.541045 0.044210 0.554075 -0.164723
C42   C     C_3   0.457794 0.956143 0.446121 -0.172578
C43   C     C_3   0.536344 0.960381 0.421196 -0.175982
C44   C     C_3   0.462475 0.040273 0.578966 -0.171437
H9    H     H_    0.566464 0.927815 0.354731 0.127821
H10   H     H_    0.432448 0.075882 0.644265 0.126398
H11   H     H_    0.575086 0.083329 0.598236 0.123530
H12   H     H_    0.423863 0.916624 0.401751 0.120883
C45   C     C_3   0.499906 0.877614 0.500445 0.032969
C46   C     C_3   0.499005 0.122715 0.499671 0.034769
C47   C     C_3   0.504568 0.959401 0.633452 -0.141521
C48   C     C_3   0.494246 0.041055 0.366784 -0.140390
H13   H     H_    0.508829 0.923393 0.742789 0.124140
H14   H     H_    0.489942 0.077102 0.257477 0.125391
C49   C     C_3   0.503380 0.615363 0.051501 -0.224470
C50   C     C_3   0.496713 0.384776 0.948354 -0.202223
C51   C     C_3   0.464750 0.562814 0.950712 0.238802
C52   C     C_3   0.535316 0.437238 0.049166 0.251038
H15   H     H_    0.506304 0.711268 0.097788 0.137176
H16   H     H_    0.493864 0.288870 0.902040 0.133712
N3    N     N_3   0.500040 0.499970 0.858290 -0.171094
N4    N     N_3   0.499960 0.500030 0.141710 -0.165440
C53   C     C_3   0.538639 0.549902 0.951513 0.249224
C54   C     C_3   0.461450 0.450145 0.048107 0.253521
N5    N     N_2   0.352291 0.288055 0.380942 -0.414528
H17   H     H_    0.388126 0.298302 0.357152 0.261350
C55   C     C_3   0.343731 0.175813 0.464365 -0.648934
H18   H     H_    0.361923 0.094510 0.414571 0.213395
H19   H     H_    0.304720 0.153337 0.470532 0.271627
H20   H     H_    0.358297 0.189161 0.572750 0.205002
N6    N     N_2   0.651873 0.609438 0.270983 -0.431250
H21   H     H_    0.629148 0.553456 0.211864 0.300193
C56   C     C_3   0.635172 0.735986 0.296088 -0.680238
H22   H     H_    0.606376 0.735428 0.376884 0.220243
H23   H     H_    0.620662 0.775898 0.196560 0.211038
H24   H     H_    0.665397 0.797023 0.332875 0.241046
N7    N     N_3   0.424391 0.631723 0.891984 -0.522772
H25   H     H_    0.403688 0.663062 0.976700 0.205158
H26   H     H_    0.438439 0.712195 0.842967 0.224236
N8    N     N_3   0.575428 0.367154 0.107723 -0.581756
H27   H     H_    0.596004 0.335450 0.022918 0.207569
H28   H     H_    0.561134 0.287002 0.156776 0.219853
N9    N     N_3   0.582485 0.604716 0.893339 -0.524402
H29   H     H_    0.604070 0.633160 0.978121 0.200299
H30   H     H_    0.572785 0.686642 0.839548 0.213423
N10   N     N_3   0.417618 0.394278 0.104637 -0.554967
H31   H     H_    0.393738 0.381762 0.020305 0.211296
H32   H     H_    0.426515 0.304047 0.139561 0.199686
N11   N     N_2   0.252915 0.319420 0.332899 -0.411079
H33   H     H_    0.217695 0.301030 0.359516 0.265475
C57   C     C_3   0.258287 0.344406 0.183589 -0.619926
H34   H     H_    0.239396 0.269764 0.122015 0.231235
H35   H     H_    0.296830 0.344383 0.152965 0.250771
H36   H     H_    0.242352 0.437093 0.156785 0.228381
N12   N     N_2   0.752119 0.591838 0.277947 -0.396865
H37   H     H_    0.738455 0.670551 0.228920 0.288385
C58   C     C_3   0.766208 0.495661 0.178530 -0.665882
H38   H     H_    0.789832 0.538087 0.096623 0.230626
H39   H     H_    0.733896 0.454170 0.126216 0.226094
H40   H     H_    0.786536 0.420121 0.232811 0.244742
N13   N     N_3   0.644133 0.382064 0.730159 -0.528882
H41   H     H_    0.667272 0.352714 0.810685 0.209619
H42   H     H_    0.628197 0.300405 0.688512 0.204789
N14   N     N_3   0.356775 0.694796 0.636742 -0.550377
H43   H     H_    0.333368 0.756146 0.688077 0.218129
H44   H     H_    0.373900 0.747363 0.557826 0.198715
N15   N     N_3   0.970963 0.145876 0.510364 -0.614315
H45   H     H_    0.976236 0.101770 0.607667 0.213185
H46   H     H_    0.003122 0.154349 0.454167 0.235456
N16   N     N_3   0.029598 0.794826 0.293260 -0.596909
H47   H     H_    0.025257 0.878797 0.349188 0.219403
H48   H     H_    0.996888 0.761117 0.253039 0.241806

loop_
_geom_bond_atom_site_label_1
_geom_bond_atom_site_label_2
_geom_bond_distance
_ccdc_geom_bond_type
C42   C44   1.547047 S    
N7    H25   1.044886 S    
C13   C15   1.409422 A    
C36   N16   1.435625 S    
N6    H21   1.027614 S    
C50   H16   1.109946 S    
N1    C17   1.437530 S    
N14   H43   1.045613 S    
N8    H28   1.044685 S    
C56   H22   1.108917 S    
C32   C39   1.409476 A    
C31   C33   1.419037 A    
C51   N7    1.454557 S    
C44   C47   1.545485 S    
C5    N1    1.369740 A    
C19   C25   1.404754 A    
C46   C48   1.532601 S    
C14   N6    1.422649 S    
O1    C1    1.296550 A    
N1    C7    1.369098 A    
C11   N14   1.438324 S    
C10   C12   1.400057 A    
N4    C54   1.481855 S    
C25   C38   1.398372 A    
C16   N12   1.425634 S    
C29   C35   1.429734 A    
C44   C46   1.532052 S    
C52   C53   1.513827 S    
C30   C36   1.430123 A    
C1    C46   1.452714 S    
C5    C21   1.402191 A    
O4    Cu1   1.954484 S    
N10   H31   1.044931 S    
C58   H40   1.110655 S    
C4    C28   1.488769 S    
C24   C40   1.391340 A    
C37   H5    1.084016 S    
C42   H12   1.110015 S    
C57   H35   1.110734 S    
N9    H29   1.043969 S    
C13   N5    1.429551 S    
C43   C45   1.532105 S    
N5    C55   1.447392 S    
C6    N2    1.370341 A    
C54   N10   1.453273 S    
N3    C53   1.481661 S    
C42   C48   1.545783 S    
N7    H26   1.044762 S    
Cu1   Cu2   2.712003 S    
C50   C54   1.533832 S    
N9    H30   1.044940 S    
O2    C2    1.297210 A    
C49   C53   1.535570 S    
N8    H27   1.044836 S    
C56   H23   1.110150 S    
C36   C38   1.396841 A    
C51   N3    1.479999 S    
C39   H7    1.077081 S    
N12   C58   1.445915 S    
C40   H8    1.076949 S    
C9    H4    1.083362 S    
Cu2   N4    2.037934 S    
C50   C52   1.534872 S    
C11   C27   1.409671 A    
C55   H18   1.109882 S    
C49   C51   1.535584 S    
C35   N15   1.436095 S    
N16   H48   1.044781 S    
C38   H6    1.083964 S    
C41   C43   1.545514 S    
C19   C34   1.414469 A    
C41   H11   1.110301 S    
C42   C45   1.531531 S    
C41   C46   1.530111 S    
N11   C57   1.446894 S    
C43   H9    1.106873 S    
C12   N13   1.439002 S    
C9    C17   1.398018 A    
C23   H1    1.083285 S    
O5    C3    1.303124 A    
O7    Cu2   1.950612 S    
C10   C18   1.395199 A    
C24   H2    1.083357 S    
C50   N3    1.492869 S    
C55   H19   1.109722 S    
O7    C3    1.305284 A    
C13   C27   1.417198 A    
C7    C25   1.404729 A    
C29   C33   1.418227 A    
O6    C4    1.309369 A    
C57   H36   1.111642 S    
C8    C26   1.404468 A    
C6    O10   1.349721 S    
C47   H13   1.110450 S    
C58   H38   1.110337 S    
C8    O11   1.349608 S    
O3    Cu2   1.954483 S    
O8    C4    1.310244 A    
O4    C2    1.295910 A    
N2    C8    1.370232 A    
N13   H41   1.045956 S    
C20   C26   1.404634 A    
O1    Cu1   1.954311 S    
C45   C47   1.534086 S    
N15   H45   1.044444 S    
O3    C1    1.295524 A    
C56   H24   1.110989 S    
C12   C28   1.419969 A    
C2    C45   1.455126 S    
N11   H33   1.028475 S    
N2    C18   1.439872 S    
C29   C32   1.419931 A    
C5    O9    1.349849 S    
C15   N11   1.427756 S    
C30   C31   1.420747 A    
C20   C33   1.414704 A    
O6    Cu2   1.949548 S    
C14   C28   1.426033 A    
C21   C23   1.399343 A    
C48   H14   1.110466 S    
N15   H46   1.044786 S    
O8    Cu1   1.950612 S    
N14   H44   1.045596 S    
C7    O12   1.349531 S    
N12   H37   1.030928 S    
N6    C56   1.444719 S    
N16   H47   1.044532 S    
C30   C34   1.418316 A    
C41   C47   1.545797 S    
C22   C24   1.399613 A    
C14   C16   1.407635 A    
C15   C17   1.412383 A    
C52   N4    1.481664 S    
C6    C22   1.402592 A    
C55   H20   1.111177 S    
C16   C18   1.405137 A    
C10   H3    1.083393 S    
C32   C34   1.418628 A    
C19   C21   1.407646 A    
C3    C27   1.467586 S    
C20   C22   1.407467 A    
C9    C11   1.398925 A    
O2    Cu2   1.954310 S    
N10   H32   1.044680 S    
C58   H39   1.111719 S    
C51   C54   1.512344 S    
C49   H15   1.109961 S    
O5    Cu1   1.949548 S    
C53   N9    1.455035 S    
C44   H10   1.109417 S    
C26   C37   1.398726 A    
Cu1   N3    2.037934 S    
N13   H42   1.045822 S    
C52   N8    1.455023 S    
C43   C48   1.544161 S    
C35   C37   1.396477 A    
N5    H17   1.026639 S    
C49   N4    1.495006 S    
C23   C39   1.391329 A    
C57   H34   1.110406 S    
C31   C40   1.409618 A    
