data_mof_unit_48755.cif
_audit_creation_date              2012-12-11T15:35:33-0500
_audit_creation_method            fapswitch 2.2
_symmetry_space_group_name_H-M    P1
_symmetry_Int_Tables_number       1
_space_group_crystal_system       triclinic
_cell_length_a                    17.431237
_cell_length_b                    24.195318
_cell_length_c                    14.899736
_cell_angle_alpha                 90.202069
_cell_angle_beta                  124.863179
_cell_angle_gamma                 89.889375
_cell_volume                      5156.13480578

loop_
_atom_site_label
_atom_site_type_symbol
_atom_type_description
_atom_site_fract_x
_atom_site_fract_y
_atom_site_fract_z
_atom_type_partial_charge
C1    C     C_R   0.348513 0.150959 0.906920 -0.107308
C2    C     C_R   0.558717 0.152222 0.910079 -0.125897
C3    C     C_R   0.267960 0.547387 0.271471 -0.145886
C4    C     C_R   0.127807 0.934574 0.416392 0.185987
C5    C     C_R   0.181309 0.885681 0.446701 -0.176380
C6    C     C_R   0.216463 0.867087 0.387980 -0.135173
C7    C     C_R   0.199651 0.897109 0.298675 -0.063492
C8    C     C_R   0.149533 0.946460 0.269476 -0.092320
C9    C     C_R   0.113184 0.964926 0.327024 -0.159793
C10   C     C_R   0.077439 0.037849 0.691670 0.184420
C11   C     C_R   0.130733 0.018323 0.800312 -0.152833
C12   C     C_R   0.163807 0.054746 0.888174 -0.094206
C13   C     C_R   0.096948 0.374834 0.907230 -0.130333
C14   C     C_R   0.143219 0.111011 0.869103 -0.074347
C15   C     C_R   0.089019 0.130911 0.762101 -0.139105
C16   C     C_R   0.055858 0.094701 0.673847 -0.171411
C17   C     C_R   0.627804 0.434587 0.416378 0.185988
C18   C     C_R   0.681308 0.385695 0.446677 -0.176385
C19   C     C_R   0.716456 0.367107 0.387946 -0.135160
C20   C     C_R   0.699638 0.397134 0.298644 -0.063471
C21   C     C_R   0.649521 0.446485 0.269457 -0.092337
C22   C     C_R   0.613176 0.464945 0.327014 -0.159792
C23   C     C_R   0.577445 0.537834 0.691686 0.184419
C24   C     C_R   0.058717 0.652222 0.910079 -0.125897
C25   C     C_R   0.630746 0.518302 0.800324 -0.152829
C26   C     C_R   0.663826 0.554718 0.888196 -0.094209
C27   C     C_R   0.643235 0.610984 0.869139 -0.074345
C28   C     C_R   0.589027 0.630890 0.762143 -0.139095
C29   C     C_R   0.555862 0.594686 0.673879 -0.171409
C30   C     C_R   0.435561 0.000260 0.633616 0.042843
C31   C     C_R   0.935561 0.500260 0.633616 0.042842
C32   C     C_R   0.823759 0.000940 0.314046 0.030977
C33   C     C_R   0.323757 0.500941 0.314056 0.030978
C34   C     C_R   0.618918 0.183890 0.001516 0.041775
C35   C     C_R   0.684665 0.860671 0.997497 0.037941
C36   C     C_R   0.118918 0.683890 0.001516 0.041775
C37   C     C_R   0.310115 0.874866 0.907726 -0.142119
C38   C     C_R   0.184665 0.360671 0.997496 0.037940
C39   C     C_3   0.074225 0.947239 0.467367 -0.126583
C40   C     C_3   0.047143 0.997217 0.597585 -0.115779
C41   C     C_3   0.574224 0.447244 0.467360 -0.126586
C42   C     C_3   0.547145 0.497209 0.597591 -0.115775
C43   C     C_3   0.968047 0.948659 0.379690 -0.458543
C44   C     C_3   0.941645 0.999823 0.508875 -0.467518
C45   C     C_3   0.468046 0.448665 0.379686 -0.458537
C46   C     C_3   0.441647 0.499815 0.508884 -0.467522
C47   C     C_3   0.075870 0.052710 0.472277 -0.416945
C48   C     C_R   0.848513 0.650959 0.906920 -0.107309
C49   C     C_3   0.575866 0.552715 0.472290 -0.416947
C50   C     C_3   0.103162 0.999893 0.543094 0.266765
C51   C     C_3   0.603161 0.499893 0.543097 0.266766
C52   C     C_3   0.924367 0.000735 0.395250 0.366716
C53   C     C_3   0.424366 0.500736 0.395259 0.366718
C54   C     C_R   0.405987 0.868010 0.090484 -0.128473
C55   C     C_R   0.442164 0.153160 0.089669 -0.150141
C56   C     C_R   0.905987 0.368010 0.090484 -0.128473
C57   C     C_R   0.942164 0.653160 0.089670 -0.150143
C58   C     C_3   0.970512 0.052919 0.384399 -0.408447
C59   C     C_R   0.810115 0.374866 0.907726 -0.142123
C60   C     C_3   0.470507 0.552924 0.384416 -0.408453
C61   C     C_R   0.161390 0.811856 0.902493 -0.177818
C62   C     C_R   0.286009 0.266411 0.896276 -0.179461
C63   C     C_R   0.661390 0.311856 0.902493 -0.177816
C64   C     C_R   0.888035 0.769780 0.094187 -0.166626
C65   C     C_R   0.611276 0.267905 0.903065 -0.168252
C66   C     C_R   0.839319 0.815052 0.093965 -0.172846
C67   C     C_R   0.111276 0.767905 0.903065 -0.168254
C68   C     C_R   0.237257 0.311486 0.896169 -0.173116
C69   C     C_R   0.642792 0.241604 0.002150 0.148347
C70   C     C_R   0.648466 0.151370 0.091972 -0.129466
C71   C     C_R   0.757066 0.831608 0.995606 0.144341
C72   C     C_R   0.142792 0.741604 0.002150 0.148349
C73   C     C_R   0.257065 0.331608 0.995604 0.144344
C74   C     C_R   0.710170 0.267486 0.101193 -0.173193
C75   C     C_R   0.737261 0.811487 0.896171 -0.173116
C76   C     C_R   0.210170 0.767486 0.101193 -0.173196
C77   C     C_R   0.339321 0.315054 0.093963 -0.172849
C78   C     C_R   0.259936 0.811714 0.100560 -0.187647
C79   C     C_R   0.388037 0.269782 0.094184 -0.166625
C80   C     C_R   0.759936 0.311714 0.100560 -0.187649
C81   C     C_R   0.686157 0.872710 0.089688 -0.123148
C82   C     C_R   0.786013 0.766412 0.896278 -0.179456
C83   C     C_R   0.242685 0.829286 0.001041 0.149608
C84   C     C_R   0.354861 0.241768 0.995840 0.142329
C85   C     C_R   0.742685 0.329287 0.001041 0.149606
C86   C     C_R   0.854862 0.741768 0.995842 0.142328
C87   C     C_R   0.399885 0.950085 0.470606 -0.138153
C88   C     C_R   0.391801 0.050140 0.466290 -0.178485
C89   C     C_R   0.899888 0.450084 0.470608 -0.138149
C90   C     C_R   0.891800 0.550140 0.466290 -0.178481
C91   C     C_R   0.403452 0.950378 0.380781 -0.192592
C92   C     C_R   0.148466 0.651370 0.091972 -0.129465
C93   C     C_R   0.397998 0.050446 0.377886 -0.180136
C94   C     C_R   0.903456 0.450377 0.380783 -0.192595
C95   C     C_R   0.897998 0.550446 0.377885 -0.180138
C96   C     C_R   0.414445 0.000667 0.343407 0.146866
C97   C     C_R   0.914446 0.500666 0.343408 0.146866
C98   C     C_R   0.483358 0.046664 0.252195 -0.137542
C99   C     C_R   0.492644 0.955061 0.263235 -0.128656
C100  C     C_R   0.983359 0.546663 0.252195 -0.137543
C101  C     C_R   0.992645 0.455061 0.263236 -0.128657
C102  C     C_R   0.403159 0.000136 0.519828 0.150334
C103  C     C_R   0.186158 0.372711 0.089688 -0.123148
C104  C     C_R   0.903160 0.500136 0.519829 0.150339
C105  C     C_R   0.247620 0.953906 0.695255 -0.172218
C106  C     C_R   0.249189 0.045893 0.694663 -0.091134
C107  C     C_R   0.747620 0.453906 0.695254 -0.172224
C108  C     C_R   0.749190 0.545894 0.694664 -0.091132
C109  C     C_R   0.379696 0.184004 0.997588 0.034507
C110  C     C_R   0.315611 0.857810 0.999920 0.041601
C111  C     C_R   0.879696 0.684004 0.997588 0.034509
C112  C     C_R   0.815610 0.357811 0.999919 0.041600
C113  C     C_R   0.458554 0.000913 0.285357 0.041578
C114  C     C_R   0.596948 0.874834 0.907230 -0.130335
C115  C     C_R   0.958555 0.500913 0.285358 0.041576
C116  C     C_R   0.202676 0.999770 0.631996 0.006498
C117  C     C_R   0.702676 0.499771 0.631996 0.006501
C118  C     C_R   0.452739 0.045983 0.697856 -0.125215
C119  C     C_R   0.450420 0.954436 0.696408 -0.133431
C120  C     C_R   0.952739 0.545983 0.697856 -0.125216
C121  C     C_R   0.950420 0.454436 0.696409 -0.133431
C122  C     C_R   0.767800 0.954399 0.280504 -0.150390
C123  C     C_R   0.767961 0.047387 0.271466 -0.145884
C124  C     C_R   0.267799 0.454400 0.280510 -0.150393
H1    H     H_    0.308747 0.163395 0.822216 0.082032
H2    H     H_    0.907142 0.963071 0.516210 0.150222
H3    H     H_    0.438040 0.410127 0.387958 0.137152
H4    H     H_    0.407145 0.463061 0.516214 0.150221
H5    H     H_    0.950089 0.948150 0.295036 0.166852
H6    H     H_    0.908543 0.036632 0.518397 0.163748
H7    H     H_    0.450086 0.448161 0.295031 0.166853
H8    H     H_    0.408545 0.536622 0.518416 0.163748
H9    H     H_    0.115949 0.055889 0.435713 0.157987
H10   H     H_    0.093784 0.090809 0.521632 0.150702
H11   H     H_    0.615942 0.555901 0.435725 0.157985
H12   H     H_    0.251466 0.871727 0.823425 0.088548
H13   H     H_    0.593778 0.590811 0.521653 0.150705
H14   H     H_    0.956603 0.054496 0.301715 0.158740
H15   H     H_    0.941432 0.091291 0.395079 0.145292
H16   H     H_    0.456596 0.554508 0.301731 0.158740
H17   H     H_    0.441427 0.591293 0.395107 0.145292
H18   H     H_    0.141570 0.827616 0.824210 0.101383
H19   H     H_    0.262527 0.248127 0.818303 0.104515
H20   H     H_    0.641570 0.327616 0.824210 0.101382
H21   H     H_    0.945239 0.754105 0.172272 0.106601
H22   H     H_    0.554870 0.251451 0.825124 0.103076
H23   H     H_    0.808746 0.663395 0.822216 0.082029
H24   H     H_    0.860948 0.832920 0.171730 0.106672
H25   H     H_    0.054870 0.751451 0.825124 0.103076
H26   H     H_    0.178263 0.326058 0.818203 0.105748
H27   H     H_    0.731702 0.250624 0.179387 0.102053
H28   H     H_    0.678269 0.826061 0.818205 0.105749
H29   H     H_    0.231702 0.750624 0.179387 0.102053
H30   H     H_    0.360952 0.332923 0.171728 0.106673
H31   H     H_    0.317395 0.827905 0.178230 0.099117
H32   H     H_    0.445245 0.254108 0.172269 0.106601
H33   H     H_    0.817394 0.327905 0.178230 0.099118
H34   H     H_    0.751466 0.371728 0.823425 0.088547
H35   H     H_    0.762534 0.748130 0.818305 0.104514
H36   H     H_    0.403637 0.910546 0.506276 0.104395
H37   H     H_    0.388347 0.089405 0.498595 0.104445
H38   H     H_    0.903642 0.410546 0.506279 0.104389
H39   H     H_    0.888344 0.589404 0.498593 0.104444
H40   H     H_    0.436917 0.852996 0.172048 0.083606
H41   H     H_    0.488473 0.168123 0.172556 0.086861
H42   H     H_    0.936916 0.352996 0.172048 0.083606
H43   H     H_    0.988474 0.668122 0.172557 0.086862
H44   H     H_    0.407481 0.911028 0.349160 0.098756
H45   H     H_    0.085120 0.911027 0.519359 0.086876
H46   H     H_    0.399535 0.089871 0.345045 0.107327
H47   H     H_    0.907486 0.411027 0.349164 0.098755
H48   H     H_    0.899533 0.589871 0.345043 0.107327
H49   H     H_    0.471837 0.089690 0.260101 0.094509
H50   H     H_    0.498472 0.913715 0.292341 0.083489
H51   H     H_    0.971837 0.589689 0.260101 0.094509
H52   H     H_    0.998473 0.413715 0.292342 0.083489
H53   H     H_    0.233591 0.911084 0.670827 0.085404
H54   H     H_    0.236577 0.088806 0.670706 0.079823
H55   H     H_    0.733591 0.411085 0.670824 0.085403
H56   H     H_    0.059752 0.955119 0.633747 0.092505
H57   H     H_    0.736579 0.588806 0.670707 0.079817
H58   H     H_    0.437291 0.088663 0.672549 0.081083
H59   H     H_    0.431035 0.912207 0.668867 0.085397
H60   H     H_    0.937291 0.588663 0.672549 0.081083
H61   H     H_    0.931035 0.412207 0.668867 0.085394
H62   H     H_    0.787247 0.913066 0.312734 0.084124
H63   H     H_    0.787110 0.090449 0.288573 0.089294
H64   H     H_    0.287246 0.413066 0.312739 0.084125
H65   H     H_    0.287107 0.590450 0.288578 0.089294
H66   H     H_    0.685822 0.164833 0.176085 0.080411
H67   H     H_    0.585122 0.411029 0.519346 0.086876
H68   H     H_    0.740487 0.862356 0.172679 0.086128
H69   H     H_    0.185822 0.664833 0.176085 0.080411
H70   H     H_    0.240489 0.362359 0.172679 0.086129
H71   H     H_    0.569776 0.870520 0.821915 0.092172
H72   H     H_    0.513741 0.165777 0.826189 0.081803
H73   H     H_    0.069776 0.370520 0.821915 0.092172
H74   H     H_    0.013741 0.665777 0.826189 0.081803
H75   H     H_    0.192539 0.860273 0.512838 0.091304
H76   H     H_    0.255864 0.828945 0.410970 0.099935
H77   H     H_    0.226081 0.882332 0.252584 0.104110
H78   H     H_    0.559757 0.455109 0.633744 0.092502
H79   H     H_    0.136460 0.969669 0.200043 0.109357
H80   H     H_    0.068632 0.000843 0.296205 0.109883
H81   H     H_    0.148810 0.974975 0.817456 0.105400
H82   H     H_    0.205984 0.039341 0.971190 0.112360
H83   H     H_    0.169315 0.139216 0.937246 0.108726
H84   H     H_    0.072726 0.174532 0.747472 0.110244
H85   H     H_    0.013021 0.111366 0.592101 0.106728
H86   H     H_    0.692544 0.360284 0.512813 0.091305
H87   H     H_    0.755857 0.328966 0.410926 0.099931
H88   H     H_    0.726064 0.382362 0.252545 0.104112
H89   H     H_    0.938039 0.910124 0.387969 0.137153
H90   H     H_    0.636443 0.469698 0.200027 0.109356
H91   H     H_    0.568624 0.500862 0.296205 0.109884
H92   H     H_    0.648825 0.474954 0.817457 0.105399
H93   H     H_    0.706008 0.539308 0.971207 0.112362
H94   H     H_    0.669335 0.639184 0.937291 0.108722
H95   H     H_    0.572732 0.674511 0.747525 0.110247
H96   H     H_    0.513020 0.611356 0.592137 0.106726
N1    N     N_R   0.392140 0.102630 0.941800 -0.038604
N2    N     N_R   0.525160 0.972040 0.206160 -0.039318
N3    N     N_R   0.025160 0.527960 0.206160 -0.039749
N4    N     N_R   0.025160 0.472040 0.206160 -0.039318
N5    N     N_R   0.317870 0.971120 0.792790 -0.034708
N6    N     N_R   0.317870 0.028880 0.792790 -0.036353
N7    N     N_R   0.817870 0.471120 0.792790 -0.034708
N8    N     N_R   0.817870 0.528880 0.792790 -0.036351
N9    N     N_R   0.473480 0.027920 0.793480 -0.038136
N10   N     N_R   0.473480 0.972080 0.793480 -0.036577
N11   N     N_R   0.973480 0.527920 0.793480 -0.038136
N12   N     N_R   0.392140 0.897370 0.941800 -0.038965
N13   N     N_R   0.973480 0.472080 0.793480 -0.036577
N14   N     N_R   0.681610 0.971120 0.207570 -0.034209
N15   N     N_R   0.681610 0.028880 0.207570 -0.035242
N16   N     N_R   0.181610 0.471120 0.207570 -0.034208
N17   N     N_R   0.181610 0.528880 0.207570 -0.035241
N18   N     N_R   0.605410 0.102620 0.056870 -0.036814
N19   N     N_R   0.605410 0.897380 0.056870 -0.040093
N20   N     N_R   0.105410 0.602620 0.056870 -0.036815
N21   N     N_R   0.105410 0.397380 0.056870 -0.040093
N22   N     N_R   0.549680 0.896430 0.944180 -0.041340
N23   N     N_R   0.892140 0.602630 0.941800 -0.038603
N24   N     N_R   0.549680 0.103570 0.944180 -0.039242
N25   N     N_R   0.049680 0.396430 0.944180 -0.041340
N26   N     N_R   0.049680 0.603570 0.944180 -0.039242
N27   N     N_R   0.892140 0.397370 0.941800 -0.038965
N28   N     N_R   0.450890 0.896450 0.057150 -0.040015
N29   N     N_R   0.450890 0.103550 0.057150 -0.038700
N30   N     N_R   0.950890 0.396450 0.057150 -0.040015
N31   N     N_R   0.950890 0.603550 0.057150 -0.038700
N32   N     N_R   0.525160 0.027960 0.206160 -0.039749
Ni1   Ni    Ni4+2 0.433410 0.064680 0.868830 0.206211
Ni2   Ni    Ni4+2 0.433410 0.935320 0.868830 0.208946
Ni3   Ni    Ni4+2 0.933410 0.564680 0.868830 0.206211
Ni4   Ni    Ni4+2 0.933410 0.435320 0.868830 0.208946
Ni5   Ni    Ni4+2 0.565650 0.934380 0.131170 0.209613
Ni6   Ni    Ni4+2 0.565650 0.065620 0.131170 0.205522
Ni7   Ni    Ni4+2 0.065650 0.434380 0.131170 0.209613
Ni8   Ni    Ni4+2 0.065650 0.565620 0.131170 0.205521

loop_
_geom_bond_atom_site_label_1
_geom_bond_atom_site_label_2
_ccdc_geom_bond_type
C58   H15   S    
N14   Ni5   S    
C13   N25   A    
C63   C65   A    
C87   C91   A    
C64   H21   S    
C67   H25   S    
C39   C50   S    
C89   H38   S    
C105  C116  A    
C24   N26   A    
N3    N4    A    
C62   H19   S    
C72   C76   A    
C85   C112  S    
C80   C85   A    
C35   C81   A    
N32   Ni6   S    
C7    C8    A    
C5    H75   S    
N16   N17   A    
C44   H2    S    
C26   C27   A    
N9    N10   A    
C23   C42   S    
C13   H73   S    
C108  H57   S    
N21   N25   A    
C23   C29   A    
C10   C40   S    
C16   H85   S    
C18   H86   S    
C1    H1    S    
C88   H37   S    
C67   C72   A    
C49   H13   S    
C106  C116  A    
C3    H65   S    
C46   H8    S    
C5    C6    A    
C77   H30   S    
C59   H34   S    
C40   C50   S    
C43   C52   S    
C122  H62   S    
N26   Ni3   S    
C3    C33   A    
C118  N9    A    
C44   H6    S    
C15   C16   A    
C87   C102  A    
C48   H23   S    
N18   N24   A    
C76   H29   S    
N23   Ni3   S    
C87   H36   S    
C54   C110  A    
C35   C114  A    
C1    N1    A    
C18   C19   A    
C42   C46   S    
C89   C94   A    
C32   C52   S    
C20   H88   S    
C62   C84   A    
C119  N10   A    
C1    C109  A    
C79   H32   S    
C40   H56   S    
C78   C83   A    
C29   H96   S    
C92   N20   A    
C66   C71   A    
C8    C9    A    
C49   C51   S    
C107  N7    A    
C78   H31   S    
C33   C124  A    
C63   H20   S    
C106  N6    A    
C107  C117  A    
C103  H70   S    
C105  N5    A    
C97   C115  S    
N11   Ni3   S    
C95   H48   S    
N29   Ni6   S    
C40   C44   S    
C66   H24   S    
C15   H84   S    
N13   Ni4   S    
C42   C51   S    
N27   Ni4   S    
C36   C92   A    
C77   C79   A    
C91   C96   A    
C99   N2    A    
C24   H74   S    
C74   C80   A    
C21   C22   A    
C55   C109  A    
C26   H93   S    
N20   N26   A    
C118  H58   S    
C32   C123  A    
C103  N21   A    
C100  C115  A    
N17   Ni8   S    
C48   N23   A    
C120  N11   A    
C64   C86   A    
C53   C60   S    
C59   C112  A    
C47   C50   S    
N6    Ni1   S    
C98   N32   A    
C33   C53   S    
N25   Ni4   S    
N1    Ni1   S    
C93   H46   S    
C37   H12   S    
N23   N31   A    
C114  H71   S    
C41   H67   S    
N2    Ni5   S    
C32   C122  A    
C91   H44   S    
C90   C95   A    
N12   Ni2   S    
C31   C121  A    
C92   H69   S    
C61   C83   A    
C105  H53   S    
C124  H64   S    
C98   H49   S    
C88   C93   A    
N5    Ni2   S    
C98   C113  A    
C39   C43   S    
C30   C118  A    
C94   C97   A    
N10   Ni2   S    
C25   C26   A    
C82   C86   A    
C121  H61   S    
C81   N19   A    
C56   N30   A    
N12   N28   A    
C2    H72   S    
C64   C66   A    
C81   H68   S    
C38   C103  A    
C9    H80   S    
C94   H47   S    
N8    Ni3   S    
C120  H60   S    
C61   C67   A    
N9    Ni1   S    
N7    N8    A    
C4    C39   S    
C43   H5    S    
C75   H28   S    
C30   C102  S    
C100  H51   S    
C55   N29   A    
C17   C18   A    
C13   C38   A    
C83   C110  S    
C3    N17   A    
C69   C74   A    
N11   N13   A    
C119  H59   S    
N20   Ni8   S    
C49   C60   S    
C34   C69   S    
C90   C104  A    
C37   C110  A    
C6    C7    A    
C52   C58   S    
C14   H83   S    
C60   H16   S    
N4    Ni7   S    
C123  N15   A    
C25   H92   S    
C101  N4    A    
C122  N14   A    
C12   C14   A    
C45   H7    S    
C93   C96   A    
C54   N28   A    
N24   Ni1   S    
C89   C104  A    
C70   N18   A    
C101  C115  A    
C19   H87   S    
C74   H27   S    
C42   H78   S    
C57   N31   A    
N14   N15   A    
N1    N29   A    
C43   H89   S    
C123  H63   S    
N30   Ni7   S    
C65   H22   S    
C70   H66   S    
N27   N30   A    
C46   H4    S    
C34   C70   A    
N3    Ni8   S    
C28   C29   A    
N16   Ni7   S    
C41   C45   S    
N21   Ni7   S    
C79   C84   A    
C107  H55   S    
C2    C34   A    
C21   H90   S    
C108  C117  A    
N19   Ni5   S    
C8    H79   S    
C84   C109  S    
C76   C78   A    
C4    C5    A    
C6    H76   S    
C55   H41   S    
C44   C52   S    
C99   C113  A    
C37   N12   A    
C88   C102  A    
C11   C12   A    
C114  N22   A    
C75   C82   A    
N7    Ni4   S    
C57   H43   S    
C41   C51   S    
C28   H95   S    
C108  N8    A    
C121  N13   A    
C17   C22   A    
C100  N3    A    
C62   C68   A    
C90   H39   S    
C63   C85   A    
C31   C104  S    
C19   C20   A    
C86   C111  S    
C68   C73   A    
C47   H10   S    
C10   C16   A    
C7    H77   S    
C47   C58   S    
C71   C75   A    
C82   H35   S    
C58   H14   S    
C80   H33   S    
C57   C111  A    
C99   H50   S    
C45   H3    S    
N15   Ni6   S    
C65   C69   A    
C24   C36   A    
C46   C53   S    
C51   C117  S    
C56   C112  A    
N18   Ni6   S    
N19   N22   A    
C50   C116  S    
C23   C25   A    
C49   H11   S    
C96   C113  S    
C17   C41   S    
C31   C120  A    
N22   Ni2   S    
C68   H26   S    
C10   C11   A    
C45   C53   S    
N28   Ni5   S    
C124  N16   A    
C35   C71   S    
C61   H18   S    
C60   H17   S    
C48   C111  A    
C20   C21   A    
N31   Ni8   S    
C27   H94   S    
C39   H45   S    
C30   C119  A    
C56   H42   S    
C27   C28   A    
C73   C77   A    
C14   C15   A    
C101  H52   S    
C59   N27   A    
C11   H81   S    
C54   H40   S    
C4    C9    A    
C22   H91   S    
C2    N24   A    
C106  H54   S    
C47   H9    S    
C36   C72   S    
C95   C97   A    
C12   H82   S    
N5    N6    A    
C38   C73   S    
N2    N32   A    
