data_mof_unit_26380.cif
_audit_creation_date              2012-12-10T16:53:58-0500
_audit_creation_method            fapswitch 2.2
_symmetry_space_group_name_H-M    P1
_symmetry_Int_Tables_number       1
_space_group_crystal_system       triclinic
_cell_length_a                    7.871949
_cell_length_b                    8.583537
_cell_length_c                    10.624312
_cell_angle_alpha                 92.653057
_cell_angle_beta                  84.444932
_cell_angle_gamma                 92.725321
_cell_volume                      713.068702281

loop_
_atom_site_label
_atom_site_type_symbol
_atom_type_description
_atom_site_fract_x
_atom_site_fract_y
_atom_site_fract_z
_atom_type_partial_charge
C1    C     C_R   0.543219 0.793559 0.496424 0.983321
C2    C     C_3   0.313434 0.527771 0.943318 0.432112
C3    C     C_3   0.314544 0.511271 0.085603 -0.517120
C4    C     C_3   0.553134 0.339895 0.912896 -0.620887
C5    C     C_3   0.623030 0.633079 0.924175 0.447988
C6    C     C_3   0.497047 0.501732 0.878256 -0.016447
C7    C     C_3   0.753074 0.301419 0.078839 -0.895661
C8    C     C_3   0.672357 0.992334 0.351803 -0.935522
C9    C     C_3   0.318562 0.002894 0.646129 -0.894747
C10   C     C_3   0.011185 0.313258 0.409339 -0.496414
C11   C     C_3   0.089584 0.684620 0.911913 -0.334836
C12   C     C_3   0.500491 0.494649 0.120455 0.045109
C13   C     C_3   0.724352 0.882096 0.865481 -0.385441
C14   C     C_3   0.568433 0.337775 0.056257 0.034163
C15   C     C_3   0.609850 0.637886 0.069986 -0.449681
C16   C     C_2   0.556618 0.952090 0.469626 -0.003574
C17   C     C_2   0.440305 0.047114 0.531540 -0.020604
C18   C     C_R   0.499528 0.501804 0.741761 0.909313
C19   C     C_R   0.456292 0.206470 0.505829 0.937101
C20   C     C_R   0.499546 0.495620 0.257707 0.860644
H1    H     H_    0.224178 0.434452 0.906884 0.059638
H2    H     H_    0.549275 0.746916 0.108591 0.201444
H3    H     H_    0.792397 0.194474 0.022852 0.229409
H4    H     H_    0.845181 0.398097 0.050610 0.241134
H5    H     H_    0.762565 0.275658 0.178340 0.253289
H6    H     H_    0.687811 0.888903 0.285517 0.229257
H7    H     H_    0.618427 0.082773 0.298042 0.235503
H8    H     H_    0.800579 0.029016 0.379405 0.254494
H9    H     H_    0.273723 0.107873 0.702606 0.222957
H10   H     H_    0.203682 0.937489 0.615293 0.257130
H11   H     H_    0.383317 0.932074 0.710577 0.286503
H12   H     H_    0.739681 0.641951 0.102786 0.141392
H13   H     H_    0.918405 0.266469 0.344588 0.167271
H14   H     H_    0.132344 0.329379 0.350013 0.215511
H15   H     H_    0.018460 0.227328 0.483333 0.196379
H16   H     H_    0.017118 0.642626 0.999600 0.138513
H17   H     H_    0.051508 0.616105 0.827027 0.166223
H18   H     H_    0.059623 0.807779 0.902055 0.186967
H19   H     H_    0.682417 0.996605 0.838830 0.204991
H20   H     H_    0.816971 0.839296 0.787336 0.156402
H21   H     H_    0.784579 0.901204 0.955665 0.158902
H22   H     H_    0.675872 0.311394 0.857177 0.217650
H23   H     H_    0.990859 0.634179 0.582997 0.163372
H24   H     H_    0.256328 0.614998 0.136610 0.229196
H25   H     H_    0.233278 0.406969 0.115070 0.133653
H26   H     H_    0.457415 0.247652 0.885864 0.173271
H27   H     H_    0.484773 0.239338 0.094796 0.156061
H28   H     H_    0.754175 0.600789 0.886559 0.052191
N1    N     N_2   0.950330 0.457950 0.465890 -0.037480
N2    N     N_2   0.049670 0.542050 0.534110 -0.137424
O1    O     O_R   0.389250 0.738570 0.508370 -0.613559
O2    O     O_3   0.580221 0.778919 0.880195 -0.556038
O3    O     O_R   0.678390 0.711620 0.486510 -0.625951
O4    O     O_R   0.355430 0.513500 0.696140 -0.607907
O5    O     O_R   0.644580 0.486550 0.674270 -0.648124
O6    O     O_R   0.321610 0.288380 0.513490 -0.642028
O7    O     O_R   0.610750 0.261430 0.491630 -0.614999
O8    O     O_R   0.355420 0.513450 0.325730 -0.642722
O9    O     O_R   0.644570 0.486500 0.303860 -0.614177
O10   O     O_3   0.266112 0.680268 0.919153 -0.529805
Zn1   Zn    Zn3+2 0.306940 0.517990 0.514600 0.932059
Zn2   Zn    Zn3+2 0.693060 0.482010 0.485400 0.930636

loop_
_geom_bond_atom_site_label_1
_geom_bond_atom_site_label_2
_ccdc_geom_bond_type
C19   O6    A    
C11   H18   S    
O5    Zn2   S    
C5    O2    S    
C10   H15   S    
N1    Zn2   S    
O4    Zn1   S    
C10   N1    S    
C13   O2    S    
C8    H6    S    
O3    Zn2   S    
O1    Zn1   S    
C12   C15   S    
C9    H9    S    
C12   C20   S    
C2    H1    S    
C13   H21   S    
C2    C3    S    
C15   H12   S    
C8    C16   S    
C1    C16   S    
C4    H26   S    
C19   O7    A    
C20   O9    A    
C1    O1    A    
C2    C6    S    
C4    H22   S    
C9    H10   S    
O8    Zn1   S    
C7    H3    S    
C18   O5    A    
C9    C17   S    
C11   H16   S    
C17   C19   S    
C12   C14   S    
C10   H13   S    
C15   H2    S    
C4    C14   S    
C5    C6    S    
C6    C18   S    
C5    H28   S    
C2    O10   S    
C3    H24   S    
C13   H19   S    
C4    C6    S    
C5    C15   S    
C9    H11   S    
C20   O8    A    
C11   O10   S    
H23   N2    S    
O7    Zn2   S    
C8    H8    S    
C10   H14   S    
N1    N2    D    
C11   H17   S    
N2    Zn1   S    
C18   O4    A    
O6    Zn1   S    
C8    H7    S    
C13   H20   S    
C1    O3    A    
C3    C12   S    
C14   H27   S    
C3    H25   S    
C7    C14   S    
C7    H4    S    
C16   C17   D    
O9    Zn2   S    
C7    H5    S    
