data_mof_unit_8663.cif
_audit_creation_date              2012-12-11T14:21:22-0500
_audit_creation_method            fapswitch 2.2
_symmetry_space_group_name_H-M    P1
_symmetry_Int_Tables_number       1
_space_group_crystal_system       triclinic
_cell_length_a                    22.018485
_cell_length_b                    7.20011
_cell_length_c                    14.935811
_cell_angle_alpha                 89.667329
_cell_angle_beta                  106.955053
_cell_angle_gamma                 89.884302
_cell_volume                      2264.87956003

loop_
_atom_site_label
_atom_site_type_symbol
_atom_type_description
_atom_site_fract_x
_atom_site_fract_y
_atom_site_fract_z
_atom_type_partial_charge
O1    O     O_R   0.584770 0.505770 0.002090 -0.543597
O2    O     O_R   0.415230 0.005770 0.997910 -0.544853
O3    O     O_R   0.467060 0.173340 0.861950 -0.538814
O4    O     O_R   0.532940 0.673340 0.138050 -0.538750
C1    C     C_R   0.454725 0.344750 0.826083 0.681882
C2    C     C_R   0.545295 0.843411 0.174104 0.682423
O5    O     O_R   0.587510 0.175890 0.993210 -0.523181
O6    O     O_R   0.412490 0.675890 0.006790 -0.522866
O7    O     O_R   0.536540 0.008150 0.130100 -0.538748
O8    O     O_R   0.463460 0.508150 0.869900 -0.537444
C3    C     C_R   0.612370 0.344712 0.994373 0.634257
C4    C     C_R   0.387587 0.844880 0.005500 0.632128
O9    O     O_3   0.483140 0.340040 0.044760 -0.375338
O10   O     O_3   0.516860 0.840040 0.955240 -0.374153
V1    V     V_3+5 0.503130 0.064190 0.991700 1.443677
V2    V     V_3+5 0.496870 0.564190 0.008300 1.445625
C5    C     C_2   0.215218 0.738117 0.009016 -0.145498
C6    C     C_2   0.784956 0.238691 0.990963 -0.148226
C7    C     C_2   0.176426 0.885544 0.979409 0.245893
C8    C     C_2   0.823356 0.386052 0.019878 0.244963
H1    H     H_    0.198571 0.619244 0.040201 0.086569
H2    H     H_    0.802002 0.119884 0.960646 0.087900
C9    C     C_2   0.279122 0.721703 0.993734 0.191837
C10   C     C_2   0.721096 0.221767 0.006304 0.197628
C11   C     C_2   0.323156 0.858622 0.019857 0.257010
C12   C     C_2   0.676649 0.358523 0.979529 0.259032
C13   C     C_R   0.927772 0.888479 0.724083 -0.030762
C14   C     C_R   0.071745 0.379781 0.275851 -0.026833
C15   C     C_R   0.575041 0.844793 0.275644 -0.071991
C16   C     C_R   0.424315 0.352726 0.725005 -0.064337
C17   C     C_R   0.939600 0.898497 0.568743 -0.127803
C18   C     C_R   0.060978 0.294243 0.426745 -0.126752
C19   C     C_R   0.966352 0.904338 0.665335 -0.189773
C20   C     C_R   0.033738 0.327665 0.331633 -0.179383
C21   C     C_R   0.862219 0.869216 0.686477 -0.188897
C22   C     C_R   0.137210 0.398333 0.315024 -0.189973
C23   C     C_R   0.833510 0.861733 0.588522 0.038195
C24   C     C_R   0.166755 0.356970 0.410683 0.037554
C25   C     C_R   0.873478 0.877495 0.529160 0.114484
C26   C     C_R   0.127257 0.306913 0.467316 0.118973
C27   C     C_R   0.766563 0.840078 0.548186 0.040192
C28   C     C_R   0.234135 0.360293 0.450941 0.041190
C29   C     C_R   0.739746 0.850149 0.449006 0.035522
C30   C     C_R   0.260807 0.332893 0.549286 0.034469
C31   C     C_R   0.781545 0.849212 0.393176 -0.178186
C32   C     C_R   0.220374 0.272497 0.601391 -0.177139
C33   C     C_R   0.847226 0.866945 0.431540 0.164522
C34   C     C_R   0.154549 0.262290 0.562378 0.167055
C35   C     C_R   0.725862 0.800550 0.603528 -0.168496
C36   C     C_R   0.275914 0.379456 0.395370 -0.165096
C37   C     C_R   0.661431 0.772329 0.563363 -0.188049
C38   C     C_R   0.341235 0.371827 0.434667 -0.188208
C39   C     C_R   0.634131 0.793109 0.467288 0.094565
C40   C     C_R   0.367751 0.357734 0.531231 0.094715
C41   C     C_R   0.672035 0.844609 0.408816 0.100614
C42   C     C_R   0.328012 0.350897 0.590937 0.100402
C43   C     C_R   0.568947 0.761010 0.429389 -0.169567
C44   C     C_R   0.434007 0.351426 0.568380 -0.168079
C45   C     C_R   0.540328 0.779057 0.333792 -0.203933
C46   C     C_R   0.461921 0.342366 0.664543 -0.209645
C47   C     C_R   0.639989 0.888799 0.313310 0.119455
C48   C     C_R   0.357599 0.366287 0.689205 0.119480
H3    H     H_    0.490612 0.744006 0.305059 0.118854
H4    H     H_    0.513141 0.332951 0.692033 0.116543
H5    H     H_    0.632519 0.735024 0.608324 0.126229
H6    H     H_    0.371377 0.379576 0.388864 0.123943
H7    H     H_    0.971203 0.909945 0.525408 0.158150
H8    H     H_    0.029840 0.253470 0.467643 0.146072
H9    H     H_    0.017233 0.920545 0.694322 0.123336
H10   H     H_    0.983016 0.310431 0.301203 0.109700
H11   H     H_    0.835074 0.865189 0.735914 0.097846
H12   H     H_    0.163620 0.442858 0.268364 0.097719
H13   H     H_    0.764503 0.823722 0.319164 0.167827
H14   H     H_    0.239431 0.220308 0.671733 0.169906
H15   H     H_    0.742624 0.780599 0.678188 0.128957
H16   H     H_    0.259806 0.390161 0.320206 0.125482
H17   H     H_    0.540353 0.716473 0.473579 0.123934
H18   H     H_    0.464327 0.351727 0.522757 0.123743
O11   O     O_R   0.036450 0.233070 0.130130 -0.534294
O12   O     O_R   0.963550 0.733070 0.869870 -0.535032
O13   O     O_R   0.912470 0.560570 0.006790 -0.541368
O14   O     O_R   0.087530 0.060570 0.993210 -0.540596
C49   C     C_R   0.887834 0.392032 0.006180 0.606722
C50   C     C_R   0.112112 0.891812 0.993624 0.607605
O15   O     O_R   0.032920 0.562940 0.138050 -0.538672
O16   O     O_R   0.967080 0.062940 0.861950 -0.539721
O17   O     O_R   0.084790 0.730500 0.002090 -0.546078
O18   O     O_R   0.915210 0.230500 0.997910 -0.545749
C51   C     C_R   0.044512 0.393539 0.174465 0.686828
C52   C     C_R   0.955372 0.895009 0.825512 0.684978
O19   O     O_3   0.016820 0.396170 0.955260 -0.375372
O20   O     O_3   0.983180 0.896170 0.044740 -0.374514
V3    V     V_3+5 0.996880 0.672090 0.008300 1.431266
V4    V     V_3+5 0.003120 0.172090 0.991700 1.430971
O21   O     O_3   0.196183 0.027004 0.931218 -0.623486
H19   H     H_    0.160628 0.115093 0.905980 0.286303
O22   O     O_3   0.803062 0.527462 0.066960 -0.621897
H20   H     H_    0.838306 0.615744 0.091689 0.288181
N1    N     N_3   0.293478 0.553465 0.952952 -0.685378
H21   H     H_    0.289161 0.442753 0.996260 0.248003
H22   H     H_    0.258917 0.536384 0.888622 0.242834
N2    N     N_3   0.707296 0.053259 0.048043 -0.686539
H23   H     H_    0.711756 0.942903 0.005182 0.247735
H24   H     H_    0.742115 0.035806 0.112265 0.235611
O23   O     O_3   0.308201 0.011950 0.065149 -0.633637
H25   H     H_    0.346320 0.090742 0.088275 0.284203
O24   O     O_3   0.691056 0.512091 0.933227 -0.634932
H26   H     H_    0.652666 0.590692 0.909691 0.283202
N3    N     N_3   0.887632 0.871600 0.371149 -0.672793
H27   H     H_    0.903750 0.007971 0.370469 0.223536
H28   H     H_    0.862013 0.840892 0.302140 0.231561
N4    N     N_3   0.115268 0.202210 0.619004 -0.683672
H29   H     H_    0.090388 0.318504 0.631270 0.227762
H30   H     H_    0.142946 0.155049 0.684593 0.235847
N5    N     N_3   0.671402 0.989359 0.256550 -0.687034
H31   H     H_    0.647828 0.115832 0.236461 0.254169
H32   H     H_    0.668543 0.911961 0.196479 0.237887
N6    N     N_3   0.321294 0.414700 0.751455 -0.689805
H33   H     H_    0.337265 0.542722 0.781900 0.254847
H34   H     H_    0.329068 0.314249 0.804507 0.234435

loop_
_geom_bond_atom_site_label_1
_geom_bond_atom_site_label_2
_ccdc_geom_bond_type
C9    N1    S    
O14   V4    S    
O21   H19   S    
O1    C3    A    
C50   O17   A    
O2    C4    A    
C2    O7    A    
N4    H30   S    
O22   H20   S    
C11   O23   S    
C13   C19   A    
C17   H7    S    
C5    C9    S    
C6    C10   S    
C21   C23   A    
C10   C12   D    
C24   C28   A    
N3    H28   S    
C43   C45   A    
C38   H6    S    
C44   C46   A    
N5    H31   S    
O17   V3    S    
C13   C52   S    
C31   H13   S    
C37   H5    S    
C35   C37   A    
N6    H33   S    
O16   V4    S    
O15   V3    S    
C8    O22   S    
C15   C45   A    
C30   C32   A    
N5    H32   S    
C16   C46   A    
C47   N5    S    
C36   C38   A    
O24   H26   S    
C17   C19   A    
C14   C51   S    
C20   H10   S    
C10   N2    S    
C19   H9    S    
C18   H8    S    
C31   C33   A    
C49   O18   A    
C21   H11   S    
O6    V2    S    
O12   C52   A    
C27   C29   A    
C28   C30   A    
C27   C35   A    
N4    H29   S    
O13   C49   A    
C38   C40   A    
C15   C47   A    
C39   C41   A    
C40   C42   A    
O11   C51   A    
C43   H17   S    
O11   V4    S    
O4    C2    A    
O16   C52   A    
O15   C51   A    
C3    C12   S    
C13   C21   A    
C33   N3    S    
C5    H1    S    
C37   C39   A    
C18   C20   A    
O4    V2    S    
O5    C3    A    
C36   H16   S    
O13   V3    S    
C30   C42   A    
N1    H21   S    
O6    C4    A    
C35   H15   S    
O1    V2    S    
N2    H24   S    
O2    V1    S    
C29   C31   A    
C28   C36   A    
C29   C41   A    
N1    H22   S    
O14   C50   A    
C16   C48   A    
C42   C48   A    
C8    C49   S    
C7    C50   S    
C32   H14   S    
C18   C26   A    
C7    O21   S    
C25   C33   A    
C1    C16   S    
C40   C44   A    
C26   C34   A    
C39   C43   A    
C34   N4    S    
C6    H2    S    
O3    C1    A    
C12   O24   S    
O23   H25   S    
C45   H3    S    
C4    C11   S    
C46   H4    S    
C22   C24   A    
O7    V1    S    
C1    O8    A    
C23   C25   A    
O8    V2    S    
N3    H27   S    
O19   V4    S    
C24   C26   A    
C41   C47   A    
O5    V1    S    
O20   V3    S    
C5    C7    D    
C17   C25   A    
C6    C8    D    
C9    C11   D    
C23   C27   A    
N2    H23   S    
N6    H34   S    
C48   N6    S    
C44   H18   S    
C14   C20   A    
C32   C34   A    
C2    C15   S    
C14   C22   A    
O9    V2    S    
O18   V4    S    
O10   V1    S    
O3    V1    S    
O12   V3    S    
C22   H12   S    
