data_mof_unit_45820.cif
_audit_creation_date              2012-12-10T18:29:34-0500
_audit_creation_method            fapswitch 2.2
_symmetry_space_group_name_H-M    P1
_symmetry_Int_Tables_number       1
_space_group_crystal_system       triclinic
_cell_length_a                    11.49284
_cell_length_b                    15.185028
_cell_length_c                    15.190648
_cell_angle_alpha                 80.917051
_cell_angle_beta                  93.512878
_cell_angle_gamma                 102.605396
_cell_volume                      2553.72710716

loop_
_atom_site_label
_atom_site_type_symbol
_atom_type_description
_atom_site_fract_x
_atom_site_fract_y
_atom_site_fract_z
_atom_type_partial_charge
C1    C     C_R   0.488296 0.442387 0.662759 0.888617
C2    C     C_R   0.520657 0.557750 0.337670 0.900472
C3    C     C_R   0.550779 0.351997 0.939702 -0.127280
C4    C     C_R   0.652961 0.648698 0.074599 -0.090883
C5    C     C_R   0.619631 0.514110 0.959425 0.051683
C6    C     C_R   0.607785 0.487538 0.051244 0.028284
C7    C     C_R   0.599155 0.394757 0.086320 -0.249662
C8    C     C_R   0.659996 0.607782 0.926986 -0.251990
C9    C     C_R   0.581987 0.328030 0.030573 0.443021
C10   C     C_R   0.671195 0.675258 0.981714 0.393027
C11   C     C_R   0.735820 0.849849 0.572253 0.366372
C12   C     C_R   0.263487 0.150114 0.429533 0.348404
C13   C     C_R   0.679328 0.757909 0.584134 -0.148706
C14   C     C_R   0.320291 0.241995 0.416644 -0.145895
C15   C     C_R   0.496257 0.794296 0.521759 0.347738
C16   C     C_R   0.503647 0.205704 0.478458 0.465310
C17   C     C_R   0.542655 0.886945 0.529676 -0.134574
C18   C     C_R   0.457085 0.113026 0.471111 -0.157207
C19   C     C_R   0.668022 0.914769 0.536513 -0.035857
C20   C     C_R   0.331599 0.085208 0.464779 -0.046484
C21   C     C_R   0.472720 0.954595 0.516711 0.145624
C22   C     C_R   0.527118 0.045433 0.484143 0.165214
C23   C     C_R   0.717267 0.500481 0.500351 0.894318
C24   C     C_R   0.282740 0.499510 0.499657 0.909573
C25   C     C_R   0.649082 0.065301 0.464322 -0.109196
C26   C     C_R   0.350817 0.934677 0.536571 -0.105769
C27   C     C_R   0.720573 0.003858 0.498495 -0.047367
C28   C     C_R   0.279241 0.996055 0.502677 -0.008337
C29   C     C_1   0.838386 0.501425 0.500432 -0.075695
C30   C     C_1   0.161602 0.498580 0.499446 -0.102117
C31   C     C_1   0.940707 0.500750 0.500139 0.076790
C32   C     C_1   0.059273 0.499262 0.499659 0.070253
C33   C     C_R   0.504311 0.408939 0.757724 -0.132633
C34   C     C_R   0.559459 0.592021 0.246208 -0.109587
C35   C     C_R   0.487840 0.287928 0.884572 0.433318
C36   C     C_R   0.672930 0.710461 0.138300 0.404369
C37   C     C_R   0.472137 0.316833 0.793150 -0.160647
C38   C     C_R   0.619434 0.682460 0.221408 -0.204943
C39   C     C_R   0.554745 0.472384 0.813130 -0.201780
C40   C     C_R   0.557316 0.528878 0.189059 -0.207898
C41   C     C_R   0.579398 0.446529 0.903200 0.034777
C42   C     C_R   0.609287 0.554502 0.105957 0.036751
H1    H     H_    0.690874 0.130598 0.428285 0.197617
H2    H     H_    0.309127 0.869336 0.572461 0.170834
H3    H     H_    0.511518 0.458959 0.208919 0.180818
H4    H     H_    0.569797 0.543253 0.785106 0.180521
H5    H     H_    0.633151 0.729430 0.269648 0.190870
H6    H     H_    0.427307 0.268332 0.750442 0.221821
H7    H     H_    0.615825 0.374786 0.156791 0.195367
H8    H     H_    0.681264 0.630849 0.857970 0.167748
H9    H     H_    0.815718 0.025038 0.490324 0.244218
H10   H     H_    0.184153 0.974705 0.511010 0.237415
H11   H     H_    0.269353 0.293502 0.393412 0.190699
H12   H     H_    0.730304 0.706429 0.607545 0.210480
N1    N     N_R   0.566020 0.731700 0.552730 -0.174201
N2    N     N_R   0.433980 0.268300 0.447270 -0.177316
O1    O     O_R   0.466720 0.383110 0.605620 -0.557774
O2    O     O_R   0.533280 0.616890 0.394380 -0.560380
O3    O     O_R   0.509090 0.531900 0.639510 -0.630645
O4    O     O_R   0.490910 0.468100 0.360490 -0.625509
O5    O     O_R   0.644370 0.425610 0.483050 -0.524077
O6    O     O_R   0.355630 0.574390 0.516950 -0.551031
O7    O     O_R   0.686740 0.574390 0.516930 -0.630961
O8    O     O_R   0.313260 0.425610 0.483070 -0.634193
Zn1   Zn    Zn3+2 0.471710 0.400660 0.477370 1.035584
Zn2   Zn    Zn3+2 0.528290 0.599340 0.522630 1.016888
S1    S     S_3+6 0.635594 0.227921 0.071951 0.109888
O9    O     O_2   0.539125 0.156134 0.119265 -0.195076
O10   O     O_2   0.681051 0.192011 0.997035 -0.202358
O11   O     O_3   0.748871 0.253849 0.145382 -0.539155
H13   H     H_    0.772762 0.195265 0.167646 0.410423
S2    S     S_3+6 0.666349 0.786310 0.924933 0.125529
O12   O     O_2   0.589072 0.829728 0.973490 -0.174395
O13   O     O_2   0.789486 0.845616 0.917257 -0.178144
O14   O     O_3   0.606842 0.779371 0.821446 -0.541178
H14   H     H_    0.675544 0.788271 0.782262 0.368125
S3    S     S_3+6 0.396483 0.181345 0.927308 0.114492
O15   O     O_2   0.465914 0.107050 0.937443 -0.156226
O16   O     O_2   0.348269 0.186666 0.015626 -0.229250
O17   O     O_3   0.280610 0.155335 0.855986 -0.538134
H15   H     H_    0.234192 0.095532 0.883639 0.416971
S4    S     S_3+6 0.794124 0.806240 0.132654 0.131564
O18   O     O_2   0.890065 0.793561 0.075922 -0.186038
O19   O     O_2   0.753614 0.892590 0.095167 -0.175966
O20   O     O_3   0.853111 0.816397 0.235765 -0.489925
H16   H     H_    0.810970 0.857770 0.259270 0.374755
S5    S     S_3+6 0.633474 0.232137 0.550899 0.042756
O21   O     O_2   0.740655 0.273818 0.494833 -0.332137
O22   O     O_2   0.621699 0.295583 0.613874 -0.265097
O23   O     O_3   0.658951 0.138155 0.617488 -0.531422
H17   H     H_    0.742650 0.154907 0.639389 0.410098
S6    S     S_3+6 0.366081 0.767741 0.449273 0.083115
O24   O     O_2   0.344141 0.852223 0.390472 -0.227427
O25   O     O_2   0.378022 0.704082 0.386552 -0.227252
O26   O     O_3   0.244315 0.721732 0.510419 -0.517853
H18   H     H_    0.274749 0.704261 0.571659 0.331665
S7    S     S_3+6 0.890124 0.879179 0.597787 0.045516
O27   O     O_2   0.956597 0.895285 0.512651 -0.254369
O28   O     O_2   0.917845 0.964355 0.640671 -0.230016
O29   O     O_3   0.932801 0.793760 0.667683 -0.554910
H19   H     H_    0.020748 0.812637 0.673114 0.396087
S8    S     S_3+6 0.108355 0.120801 0.406495 0.067369
O30   O     O_2   0.079143 0.036438 0.362383 -0.173855
O31   O     O_2   0.044037 0.102433 0.492816 -0.287184
O32   O     O_3   0.062450 0.206233 0.338657 -0.509202
H20   H     H_    0.043645 0.246419 0.378775 0.364017

loop_
_geom_bond_atom_site_label_1
_geom_bond_atom_site_label_2
_ccdc_geom_bond_type
C14   N2    A    
S5    O21   D    
C4    C36   A    
C28   H10   S    
O26   H18   S    
C21   C26   A    
C25   H1    S    
C16   N2    A    
S7    O27   D    
C26   H2    S    
C39   C41   A    
S3    O15   D    
C11   C19   A    
C33   C39   A    
C34   C40   A    
C23   C29   S    
C35   C37   A    
C1    O3    A    
O3    Zn2   S    
C5    C6    A    
C2    O4    A    
N2    Zn1   S    
S8    O32   S    
C7    C9    A    
S6    O24   D    
C15   S6    S    
O2    Zn2   S    
C36   S4    S    
C22   C25   A    
C16   S5    S    
O11   H13   S    
C19   C27   A    
C2    C34   S    
C23   O7    A    
O7    Zn2   S    
C24   O8    A    
C34   C38   A    
C21   C22   A    
S2    O14   S    
S7    O28   D    
C27   H9    S    
C24   C30   S    
S3    O16   D    
C40   H3    S    
O6    Zn2   S    
C1    C33   S    
S1    O9    D    
C7    H7    S    
S2    O13   D    
S2    O12   D    
C20   C28   A    
O20   H16   S    
C35   S3    S    
S6    O26   S    
C33   C37   A    
S1    O10   D    
C15   N1    A    
O14   H14   S    
C9    S1    S    
C12   S8    S    
C3    C9    A    
C1    O1    A    
C31   C32   S    
C3    C35   A    
C12   C20   A    
S6    O25   D    
C37   H6    S    
S8    O31   D    
C38   H5    S    
C39   H4    S    
C16   C18   A    
C12   C14   A    
O4    Zn1   S    
S4    O19   D    
S5    O22   D    
C4    C10   A    
C8    H8    S    
N1    Zn2   S    
C13   H12   S    
S3    O17   S    
C15   C17   A    
C5    C41   A    
C3    C41   A    
C24   O6    A    
S7    O29   S    
C18   C22   A    
O1    Zn1   S    
O17   H15   S    
C5    C8    A    
C2    O2    A    
C6    C7    A    
C25   C27   A    
S4    O20   S    
O32   H20   S    
C26   C28   A    
C11   S7    S    
S1    O11   S    
O8    Zn1   S    
C36   C38   A    
C29   C31   T    
C30   C32   T    
C11   C13   A    
O23   H17   S    
C4    C42   A    
C40   C42   A    
O29   H19   S    
C17   C19   A    
C18   C20   A    
S8    O30   D    
C17   C21   A    
O5    Zn1   S    
C23   O5    A    
C14   H11   S    
C8    C10   A    
S4    O18   D    
C6    C42   A    
S5    O23   S    
C13   N1    A    
C10   S2    S    
