data_mof_unit_59176.cif
_audit_creation_date              2013-03-05T16:23:14-0500
_audit_creation_method            fapswitch 2.2
_symmetry_space_group_name_H-M    P1
_symmetry_Int_Tables_number       1
_space_group_crystal_system       triclinic
_cell_length_a                    27.635545
_cell_length_b                    10.777827
_cell_length_c                    9.945989
_cell_angle_alpha                 88.144928
_cell_angle_beta                  89.851289
_cell_angle_gamma                 89.965812
_cell_volume                      2960.86104537

loop_
_atom_site_label
_atom_site_type_symbol
_atom_site_description
_atom_site_fract_x
_atom_site_fract_y
_atom_site_fract_z
_atom_type_partial_charge
O1    O     O_R   0.500000 0.313960 0.616610 -0.615816
O2    O     O_R   0.500000 0.686040 0.383390 -0.617436
O3    O     O_R   0.500020 0.313950 0.383350 -0.624456
O4    O     O_R   0.499980 0.686050 0.616650 -0.629049
C1    C     C_R   0.497871 0.258547 0.501842 0.942546
C2    C     C_R   0.498695 0.742232 0.497656 0.960161
O5    O     O_R   0.428750 0.500030 0.616610 -0.596557
O6    O     O_R   0.571250 0.499970 0.383390 -0.599892
O7    O     O_R   0.428770 0.500020 0.383360 -0.609697
O8    O     O_R   0.571230 0.499980 0.616640 -0.597524
C3    C     C_R   0.406416 0.500230 0.499754 1.007659
C4    C     C_R   0.593885 0.500267 0.499657 1.023581
Zn1   Zn    Zn3+2 0.499990 0.500010 0.655740 0.979552
Zn2   Zn    Zn3+2 0.500010 0.499990 0.344260 0.980200
C5    C     C_R   0.177012 0.446443 0.388974 0.645883
C6    C     C_R   0.826461 0.580624 0.564225 0.650220
O9    O     O_2   0.202530 0.365945 0.315884 -0.487185
O10   O     O_2   0.805229 0.581538 0.686437 -0.499617
N1    N     N_R   0.201283 0.527636 0.466731 -0.320251
N2    N     N_R   0.800174 0.546519 0.454987 -0.319079
C7    C     C_R   0.178318 0.621061 0.530466 0.626213
C8    C     C_R   0.822460 0.526536 0.334580 0.621367
C9    C     C_R   0.281334 0.603094 0.399750 0.365291
C10   C     C_R   0.725199 0.423556 0.428110 0.385273
C11   C     C_R   0.331564 0.599316 0.412003 0.267189
C12   C     C_R   0.674635 0.416654 0.431032 0.264294
C13   C     C_R   0.324830 0.422347 0.570382 0.248641
C14   C     C_R   0.671554 0.608079 0.550980 0.248855
C15   C     C_R   0.274243 0.430067 0.562651 0.140087
C16   C     C_R   0.720701 0.628483 0.522994 0.167248
C17   C     C_R   0.252806 0.519354 0.475726 0.064976
C18   C     C_R   0.748373 0.533097 0.467099 0.033866
C19   C     C_R   0.102129 0.550308 0.441963 -0.153151
C20   C     C_R   0.899783 0.567511 0.435351 -0.148881
C21   C     C_R   0.126099 0.449253 0.383358 -0.133403
C22   C     C_R   0.875649 0.610558 0.549706 -0.135037
C23   C     C_R   0.098352 0.353395 0.326632 0.363035
C24   C     C_R   0.901593 0.676006 0.647139 0.345727
C25   C     C_R   0.128555 0.640464 0.511320 -0.092090
C26   C     C_R   0.873272 0.518341 0.328145 -0.111949
C27   C     C_R   0.353585 0.508126 0.496270 -0.295384
C28   C     C_R   0.647347 0.506741 0.496711 -0.297940
C29   C     C_R   0.975154 0.500948 0.334015 -0.038288
C30   C     C_R   0.027196 0.654704 0.501870 -0.009946
C31   C     C_R   0.976636 0.641739 0.522253 0.037632
C32   C     C_R   0.024926 0.476162 0.356984 0.028649
C33   C     C_R   0.950467 0.571390 0.429620 -0.022835
C34   C     C_R   0.051534 0.560859 0.432644 -0.021945
C35   C     C_R   0.949163 0.457643 0.222222 0.384882
C36   C     C_R   0.054167 0.756835 0.545797 0.349406
C37   C     C_R   0.898418 0.466473 0.218710 0.138364
C38   C     C_R   0.104773 0.748417 0.555236 0.144250
O11   O     O_2   0.795411 0.515608 0.223041 -0.543247
O12   O     O_2   0.203950 0.694459 0.611473 -0.511558
C39   C     C_R   0.047563 0.364512 0.319671 0.173816
C40   C     C_R   0.952116 0.689534 0.635114 0.168598
C41   C     C_3   0.494736 0.033276 0.628047 0.333710
C42   C     C_3   0.493331 0.969148 0.367819 0.374753
C43   C     C_3   0.534098 0.959294 0.556902 0.077210
C44   C     C_3   0.454535 0.046167 0.439028 0.129113
C45   C     C_3   0.495467 0.877809 0.492306 -0.281253
C46   C     C_3   0.494336 0.124252 0.504375 -0.281201
C47   C     C_3   0.455644 0.954461 0.561192 0.117508
C48   C     C_3   0.532619 0.046508 0.433795 0.112710
C49   C     C_3   0.480944 0.399601 0.051745 0.148922
C50   C     C_3   0.518919 0.599632 0.949207 0.143503
C51   C     C_3   0.524307 0.407269 0.956150 0.190380
C52   C     C_3   0.475682 0.591926 0.043751 0.179054
N3    N     N_3   0.499960 0.500030 0.863290 -0.185588
N4    N     N_3   0.500040 0.499970 0.136710 -0.187717
C53   C     C_3   0.456766 0.492057 0.953821 0.148334
C54   C     C_3   0.543295 0.507467 0.046748 0.166096
Cl1   Cl    Cl    0.351251 0.297743 0.662814 -0.736138
Cl2   Cl    Cl    0.641388 0.709205 0.655328 -0.722026
Cl3   Cl    Cl    0.495911 0.055436 0.803261 -0.737541
Cl4   Cl    Cl    0.493541 0.949772 0.192371 -0.737462
N5    N     N_2   0.414304 0.895459 0.626532 -0.286536
H1    H     H_    0.423677 0.819858 0.686750 0.250194
C55   C     C_3   0.379948 0.976172 0.689805 -0.631582
H2    H     H_    0.348939 0.920237 0.728867 0.237471
H3    H     H_    0.365742 0.045784 0.616049 0.275790
H4    H     H_    0.396788 0.023520 0.775224 0.280044
N6    N     N_2   0.574368 0.092506 0.360390 -0.245535
H5    H     H_    0.565269 0.161652 0.291434 0.289365
C56   C     C_3   0.605799 0.999354 0.304076 -0.653704
H6    H     H_    0.642218 0.039503 0.285483 0.275740
H7    H     H_    0.591586 0.968840 0.206489 0.252253
H8    H     H_    0.609903 0.917290 0.373433 0.254508
N7    N     N_2   0.554111 0.308576 0.906008 -0.300633
H9    H     H_    0.542106 0.272270 0.818508 0.301382
C57   C     C_3   0.569779 0.216119 0.005067 -0.678048
H10   H     H_    0.596295 0.152828 0.958816 0.240405
H11   H     H_    0.538535 0.160647 0.042689 0.313498
H12   H     H_    0.587534 0.260820 0.090692 0.273479
N8    N     N_2   0.445683 0.690694 0.091742 -0.256607
H13   H     H_    0.457581 0.727587 0.178980 0.324924
C58   C     C_3   0.429686 0.781133 0.990595 -0.615653
H14   H     H_    0.402278 0.843231 0.034686 0.258074
H15   H     H_    0.412972 0.734798 0.904448 0.228295
H16   H     H_    0.460553 0.837912 0.953102 0.307199
N9    N     N_2   0.458584 0.289952 0.113169 -0.274508
H17   H     H_    0.440124 0.307842 0.200453 0.268917
C59   C     C_3   0.430635 0.213857 0.024739 -0.670014
H18   H     H_    0.391745 0.238875 0.029167 0.222903
H19   H     H_    0.433947 0.115155 0.057086 0.307804
H20   H     H_    0.443108 0.225309 0.919318 0.287596
N10   N     N_2   0.540715 0.709619 0.889866 -0.283591
H21   H     H_    0.561488 0.688046 0.808364 0.294363
C60   C     C_3   0.565204 0.790176 0.981552 -0.751112
H22   H     H_    0.559850 0.888304 0.948462 0.303881
H23   H     H_    0.604653 0.771056 0.982386 0.239139
H24   H     H_    0.551162 0.777305 0.085506 0.276462
N11   N     N_2   0.408385 0.483072 0.899712 -0.284842
H25   H     H_    0.405130 0.406837 0.841557 0.297656
C61   C     C_3   0.368742 0.494470 0.994380 -0.649818
H26   H     H_    0.335100 0.456758 0.950482 0.250794
H27   H     H_    0.361928 0.593097 0.015492 0.287077
H28   H     H_    0.376321 0.443424 0.090696 0.235588
N12   N     N_2   0.591471 0.518887 0.102755 -0.267396
H29   H     H_    0.594735 0.594945 0.162104 0.245470
C62   C     C_3   0.631609 0.507687 0.010003 -0.641976
H30   H     H_    0.665793 0.532890 0.060873 0.253774
H31   H     H_    0.626797 0.569751 0.920083 0.256865
H32   H     H_    0.635400 0.411041 0.977402 0.271182
N13   N     N_2   0.244456 0.350986 0.644893 -0.284818
H33   H     H_    0.254098 0.346778 0.745070 0.272459
C63   C     C_3   0.233282 0.230902 0.591317 -0.597911
H34   H     H_    0.193415 0.220916 0.584737 0.237464
H35   H     H_    0.247637 0.155567 0.658982 0.239942
H36   H     H_    0.249171 0.219362 0.489617 0.272880
N14   N     N_2   0.742850 0.744433 0.550491 -0.249095
H37   H     H_    0.731455 0.785922 0.636914 0.305493
C64   C     C_3   0.745351 0.829957 0.435701 -0.666250
H38   H     H_    0.765432 0.914531 0.463485 0.269545
H39   H     H_    0.708304 0.857282 0.402998 0.239807
H40   H     H_    0.764788 0.786892 0.351086 0.247610
Cl5   Cl    Cl    0.125126 0.212043 0.278184 -0.570958
Cl6   Cl    Cl    0.871349 0.752881 0.778042 -0.573770
Cl7   Cl    Cl    0.646286 0.294266 0.351828 -0.612490
Cl8   Cl    Cl    0.366427 0.712084 0.323677 -0.613148
Cl9   Cl    Cl    0.759063 0.292245 0.381203 -0.525001
Cl10  Cl    Cl    0.253582 0.712992 0.288913 -0.528167
N15   N     N_2   0.873552 0.411320 0.110461 -0.272763
H41   H     H_    0.845641 0.351385 0.135356 0.287983
C65   C     C_3   0.866627 0.488630 0.990245 -0.470515
H42   H     H_    0.827447 0.505015 0.972706 0.277846
H43   H     H_    0.881799 0.440834 0.902406 0.241351
H44   H     H_    0.884883 0.579891 0.998367 0.245940
N16   N     N_2   0.131770 0.850687 0.602806 -0.260530
H45   H     H_    0.115134 0.898520 0.678274 0.270429
C66   C     C_3   0.151522 0.931647 0.497599 -0.523326
H46   H     H_    0.175272 0.001749 0.542897 0.224516
H47   H     H_    0.121859 0.980061 0.442109 0.270608
H48   H     H_    0.173510 0.878091 0.425991 0.271339
Cl11  Cl    Cl    0.979274 0.406845 0.076353 -0.624831
Cl12  Cl    Cl    0.026557 0.904504 0.557473 -0.657920
N17   N     N_2   0.018648 0.257981 0.294540 -0.272318
H49   H     H_    0.032845 0.195747 0.228582 0.307502
C67   C     C_3   0.997638 0.199179 0.413672 -0.619499
H50   H     H_    0.975441 0.118488 0.384790 0.274871
H51   H     H_    0.973763 0.265021 0.466179 0.228930
H52   H     H_    0.026711 0.166723 0.483240 0.275143
N18   N     N_2   0.978894 0.737205 0.744385 -0.279651
H53   H     H_    0.963705 0.812545 0.789806 0.305720
C68   C     C_3   0.996214 0.643719 0.839633 -0.650592
H54   H     H_    0.018942 0.687852 0.916567 0.259120
H55   H     H_    0.018497 0.573647 0.788133 0.249334
H56   H     H_    0.964982 0.597581 0.890128 0.270619
N19   N     N_2   0.577649 0.921317 0.625895 -0.252598
H57   H     H_    0.568941 0.868890 0.709821 0.291906
C69   C     C_3   0.611077 0.019683 0.658080 -0.596490
H58   H     H_    0.639073 0.982858 0.728673 0.247066
H59   H     H_    0.592067 0.097319 0.706369 0.239345
H60   H     H_    0.629973 0.055286 0.566520 0.281622
N20   N     N_2   0.412705 0.105003 0.376562 -0.312718
H61   H     H_    0.397535 0.173438 0.433071 0.245966
C70   C     C_3   0.377509 0.024277 0.317790 -0.583398
H62   H     H_    0.350101 0.081292 0.262605 0.227307
H63   H     H_    0.358834 0.967753 0.397199 0.279589
H64   H     H_    0.395024 0.962760 0.245160 0.291359

loop_
_geom_bond_atom_site_label_1
_geom_bond_atom_site_label_2
_geom_bond_distance
_ccdc_geom_bond_type
C50   C52   1.519254 S    
C69   H58   1.110609 S    
C68   H54   1.110262 S    
C15   N13   1.423149 S    
C13   C15   1.402589 A    
Zn2   N4    2.064295 S    
N19   H57   1.021058 S    
N8    H13   1.021295 S    
C49   N9    1.450462 S    
C50   N10   1.438784 S    
N1    C17   1.429472 S    
C58   H16   1.106972 S    
C10   C18   1.409335 A    
C65   H42   1.110276 S    
C42   Cl4   1.764143 S    
C41   C46   1.548066 S    
N20   C70   1.442794 S    
C56   H6    1.108485 S    
O5    C3    1.317318 A    
C69   H59   1.109501 S    
C40   N18   1.426024 S    
C43   C48   1.519919 S    
N17   H49   1.030073 S    
C44   C47   1.541622 S    
O1    C1    1.306775 A    
C2    C45   1.463153 S    
C44   C46   1.542976 S    
N1    C7    1.362711 A    
C10   C12   1.399566 A    
N16   C66   1.446643 S    
C47   N5    1.449906 S    
C7    O12   1.349674 S    
C41   C43   1.533403 S    
C50   N3    1.489810 S    
C42   C44   1.540533 S    
C16   N14   1.426562 S    
C58   H14   1.109343 S    
C51   N7    1.445583 S    
C53   N11   1.447048 S    
N3    C53   1.494175 S    
C51   C54   1.523044 S    
C66   H48   1.110688 S    
C14   C28   1.404522 A    
O4    Zn1   2.030058 S    
C45   C47   1.547496 S    
C62   H32   1.105748 S    
C46   C48   1.532104 S    
C58   H15   1.107659 S    
C50   C54   1.523777 S    
N18   H53   1.030514 S    
C31   C40   1.420436 A    
C36   Cl12  1.771652 S    
C38   N16   1.425483 S    
C49   C51   1.528413 S    
C32   C39   1.415602 A    
C64   H40   1.111235 S    
C36   C38   1.404599 A    
C66   H46   1.108500 S    
C67   H51   1.110528 S    
C9    Cl10  1.767816 S    
N7    C57   1.445440 S    
C13   Cl1   1.761871 S    
C6    N2    1.368761 A    
C70   H64   1.106595 S    
C42   C45   1.557882 S    
C56   H7    1.107829 S    
C25   C38   1.416675 A    
C14   Cl2   1.740027 S    
C68   H55   1.111213 S    
C23   Cl5   1.773395 S    
N10   C60   1.448639 S    
O2    C2    1.305379 A    
C5    C21   1.408527 A    
C65   H43   1.109697 S    
C41   C47   1.540188 S    
C8    O11   1.347681 S    
N12   C62   1.448364 S    
C42   C48   1.531290 S    
C67   H52   1.110647 S    
C69   H60   1.106509 S    
C32   C34   1.410109 A    
C43   C45   1.537858 S    
C52   N8    1.441552 S    
C4    C28   1.479331 S    
N9    H17   1.029322 S    
C11   Cl8   1.762119 S    
O4    C2    1.312409 A    
C12   Cl7   1.745278 S    
C60   H24   1.107930 S    
C11   C27   1.409731 A    
C57   H10   1.109891 S    
C55   H3    1.104843 S    
C29   C35   1.417117 A    
C35   C37   1.405968 A    
N5    H1    1.028926 S    
C51   N3    1.499301 S    
C9    C17   1.400255 A    
C5    N1    1.364171 A    
O7    Zn2   2.005806 S    
C63   H35   1.111401 S    
C48   N6    1.443213 S    
C57   H11   1.107926 S    
C13   C27   1.408280 A    
C67   H50   1.110348 S    
C7    C25   1.403440 A    
C39   N17   1.428290 S    
C10   Cl9   1.770682 S    
O6    C4    1.316250 A    
C61   H28   1.109521 S    
C8    C26   1.408357 A    
C24   Cl6   1.773003 S    
N5    C55   1.444142 S    
C24   C40   1.408281 A    
C59   H19   1.105177 S    
C6    O10   1.348669 S    
C19   C25   1.414301 A    
C44   N20   1.449738 S    
O7    C3    1.310825 A    
C62   H30   1.110802 S    
O3    Zn2   2.030060 S    
O8    C4    1.319749 A    
C52   N4    1.494433 S    
N6    C56   1.452237 S    
N2    C8    1.368426 A    
C68   H56   1.107502 S    
N13   H33   1.031618 S    
C20   C26   1.412666 A    
N6    H5    1.027891 S    
O1    Zn1   2.054965 S    
N10   H21   1.024870 S    
C63   H34   1.109353 S    
O3    C1    1.305032 A    
C65   H44   1.111071 S    
C22   C24   1.413938 A    
C30   C31   1.417689 A    
C12   C28   1.405622 A    
N13   C63   1.449266 S    
N11   H25   1.024145 S    
N2    C18   1.443258 S    
C56   H8    1.109864 S    
C30   C36   1.411346 A    
N15   C65   1.448107 S    
C61   H27   1.106112 S    
O6    Zn2   2.007847 S    
C21   C23   1.419367 A    
C35   Cl11  1.772476 S    
N14   C64   1.445496 S    
O8    Zn1   2.005809 S    
C55   H4    1.108673 S    
N12   H29   1.029675 S    
N8    C58   1.447727 S    
C5    O9    1.347574 S    
C37   N15   1.424958 S    
C26   C37   1.419555 A    
N9    C59   1.446985 S    
C41   Cl3   1.766988 S    
C60   H23   1.109396 S    
N15   H41   1.030912 S    
C63   H36   1.112302 S    
C15   C17   1.404495 A    
N20   H61   1.030013 S    
C49   C53   1.525686 S    
N16   H45   1.031274 S    
C6    C22   1.403289 A    
C57   H12   1.107769 S    
C16   C18   1.408776 A    
C61   H26   1.110967 S    
C64   H38   1.110360 S    
Zn1   N3    2.064294 S    
C52   C53   1.515687 S    
C54   N12   1.451366 S    
C14   C16   1.401773 A    
C19   C21   1.415295 A    
C70   H63   1.108305 S    
C1    C46   1.450161 S    
C3    C27   1.462871 S    
C59   H20   1.106002 S    
C20   C22   1.408391 A    
C66   H47   1.109974 S    
N14   H37   1.030173 S    
O2    Zn2   2.054963 S    
C29   C32   1.418700 A    
C62   H31   1.107589 S    
C55   H2    1.110176 S    
C23   C39   1.410316 A    
C30   C34   1.411143 A    
O5    Zn1   2.007842 S    
C9    C11   1.394260 A    
C31   C33   1.412828 A    
N17   C67   1.446016 S    
C70   H62   1.110098 S    
C60   H22   1.107363 S    
C59   H18   1.108996 S    
C64   H39   1.111695 S    
C19   C34   1.405833 A    
N18   C68   1.442823 S    
N4    C54   1.491958 S    
C20   C33   1.402296 A    
N7    H9    1.021888 S    
C43   N19   1.439611 S    
C29   C33   1.410241 A    
C49   N4    1.491647 S    
N11   C61   1.450471 S    
N19   C69   1.450698 S    
