data_mof_unit_45332.cif
_audit_creation_date              2013-03-05T15:57:57-0500
_audit_creation_method            fapswitch 2.2
_symmetry_space_group_name_H-M    P1
_symmetry_Int_Tables_number       1
_space_group_crystal_system       triclinic
_cell_length_a                    13.757215
_cell_length_b                    13.856427
_cell_length_c                    15.101958
_cell_angle_alpha                 87.975362
_cell_angle_beta                  90.062773
_cell_angle_gamma                 84.195941
_cell_volume                      2862.24584896

loop_
_atom_site_label
_atom_site_type_symbol
_atom_site_description
_atom_site_fract_x
_atom_site_fract_y
_atom_site_fract_z
_atom_type_partial_charge
O1    O     O_R   0.582280 0.500030 0.370250 -0.642321
O2    O     O_R   0.417720 0.499970 0.629750 -0.571342
O3    O     O_R   0.417740 0.500020 0.370270 -0.504232
O4    O     O_R   0.582260 0.499980 0.629730 -0.553135
C1    C     C_R   0.499825 0.504343 0.328840 0.898094
C2    C     C_R   0.500375 0.498499 0.671192 0.884564
O5    O     O_R   0.593900 0.362160 0.500010 -0.538392
O6    O     O_R   0.406100 0.637840 0.499990 -0.530174
O7    O     O_R   0.429360 0.362150 0.500030 -0.595286
O8    O     O_R   0.570640 0.637850 0.499970 -0.603337
C3    C     C_R   0.516270 0.316917 0.498689 0.801060
C4    C     C_R   0.483747 0.683094 0.501316 0.830454
Cu1   Cu    Cu3+1 0.597420 0.500010 0.499990 0.986792
Cu2   Cu    Cu3+1 0.402580 0.499990 0.500010 1.050038
C5    C     C_1   0.473414 0.786520 0.501812 -0.081340
C6    C     C_1   0.526732 0.213508 0.497920 -0.123924
C7    C     C_2   0.459698 0.977452 0.502479 -0.141056
C8    C     C_2   0.540707 0.022612 0.496737 -0.165700
C9    C     C_1   0.534154 0.126457 0.497323 0.034360
C10   C     C_1   0.466168 0.873591 0.502141 0.059602
H1    H     H_    0.612148 0.981913 0.491640 0.182604
H2    H     H_    0.388272 0.018177 0.507594 0.183233
C11   C     C_R   0.475262 0.415239 0.818039 0.420244
C12   C     C_R   0.522968 0.586678 0.182241 0.414465
C13   C     C_R   0.503408 0.495769 0.767933 -0.252773
C14   C     C_R   0.502726 0.503282 0.232265 -0.251143
C15   C     C_R   0.540742 0.572888 0.809868 0.447187
C16   C     C_R   0.493024 0.415616 0.191267 0.452652
C17   C     C_R   0.536539 0.577355 0.902898 -0.106450
C18   C     C_R   0.492269 0.412751 0.097900 -0.111042
C19   C     C_R   0.516041 0.493896 0.953680 -0.148622
C20   C     C_R   0.515777 0.495478 0.047115 -0.154433
C21   C     C_R   0.490311 0.410735 0.910800 -0.095431
C22   C     C_R   0.535091 0.581326 0.089533 -0.092323
C23   C     C_R   0.552551 0.663773 0.944888 0.406783
C24   C     C_R   0.470119 0.328471 0.054863 0.412928
C25   C     C_R   0.561568 0.662091 0.037883 0.449590
C26   C     C_R   0.475865 0.325750 0.961911 0.459640
C27   C     C_R   0.786331 0.565165 0.446910 -0.017829
C28   C     C_R   0.213601 0.436694 0.555141 0.019231
N1    N     N_R   0.743820 0.499960 0.499930 -0.255351
N2    N     N_R   0.256180 0.500040 0.500070 -0.256536
C29   C     C_R   0.800408 0.435291 0.554532 0.498146
C30   C     C_R   0.199568 0.564566 0.445425 0.503702
C31   C     C_R   0.903550 0.435427 0.556738 -0.129102
C32   C     C_R   0.096229 0.566550 0.445379 -0.130595
C33   C     C_R   0.948015 0.502177 0.501945 0.015877
C34   C     C_R   0.051611 0.501808 0.502209 0.020114
C35   C     C_R   0.888947 0.568706 0.446511 -0.097771
C36   C     C_R   0.110599 0.436391 0.558763 -0.095930
C37   C     C_R   0.962866 0.370602 0.612855 -0.173588
C38   C     C_R   0.036801 0.632197 0.390066 -0.164611
C39   C     C_R   0.064951 0.371468 0.615706 0.316233
C40   C     C_R   0.934361 0.635175 0.391065 0.335995
H3    H     H_    0.739422 0.613617 0.404536 0.176009
H4    H     H_    0.260921 0.385921 0.595397 0.193991
H5    H     H_    0.930103 0.319801 0.656806 0.229588
H6    H     H_    0.069426 0.683530 0.346570 0.231621
O9    O     O_3   0.416335 0.351196 0.781265 -0.496059
C41   C     C_3   0.466992 0.291181 0.719253 -0.172369
H7    H     H_    0.544404 0.305136 0.707405 0.125204
H8    H     H_    0.425821 0.299445 0.656314 0.166219
H9    H     H_    0.465840 0.214226 0.741397 0.201263
O10   O     O_3   0.511544 0.677001 0.220109 -0.520639
C42   C     C_3   0.592714 0.691340 0.273603 -0.140282
H10   H     H_    0.656195 0.635234 0.268211 0.113693
H11   H     H_    0.569239 0.694639 0.343058 0.152501
H12   H     H_    0.617462 0.763205 0.255941 0.215966
O11   O     O_3   0.575109 0.647178 0.758703 -0.545589
C43   C     C_3   0.678400 0.633443 0.757530 -0.231394
H13   H     H_    0.711100 0.618504 0.824694 0.124247
H14   H     H_    0.705965 0.700673 0.729862 0.178901
H15   H     H_    0.705043 0.573645 0.714224 0.209324
O12   O     O_3   0.482326 0.333027 0.243341 -0.525546
C44   C     C_3   0.576130 0.287209 0.265520 -0.310482
H16   H     H_    0.625551 0.280278 0.207216 0.138960
H17   H     H_    0.568168 0.212949 0.292513 0.193482
H18   H     H_    0.611002 0.326394 0.317679 0.178121
O13   O     O_3   0.532157 0.751432 0.897066 -0.515277
C45   C     C_3   0.610788 0.809310 0.896658 -0.148932
H19   H     H_    0.683103 0.766576 0.892219 0.106347
H20   H     H_    0.606993 0.856698 0.954453 0.194461
H21   H     H_    0.603601 0.858262 0.836779 0.177166
O14   O     O_3   0.424091 0.258077 0.101952 -0.500169
C46   C     C_3   0.482667 0.168299 0.107101 -0.122614
H22   H     H_    0.562405 0.175694 0.108346 0.085923
H23   H     H_    0.464101 0.121902 0.052453 0.200616
H24   H     H_    0.465390 0.129666 0.169825 0.188348
O15   O     O_3   0.595964 0.740058 0.077995 -0.547859
C47   C     C_3   0.698376 0.719856 0.089020 -0.318425
H25   H     H_    0.736942 0.713660 0.024789 0.141191
H26   H     H_    0.718179 0.651719 0.128873 0.164544
H27   H     H_    0.726470 0.780376 0.124134 0.229076
O16   O     O_3   0.465963 0.239268 0.921534 -0.514397
C48   C     C_3   0.560607 0.195005 0.902429 -0.345755
H28   H     H_    0.606433 0.180588 0.962901 0.136490
H29   H     H_    0.599768 0.239920 0.854646 0.177622
H30   H     H_    0.553514 0.124175 0.872306 0.199076
N3    N     N_R   0.755373 0.365898 0.608860 0.119734
O17   O     O_R   0.741289 0.382442 0.692349 -0.422075
O18   O     O_R   0.758082 0.277002 0.583247 -0.364557
N4    N     N_R   0.245008 0.630259 0.387448 0.126066
O19   O     O_R   0.256345 0.609494 0.304521 -0.326522
O20   O     O_R   0.245458 0.720152 0.409438 -0.347430
N5    N     N_R   0.120312 0.306789 0.677847 0.113484
O21   O     O_R   0.180778 0.340538 0.732389 -0.306133
O22   O     O_R   0.097431 0.218596 0.691128 -0.315452
N6    N     N_R   0.878187 0.706836 0.335804 0.098479
O23   O     O_R   0.809535 0.765248 0.370217 -0.392312
O24   O     O_R   0.906895 0.725408 0.255481 -0.357267

loop_
_geom_bond_atom_site_label_1
_geom_bond_atom_site_label_2
_geom_bond_distance
_ccdc_geom_bond_type
C15   C17   1.409471 A    
C22   C25   1.419474 A    
C48   H28   1.109847 S    
C44   H16   1.113926 S    
C16   O12   1.385807 S    
Cu1   N1    2.013986 S    
C48   H30   1.109291 S    
C33   C35   1.415439 A    
C46   H22   1.112218 S    
C11   O9    1.390131 S    
N5    O22   1.301284 A    
C41   H9    1.107871 S    
O1    C1    1.289769 A    
C23   C25   1.408903 A    
C12   C14   1.409777 A    
C2    C13   1.460568 S    
C42   H11   1.098970 S    
C31   C37   1.409750 A    
C35   C40   1.415203 A    
C8    H1    1.086767 S    
C32   C38   1.409976 A    
C7    C10   1.433068 S    
N6    O23   1.301298 A    
C41   H8    1.102436 S    
C8    C9    1.432957 S    
O4    Cu1   1.970616 S    
C27   H3    1.076020 S    
C33   C34   1.424687 A    
C30   C32   1.419134 A    
C28   H4    1.079174 S    
C18   C24   1.415727 A    
C19   C21   1.416757 A    
C43   H13   1.113270 S    
C37   H5    1.082144 S    
C15   O11   1.386820 S    
Cu2   N2    2.013988 S    
C34   C36   1.415851 A    
O9    C41   1.411913 S    
C12   O10   1.388928 S    
Cu1   Cu2   2.680486 S    
N1    C29   1.376322 A    
O2    C2    1.295368 A    
N2    C30   1.375728 A    
C45   H21   1.109276 S    
C38   C40   1.405839 A    
C31   C33   1.405653 A    
C5    C10   1.200697 T    
C38   H6    1.082154 S    
C32   C34   1.405799 A    
C36   C39   1.415612 A    
O12   C44   1.413826 S    
C46   H23   1.109002 S    
N4    O19   1.300893 A    
O14   C46   1.411813 S    
C45   H20   1.108763 S    
C30   N4    1.430368 S    
C45   H19   1.108449 S    
C11   C21   1.414137 A    
C12   C22   1.413812 A    
C1    C14   1.459619 S    
C41   H7    1.114976 S    
C37   C39   1.406297 A    
C20   C22   1.418947 A    
O5    C3    1.292376 A    
O7    Cu2   1.908233 S    
O7    C3    1.293132 A    
C3    C6    1.425984 S    
C47   H26   1.111437 S    
N3    O17   1.300687 A    
C4    C5    1.426059 S    
O6    C4    1.292674 A    
C42   H12   1.108455 S    
C26   O16   1.382340 S    
C43   H15   1.107263 S    
C7    C8    1.333608 D    
O16   C48   1.416529 S    
N4    O20   1.301016 A    
C44   H17   1.109169 S    
O3    Cu2   1.970615 S    
O8    C4    1.292983 A    
O4    C2    1.291055 A    
C27   C35   1.417521 A    
O1    Cu1   1.970127 S    
C47   H27   1.109205 S    
C46   H24   1.109384 S    
O6    Cu2   1.915602 S    
N3    O18   1.301043 A    
C19   C20   1.411987 A    
C7    H2    1.086764 S    
C29   N3    1.430885 S    
C28   N2    1.363352 A    
O3    C1    1.297253 A    
O8    Cu1   1.908235 S    
C48   H29   1.111418 S    
C25   O15   1.380939 S    
C13   C15   1.401746 A    
N5    O21   1.301345 A    
C17   C23   1.411112 A    
C14   C16   1.400890 A    
C21   C26   1.416134 A    
C40   N6    1.436826 S    
O10   C42   1.411848 S    
C24   C26   1.407678 A    
C16   C18   1.412041 A    
C29   C31   1.419496 A    
C18   C20   1.421335 A    
C47   H25   1.107979 S    
C24   O14   1.391044 S    
C6    C9    1.200555 T    
C28   C36   1.418562 A    
C23   O13   1.394379 S    
N6    O24   1.301234 A    
C11   C13   1.412804 A    
O11   C43   1.414691 S    
O2    Cu2   1.970127 S    
C44   H18   1.107931 S    
O13   C45   1.410141 S    
C39   N5    1.436982 S    
O5    Cu1   1.915600 S    
C27   N1    1.362456 A    
C17   C19   1.417324 A    
C42   H10   1.114009 S    
C43   H14   1.109278 S    
O15   C47   1.416873 S    
