data_mof_unit_24572.cif
_audit_creation_date              2012-12-10T19:50:58-0500
_audit_creation_method            fapswitch 2.2
_symmetry_space_group_name_H-M    P1
_symmetry_Int_Tables_number       1
_space_group_crystal_system       triclinic
_cell_length_a                    23.524943
_cell_length_b                    10.919126
_cell_length_c                    22.177222
_cell_angle_alpha                 90.014057
_cell_angle_beta                  89.824554
_cell_angle_gamma                 89.169558
_cell_volume                      5696.07800633

loop_
_atom_site_label
_atom_site_type_symbol
_atom_type_description
_atom_site_fract_x
_atom_site_fract_y
_atom_site_fract_z
_atom_type_partial_charge
C1    C     C_R   0.498668 0.261793 0.499900 0.798030
C2    C     C_R   0.702233 0.510669 0.445795 -0.219351
C3    C     C_R   0.238628 0.516759 0.446339 -0.115039
C4    C     C_R   0.761510 0.508430 0.446006 -0.106806
C5    C     C_R   0.208929 0.507388 0.500899 0.362775
C6    C     C_R   0.790960 0.490834 0.500132 0.373247
C7    C     C_R   0.370723 0.250850 0.358688 -0.126096
C8    C     C_R   0.629682 0.746816 0.640119 -0.125064
C9    C     C_R   0.396672 0.191396 0.407421 -0.096278
C10   C     C_R   0.603649 0.807179 0.591704 -0.095896
C11   C     C_R   0.446825 0.122061 0.398658 0.120793
C12   C     C_R   0.501403 0.738186 0.500093 0.797859
C13   C     C_R   0.553904 0.877648 0.600989 0.119578
C14   C     C_R   0.470069 0.111593 0.340437 -0.162597
C15   C     C_R   0.531246 0.888543 0.659448 -0.163222
C16   C     C_R   0.390688 0.501032 0.500092 0.799123
C17   C     C_R   0.609300 0.499044 0.499930 0.797846
C18   C     C_R   0.444051 0.171570 0.291877 -0.130646
C19   C     C_R   0.557387 0.827796 0.707710 -0.130190
C20   C     C_R   0.394535 0.241457 0.301034 -0.092071
C21   C     C_R   0.606431 0.756648 0.698012 -0.094893
C22   C     C_R   0.478804 0.934383 0.451149 -0.229007
C23   C     C_R   0.238813 0.497645 0.555226 -0.109001
C24   C     C_R   0.521503 0.065554 0.548790 -0.229456
C25   C     C_R   0.502665 0.871914 0.500300 -0.084844
C26   C     C_R   0.497574 0.128034 0.499656 -0.084497
C27   C     C_R   0.524969 0.938138 0.549464 0.004191
C28   C     C_R   0.475435 0.061768 0.450418 0.003644
C29   C     C_R   0.548600 0.533139 0.872143 0.528470
C30   C     C_R   0.451449 0.467011 0.127848 0.528814
C31   C     C_R   0.451932 0.470070 0.872079 0.536990
C32   C     C_R   0.548117 0.530080 0.127914 0.537105
C33   C     C_R   0.450830 0.469029 0.935860 -0.021606
C34   C     C_R   0.760939 0.475005 0.554061 -0.123554
C35   C     C_R   0.549219 0.531123 0.064132 -0.021455
C36   C     C_R   0.500082 0.500495 0.967910 -0.015305
C37   C     C_R   0.499968 0.499657 0.032081 -0.015369
C38   C     C_R   0.549448 0.532778 0.935931 -0.014963
C39   C     C_R   0.450602 0.467375 0.064060 -0.015187
C40   C     C_R   0.878324 0.603168 0.496842 0.525944
C41   C     C_R   0.121690 0.396432 0.513746 0.518908
C42   C     C_R   0.401776 0.436803 0.968331 -0.165821
C43   C     C_R   0.598273 0.563352 0.031661 -0.165860
C44   C     C_R   0.401665 0.435979 0.031505 -0.166956
C45   C     C_R   0.298059 0.495852 0.555016 -0.217414
C46   C     C_R   0.598384 0.564176 0.968486 -0.167748
C47   C     C_R   0.536365 0.420547 0.256962 -0.241528
C48   C     C_R   0.463722 0.579660 0.743031 -0.241440
C49   C     C_R   0.535889 0.422778 0.320293 0.066871
C50   C     C_R   0.464174 0.577366 0.679701 0.066858
C51   C     C_R   0.463678 0.575917 0.320349 0.042986
C52   C     C_R   0.536292 0.424021 0.679653 0.043050
C53   C     C_R   0.462754 0.576419 0.257012 -0.236079
C54   C     C_R   0.537238 0.423577 0.742989 -0.237021
C55   C     C_R   0.499529 0.498222 0.224412 0.358934
C56   C     C_R   0.701691 0.477625 0.554017 -0.240290
C57   C     C_R   0.500517 0.501900 0.775583 0.359848
C58   C     C_R   0.881785 0.386122 0.505988 0.533788
C59   C     C_R   0.117812 0.609235 0.489699 0.527495
C60   C     C_R   0.941326 0.386111 0.507731 -0.014760
C61   C     C_R   0.058375 0.609823 0.492760 -0.016274
C62   C     C_R   0.969931 0.497649 0.501733 -0.032839
C63   C     C_R   0.030034 0.498343 0.501426 -0.030225
C64   C     C_R   0.938449 0.608777 0.497908 -0.056618
C65   C     C_R   0.061648 0.388499 0.510967 -0.053798
C66   C     C_R   0.972450 0.277356 0.516384 -0.228847
C67   C     C_R   0.328143 0.503844 0.500345 -0.043860
C68   C     C_R   0.027120 0.720047 0.490447 -0.223789
C69   C     C_R   0.031811 0.277049 0.519030 -0.012916
C70   C     C_R   0.968095 0.720870 0.496650 -0.006575
C71   C     C_R   0.060385 0.158483 0.531717 0.166853
C72   C     C_R   0.056164 0.106330 0.589387 -0.127358
C73   C     C_R   0.086819 0.999513 0.603253 -0.157608
C74   C     C_R   0.122061 0.944893 0.559826 -0.087366
C75   C     C_R   0.125156 0.994604 0.501776 -0.094410
C76   C     C_R   0.093399 0.099516 0.487256 -0.100803
C77   C     C_R   0.939512 0.836988 0.513120 0.156348
C78   C     C_R   0.671819 0.496002 0.499895 -0.043161
C79   C     C_R   0.927038 0.858614 0.574183 -0.121074
C80   C     C_R   0.888187 0.950460 0.590518 -0.165834
C81   C     C_R   0.861394 0.020349 0.546006 -0.053562
C82   C     C_R   0.876076 0.003903 0.485240 -0.078639
C83   C     C_R   0.915772 0.913312 0.468728 -0.115478
C84   C     C_R   0.297909 0.515242 0.446014 -0.240563
Cu1   Cu    Cu3+1 0.500000 0.499970 0.559570 0.952051
Cu2   Cu    Cu3+1 0.500000 0.500030 0.440430 0.952076
H1    H     H_    0.950612 0.191613 0.522284 0.187954
H2    H     H_    0.636833 0.588111 0.054957 0.185807
H3    H     H_    0.363022 0.410641 0.054735 0.184713
H4    H     H_    0.637027 0.589515 0.945256 0.184172
H5    H     H_    0.564988 0.358301 0.233441 0.148619
H6    H     H_    0.435141 0.641998 0.766551 0.148282
H7    H     H_    0.564199 0.362279 0.345005 0.127854
H8    H     H_    0.435892 0.637920 0.654986 0.126967
H9    H     H_    0.435272 0.636491 0.345101 0.123676
H10   H     H_    0.564662 0.363363 0.654903 0.122012
H11   H     H_    0.433894 0.637878 0.233517 0.151978
H12   H     H_    0.048654 0.806639 0.487741 0.186106
H13   H     H_    0.566070 0.362065 0.766489 0.150908
H14   H     H_    0.216021 0.490518 0.597548 0.140700
H15   H     H_    0.783602 0.461859 0.596041 0.132011
H16   H     H_    0.320240 0.487484 0.597570 0.163342
H17   H     H_    0.679322 0.465209 0.596283 0.153303
H18   H     H_    0.320012 0.522813 0.403302 0.154482
H19   H     H_    0.680279 0.524840 0.403459 0.163285
H20   H     H_    0.215711 0.524118 0.404196 0.139539
H21   H     H_    0.784638 0.521077 0.404232 0.137613
H22   H     H_    0.374556 0.288116 0.263450 0.172021
H23   H     H_    0.508726 0.058642 0.332899 0.131959
H24   H     H_    0.626460 0.709283 0.735358 0.171155
H25   H     H_    0.332163 0.304227 0.365601 0.130761
H26   H     H_    0.667819 0.692241 0.632747 0.133789
H27   H     H_    0.378032 0.200059 0.451971 0.112731
H28   H     H_    0.621833 0.798110 0.546963 0.111956
H29   H     H_    0.030208 0.149948 0.623877 0.127581
H30   H     H_    0.084010 0.960266 0.647950 0.134534
H31   H     H_    0.146696 0.863721 0.571144 0.165285
H32   H     H_    0.152343 0.952381 0.468039 0.178422
H33   H     H_    0.096515 0.138046 0.442386 0.126513
H34   H     H_    0.492901 0.942308 0.667399 0.132183
H35   H     H_    0.944948 0.799730 0.608774 0.122132
H36   H     H_    0.877198 0.964242 0.637480 0.133551
H37   H     H_    0.828927 0.086414 0.558889 0.177882
H38   H     H_    0.855496 0.058817 0.450815 0.163774
H39   H     H_    0.924626 0.896602 0.421466 0.128796
H40   H     H_    0.462448 0.164456 0.247197 0.143990
H41   H     H_    0.539415 0.835203 0.752572 0.144355
H42   H     H_    0.460918 0.883617 0.413858 0.153172
H43   H     H_    0.539408 0.116333 0.586064 0.152245
H44   H     H_    0.363216 0.412045 0.945035 0.185880
N1    N     N_R   0.851848 0.493222 0.500718 -0.464438
N2    N     N_R   0.148003 0.504245 0.501044 -0.463555
N3    N     N_R   0.500337 0.501867 0.841223 -0.451192
N4    N     N_R   0.499712 0.498277 0.158771 -0.451239
N5    N     N_R   0.500010 0.500010 0.350920 -0.165959
N6    N     N_R   0.499990 0.499990 0.649080 -0.165396
O1    O     O_R   0.500000 0.319610 0.550310 -0.588098
O2    O     O_2   0.153970 0.298598 0.529291 -0.536711
O3    O     O_2   0.853722 0.280000 0.508937 -0.596966
O4    O     O_2   0.145450 0.712984 0.476253 -0.587319
O5    O     O_2   0.595588 0.565713 0.841434 -0.571440
O6    O     O_2   0.404458 0.434441 0.158552 -0.570488
O7    O     O_2   0.405057 0.438121 0.841298 -0.544417
O8    O     O_2   0.594990 0.562038 0.158695 -0.544454
O9    O     O_R   0.500000 0.680390 0.449690 -0.588474
O10   O     O_R   0.499990 0.319670 0.449690 -0.574496
O11   O     O_R   0.500010 0.680330 0.550310 -0.574326
O12   O     O_R   0.417880 0.499930 0.550320 -0.586871
O13   O     O_R   0.582120 0.500070 0.449680 -0.586716
O14   O     O_R   0.417880 0.499990 0.449700 -0.585947
O15   O     O_R   0.582120 0.500010 0.550300 -0.586299
O16   O     O_2   0.846139 0.705559 0.491011 -0.534760

loop_
_geom_bond_atom_site_label_1
_geom_bond_atom_site_label_2
_ccdc_geom_bond_type
C58   O3    S    
C14   H23   S    
C29   N3    A    
C63   C65   A    
C34   C56   A    
C23   C45   A    
C73   C74   A    
C14   C18   A    
C53   C55   A    
C24   C27   A    
C31   N3    A    
C81   C82   A    
C48   C57   A    
C47   C49   A    
C80   H36   S    
Cu1   Cu2   S    
C15   C19   A    
C79   H35   S    
C72   H29   S    
C73   H30   S    
C81   H37   S    
C33   C42   A    
C59   O4    S    
C12   O11   A    
C36   C37   A    
C35   C37   A    
C24   C26   A    
C8    H26   S    
C71   C76   A    
C11   C14   A    
C66   C69   A    
C77   C83   A    
C58   C60   A    
C33   C36   A    
C56   C78   A    
C15   H34   S    
C40   O16   S    
C60   C62   A    
C69   C71   S    
C62   C64   A    
C51   N5    A    
C24   H43   S    
C5    N2    S    
C30   N4    A    
C22   C25   A    
C29   C38   A    
C45   C67   A    
C31   C33   A    
C64   C70   A    
C35   C43   A    
C10   H28   S    
C72   C73   A    
C48   C50   A    
C23   H14   S    
C49   N5    A    
C60   C66   A    
C67   C84   A    
C22   C28   A    
C70   C77   S    
C57   N3    S    
C1    O10   A    
C17   O15   A    
C75   H32   S    
C42   C44   A    
C83   H39   S    
Cu2   O10   S    
C82   H38   S    
C52   C54   A    
C21   H24   S    
C77   C79   A    
C3    H20   S    
C4    H21   S    
C59   N2    A    
C59   C61   A    
C76   H33   S    
C38   C46   A    
C74   C75   A    
C34   H15   S    
C32   C35   A    
Cu1   O11   S    
C4    C6    A    
Cu2   O13   S    
C66   H1    S    
C50   H8    S    
C41   C65   A    
C52   N6    A    
C53   H11   S    
C6    C34   A    
C51   C53   A    
C12   O9    A    
C2    C4    A    
C75   C76   A    
Cu1   O15   S    
C62   C63   A    
C2    C78   A    
C22   H42   S    
C5    C23   A    
C58   N1    A    
C29   O5    S    
C61   C63   A    
C8    C21   A    
C42   H44   S    
C16   C67   S    
C9    C11   A    
C41   O2    S    
C8    C10   A    
C40   N1    A    
C82   C83   A    
C13   C15   A    
C1    C26   S    
C84   H18   S    
C54   H13   S    
C43   H2    S    
C36   C38   A    
Cu2   O9    S    
Cu1   O1    S    
Cu1   O12   S    
C1    O1    A    
C47   C55   A    
C7    C9    A    
C74   H31   S    
C19   C21   A    
C47   H5    S    
C17   O13   A    
C6    N1    S    
C56   H17   S    
C80   C81   A    
C3    C5    A    
C10   C13   A    
C40   C64   A    
C41   N2    A    
C39   C44   A    
C46   H4    S    
C25   C27   A    
C55   N4    S    
C2    H19   S    
C26   C28   A    
C30   O6    S    
C12   C25   S    
C16   O12   A    
C9    H27   S    
Cu2   O14   S    
C71   C72   A    
C37   C39   A    
C50   N6    A    
C18   H40   S    
C32   N4    A    
C61   C68   A    
C11   C28   S    
C65   C69   A    
C19   H41   S    
C17   C78   S    
C7    H25   S    
C30   C39   A    
C52   H10   S    
C18   C20   A    
C31   O7    S    
C43   C46   A    
C68   H12   S    
C32   O8    S    
C45   H16   S    
Cu1   N6    S    
C79   C80   A    
Cu2   N5    S    
C68   C70   A    
C7    C20   A    
C48   H6    S    
C3    C84   A    
C13   C27   S    
C16   O14   A    
C49   H7    S    
C44   H3    S    
C51   H9    S    
C20   H22   S    
C54   C57   A    
