data_mof_unit_32274.cif
_audit_creation_date              2013-03-05T15:39:27-0500
_audit_creation_method            fapswitch 2.2
_symmetry_space_group_name_H-M    P1
_symmetry_Int_Tables_number       1
_space_group_crystal_system       monoclinic
_cell_length_a                    18.091689
_cell_length_b                    17.644621
_cell_length_c                    17.644624
_cell_angle_alpha                 90.0
_cell_angle_beta                  89.999984
_cell_angle_gamma                 90.0
_cell_volume                      5632.53444124

loop_
_atom_site_label
_atom_site_type_symbol
_atom_site_description
_atom_site_fract_x
_atom_site_fract_y
_atom_site_fract_z
_atom_type_partial_charge
C1    C     C_R   0.720662 0.812010 0.194528 -0.178660
C2    C     C_R   0.295778 0.213190 0.805065 -0.163438
C3    C     C_R   0.226120 0.672527 0.223379 -0.049372
C4    C     C_R   0.812105 0.287062 0.804129 -0.212963
C5    C     C_R   0.295778 0.194935 0.213190 -0.163438
C6    C     C_R   0.720663 0.805472 0.812010 -0.178660
C7    C     C_R   0.842866 0.235915 0.161283 -0.047795
C8    C     C_R   0.199377 0.711054 0.789006 -0.126470
C9    C     C_R   0.720662 0.187989 0.805472 -0.178660
C10   C     C_R   0.295777 0.786810 0.194935 -0.163437
C11   C     C_R   0.226120 0.327472 0.776621 -0.049373
C12   C     C_R   0.812105 0.712938 0.195871 -0.212963
C13   C     C_R   0.295777 0.805065 0.786810 -0.163438
C14   C     C_R   0.720663 0.194528 0.187989 -0.178660
C15   C     C_R   0.842866 0.764085 0.838716 -0.047794
C16   C     C_R   0.199377 0.288945 0.210993 -0.126469
C17   C     C_R   0.199377 0.210993 0.711055 -0.126469
C18   C     C_R   0.842866 0.838716 0.235916 -0.047795
C19   C     C_R   0.199377 0.789006 0.288946 -0.126469
C20   C     C_R   0.842866 0.161284 0.764085 -0.047795
C21   C     C_R   0.812105 0.195871 0.287062 -0.212963
C22   C     C_R   0.226120 0.776621 0.672527 -0.049373
C23   C     C_R   0.812105 0.804129 0.712938 -0.212963
C24   C     C_R   0.226120 0.223379 0.327472 -0.049373
C25   C     C_R   0.650772 0.836861 0.837284 -0.070499
C26   C     C_R   0.361126 0.164956 0.171626 -0.072759
C27   C     C_R   0.159537 0.652383 0.833529 -0.084266
C28   C     C_R   0.868273 0.310484 0.133972 -0.167120
C29   C     C_R   0.361126 0.171626 0.835044 -0.072757
C30   C     C_R   0.650772 0.837284 0.163139 -0.070499
C31   C     C_R   0.832644 0.363517 0.829438 -0.032887
C32   C     C_R   0.171023 0.634239 0.171783 -0.202396
C33   C     C_R   0.650772 0.163139 0.162716 -0.070499
C34   C     C_R   0.361125 0.835044 0.828375 -0.072763
C35   C     C_R   0.159537 0.347615 0.166470 -0.084269
C36   C     C_R   0.868273 0.689516 0.866028 -0.167120
C37   C     C_R   0.361126 0.828374 0.164956 -0.072761
C38   C     C_R   0.650772 0.162716 0.836861 -0.070499
C39   C     C_R   0.832644 0.636483 0.170562 -0.032887
C40   C     C_R   0.171023 0.365761 0.828217 -0.202396
C41   C     C_R   0.868273 0.133972 0.689516 -0.167120
C42   C     C_R   0.159537 0.833529 0.347616 -0.084267
C43   C     C_R   0.868273 0.866028 0.310484 -0.167119
C44   C     C_R   0.159536 0.166470 0.652385 -0.084268
C45   C     C_R   0.171023 0.171783 0.365761 -0.202396
C46   C     C_R   0.832644 0.829438 0.636483 -0.032887
C47   C     C_R   0.171023 0.828217 0.634239 -0.202395
C48   C     C_R   0.832644 0.170562 0.363517 -0.032886
C49   C     C_R   0.736966 0.733908 0.203012 0.367761
C50   C     C_R   0.288166 0.293150 0.809951 0.236892
C51   C     C_R   0.288166 0.706850 0.190049 0.236889
C52   C     C_R   0.736966 0.266092 0.796988 0.367761
C53   C     C_R   0.236808 0.229222 0.173309 0.303613
C54   C     C_R   0.777354 0.793799 0.865713 0.309619
C55   C     C_R   0.777354 0.206201 0.134287 0.309620
C56   C     C_R   0.236807 0.770777 0.826691 0.303615
C57   C     C_R   0.201967 0.710245 0.708611 0.307790
C58   C     C_R   0.866744 0.207584 0.230539 0.317823
C59   C     C_R   0.201967 0.291388 0.710245 0.307787
C60   C     C_R   0.866743 0.769461 0.207584 0.317823
C61   C     C_R   0.201967 0.289755 0.291388 0.307788
C62   C     C_R   0.866744 0.792416 0.769461 0.317822
C63   C     C_R   0.201967 0.708611 0.289755 0.307788
C64   C     C_R   0.866743 0.230539 0.792416 0.317823
C65   C     C_R   0.777354 0.134287 0.793799 0.309619
C66   C     C_R   0.236808 0.826691 0.229223 0.303613
C67   C     C_R   0.736966 0.203012 0.266092 0.367761
C68   C     C_R   0.288165 0.809952 0.706851 0.236888
C69   C     C_R   0.288166 0.190049 0.293150 0.236892
C70   C     C_R   0.736966 0.796988 0.733908 0.367761
C71   C     C_R   0.236809 0.173309 0.770778 0.303615
C72   C     C_R   0.777354 0.865713 0.206201 0.309620
C73   C     C_R   0.615912 0.816875 0.902497 0.495796
C74   C     C_R   0.381497 0.181423 0.097528 0.486336
C75   C     C_R   0.175862 0.627947 0.906284 0.521310
C76   C     C_R   0.835333 0.355422 0.078934 0.483572
C77   C     C_R   0.394833 0.186488 0.902802 0.461650
C78   C     C_R   0.628623 0.822308 0.091168 0.512118
C79   C     C_R   0.817092 0.387646 0.901756 0.450080
C80   C     C_R   0.184634 0.602626 0.101692 0.487907
C81   C     C_R   0.615912 0.183125 0.097503 0.495797
C82   C     C_R   0.381497 0.818576 0.902472 0.486354
C83   C     C_R   0.175862 0.372053 0.093716 0.521323
C84   C     C_R   0.835333 0.644578 0.921066 0.483571
C85   C     C_R   0.394833 0.813512 0.097198 0.461650
C86   C     C_R   0.628623 0.177692 0.908831 0.512117
C87   C     C_R   0.817092 0.612354 0.098243 0.450080
C88   C     C_R   0.184634 0.397374 0.898308 0.487909
C89   C     C_R   0.922286 0.644587 0.833652 0.476125
C90   C     C_R   0.093706 0.383085 0.183936 0.449369
C91   C     C_R   0.922285 0.166348 0.644587 0.476124
C92   C     C_R   0.093706 0.816064 0.383086 0.449371
C93   C     C_R   0.922286 0.355413 0.166348 0.476125
C94   C     C_R   0.093706 0.616914 0.816064 0.449372
C95   C     C_R   0.922286 0.833652 0.355413 0.476125
C96   C     C_R   0.093705 0.183936 0.616915 0.449368
C97   C     C_R   0.096623 0.618883 0.183021 0.496013
C98   C     C_R   0.901178 0.392329 0.814249 0.489988
C99   C     C_R   0.096623 0.183021 0.381117 0.496013
C100  C     C_R   0.901178 0.814249 0.607671 0.489988
C101  C     C_R   0.096623 0.381117 0.816979 0.496014
C102  C     C_R   0.901178 0.607671 0.185750 0.489988
C103  C     C_R   0.096623 0.816979 0.618883 0.496014
C104  C     C_R   0.901178 0.185750 0.392329 0.489988
C105  C     C_R   0.817092 0.901756 0.612354 0.450080
C106  C     C_R   0.184634 0.101692 0.397374 0.487908
C107  C     C_R   0.615912 0.902497 0.183125 0.495797
C108  C     C_R   0.381497 0.097528 0.818577 0.486333
C109  C     C_R   0.175862 0.906284 0.372053 0.521315
C110  C     C_R   0.835333 0.078934 0.644578 0.483572
C111  C     C_R   0.394833 0.902802 0.813512 0.461645
C112  C     C_R   0.628623 0.091168 0.177692 0.512118
C113  C     C_R   0.175862 0.093716 0.627947 0.521324
C114  C     C_R   0.835333 0.921066 0.355422 0.483572
C115  C     C_R   0.394833 0.097198 0.186488 0.461651
C116  C     C_R   0.628623 0.908831 0.822308 0.512117
C117  C     C_R   0.817092 0.098243 0.387646 0.450079
C118  C     C_R   0.184634 0.898308 0.602626 0.487908
C119  C     C_R   0.615912 0.097503 0.816875 0.495796
C120  C     C_R   0.381497 0.902472 0.181423 0.486345
N1    N     N_R   0.584840 0.879720 0.932190 -0.136760
N2    N     N_R   0.415160 0.120280 0.067810 -0.133190
N3    N     N_R   0.120280 0.584840 0.932190 -0.136042
N4    N     N_R   0.879720 0.415160 0.067810 -0.127643
N5    N     N_R   0.415160 0.120280 0.932190 -0.134418
N6    N     N_R   0.584840 0.879720 0.067810 -0.130149
N7    N     N_R   0.879720 0.415160 0.932190 -0.141836
N8    N     N_R   0.120280 0.584840 0.067810 -0.133886
N9    N     N_R   0.584840 0.120280 0.067810 -0.136760
N10   N     N_R   0.415160 0.879720 0.932190 -0.133191
N11   N     N_R   0.120280 0.415160 0.067810 -0.136043
N12   N     N_R   0.879720 0.584840 0.932190 -0.127643
N13   N     N_R   0.415160 0.879720 0.067810 -0.134418
N14   N     N_R   0.584840 0.120280 0.932190 -0.130149
N15   N     N_R   0.879720 0.584840 0.067810 -0.141836
N16   N     N_R   0.120280 0.415160 0.932190 -0.133886
N17   N     N_R   0.932190 0.584840 0.879720 -0.130486
N18   N     N_R   0.067810 0.415160 0.120280 -0.153778
N19   N     N_R   0.932190 0.120280 0.584840 -0.130486
N20   N     N_R   0.067810 0.879720 0.415160 -0.153777
N21   N     N_R   0.932190 0.415160 0.120280 -0.130486
N22   N     N_R   0.067810 0.584840 0.879720 -0.153777
N23   N     N_R   0.932190 0.879720 0.415160 -0.130486
N24   N     N_R   0.067810 0.120280 0.584840 -0.153778
N25   N     N_R   0.067810 0.584840 0.120280 -0.130022
N26   N     N_R   0.932190 0.415160 0.879720 -0.131728
N27   N     N_R   0.067810 0.120280 0.415160 -0.130022
N28   N     N_R   0.932190 0.879720 0.584840 -0.131728
N29   N     N_R   0.067810 0.415160 0.879720 -0.130022
N30   N     N_R   0.932190 0.584840 0.120280 -0.131728
N31   N     N_R   0.067810 0.879720 0.584840 -0.130022
N32   N     N_R   0.932190 0.120280 0.415160 -0.131728
N33   N     N_R   0.879720 0.932190 0.584840 -0.141837
N34   N     N_R   0.120280 0.067810 0.415160 -0.133886
N35   N     N_R   0.584840 0.932190 0.120280 -0.136760
N36   N     N_R   0.415160 0.067810 0.879720 -0.133190
N37   N     N_R   0.120280 0.932190 0.415160 -0.136043
N38   N     N_R   0.879720 0.067810 0.584840 -0.127644
N39   N     N_R   0.415160 0.932190 0.879720 -0.134419
N40   N     N_R   0.584840 0.067810 0.120280 -0.130149
N41   N     N_R   0.120280 0.067810 0.584840 -0.136044
N42   N     N_R   0.879720 0.932190 0.415160 -0.127644
N43   N     N_R   0.415160 0.067810 0.120280 -0.134418
N44   N     N_R   0.584840 0.932190 0.879720 -0.130149
N45   N     N_R   0.879720 0.067810 0.415160 -0.141836
N46   N     N_R   0.120280 0.932190 0.584840 -0.133886
N47   N     N_R   0.584840 0.067810 0.879720 -0.136759
N48   N     N_R   0.415160 0.932190 0.120280 -0.133190
Ni1   Ni    Ni4+2 0.500000 0.880920 0.000000 0.364575
Ni2   Ni    Ni4+2 0.500000 0.119080 0.000000 0.364576
Ni3   Ni    Ni4+2 0.119080 0.500000 0.000000 0.350703
Ni4   Ni    Ni4+2 0.880920 0.500000 0.000000 0.366653
Ni5   Ni    Ni4+2 0.000000 0.500000 0.880920 0.354617
Ni6   Ni    Ni4+2 0.000000 0.500000 0.119080 0.354617
Ni7   Ni    Ni4+2 1.000000 0.119080 0.500000 0.354617
Ni8   Ni    Ni4+2 0.000000 0.880920 0.500000 0.354617
Ni9   Ni    Ni4+2 0.880920 0.000000 0.500000 0.366653
Ni10  Ni    Ni4+2 0.119080 0.000000 0.500000 0.350702
Ni11  Ni    Ni4+2 0.500000 0.000000 0.119080 0.364576
Ni12  Ni    Ni4+2 0.500000 1.000000 0.880920 0.364576
N49   N     N_R   0.680134 0.678426 0.219082 0.305361
O1    O     O_R   0.698334 0.612794 0.247098 -0.211467
O2    O     O_R   0.610950 0.698268 0.222676 -0.212026
N50   N     N_R   0.344790 0.340086 0.840417 0.296129
O3    O     O_R   0.351284 0.346637 0.913398 -0.180047
O4    O     O_R   0.378619 0.388117 0.796527 -0.167028
N51   N     N_R   0.344790 0.659914 0.159582 0.296129
O5    O     O_R   0.351283 0.653363 0.086602 -0.180047
O6    O     O_R   0.378619 0.611884 0.203472 -0.167027
N52   N     N_R   0.680134 0.321574 0.780918 0.305362
O7    O     O_R   0.698334 0.387206 0.752902 -0.211467
O8    O     O_R   0.610950 0.301732 0.777324 -0.212027
N53   N     N_R   0.208878 0.196741 0.103288 0.266106
O9    O     O_R   0.236303 0.133634 0.077520 -0.328485
O10   O     O_R   0.144378 0.216765 0.077518 -0.320809
N54   N     N_R   0.774080 0.821568 0.942624 0.261117
O11   O     O_R   0.813773 0.789789 0.995276 -0.339674
O12   O     O_R   0.748618 0.889277 0.955522 -0.319217
N55   N     N_R   0.774080 0.178432 0.057376 0.261117
O13   O     O_R   0.813773 0.210211 0.004724 -0.339674
O14   O     O_R   0.748618 0.110723 0.044478 -0.319216
N56   N     N_R   0.208875 0.803256 0.896712 0.266105
O15   O     O_R   0.236308 0.866355 0.922492 -0.328499
O16   O     O_R   0.144367 0.783240 0.922471 -0.320800
N57   N     N_R   0.211495 0.640241 0.668162 0.305940
O17   O     O_R   0.204118 0.638790 0.594791 -0.159647
O18   O     O_R   0.242339 0.582553 0.701622 -0.237992
N58   N     N_R   0.940466 0.177141 0.235830 0.255230
O19   O     O_R   0.949062 0.106598 0.255389 -0.366246
O20   O     O_R   0.994921 0.210702 0.201285 -0.335636
N59   N     N_R   0.211496 0.331837 0.640241 0.305940
O21   O     O_R   0.204119 0.405207 0.638789 -0.159647
O22   O     O_R   0.242340 0.298375 0.582553 -0.237993
N60   N     N_R   0.940466 0.764169 0.177141 0.255230
O23   O     O_R   0.949061 0.744611 0.106598 -0.366246
O24   O     O_R   0.994921 0.798715 0.210702 -0.335633
N61   N     N_R   0.211496 0.359759 0.331837 0.305940
O25   O     O_R   0.242340 0.417446 0.298375 -0.237993
O26   O     O_R   0.204119 0.361211 0.405207 -0.159647
N62   N     N_R   0.940466 0.822859 0.764170 0.255230
O27   O     O_R   0.994921 0.789298 0.798715 -0.335630
O28   O     O_R   0.949061 0.893402 0.744611 -0.366245
N63   N     N_R   0.211496 0.668162 0.359759 0.305940
O29   O     O_R   0.242339 0.701623 0.417447 -0.237992
O30   O     O_R   0.204118 0.594792 0.361210 -0.159647
N64   N     N_R   0.940466 0.235830 0.822859 0.255230
O31   O     O_R   0.994921 0.201285 0.789297 -0.335636
O32   O     O_R   0.949062 0.255389 0.893402 -0.366246
N65   N     N_R   0.774080 0.057376 0.821568 0.261117
O33   O     O_R   0.813773 0.004724 0.789789 -0.339674
O34   O     O_R   0.748618 0.044478 0.889277 -0.319216
N66   N     N_R   0.208876 0.896712 0.196743 0.266106
O35   O     O_R   0.236306 0.922487 0.133640 -0.328490
O36   O     O_R   0.144372 0.922476 0.216762 -0.320804
N67   N     N_R   0.680134 0.219082 0.321574 0.305361
O37   O     O_R   0.698334 0.247098 0.387206 -0.211467
O38   O     O_R   0.610950 0.222676 0.301732 -0.212027
N68   N     N_R   0.344790 0.840418 0.659915 0.296129
O39   O     O_R   0.351283 0.913399 0.653364 -0.180049
O40   O     O_R   0.378619 0.796528 0.611884 -0.167027
N69   N     N_R   0.344790 0.159583 0.340086 0.296129
O41   O     O_R   0.351284 0.086602 0.346637 -0.180047
O42   O     O_R   0.378619 0.203473 0.388117 -0.167028
N70   N     N_R   0.680134 0.780918 0.678426 0.305362
O43   O     O_R   0.698334 0.752902 0.612794 -0.211467
O44   O     O_R   0.610950 0.777324 0.698268 -0.212027
N71   N     N_R   0.208879 0.103288 0.803259 0.266105
O45   O     O_R   0.236302 0.077521 0.866367 -0.328489
O46   O     O_R   0.144379 0.077516 0.783234 -0.320812
N72   N     N_R   0.774080 0.942624 0.178432 0.261117
O47   O     O_R   0.813773 0.995276 0.210211 -0.339674
O48   O     O_R   0.748618 0.955522 0.110723 -0.319216
Cl1   Cl    Cl    0.570386 0.729215 0.899364 -0.292038
Cl2   Cl    Cl    0.400843 0.273263 0.068835 -0.326092
Cl3   Cl    Cl    0.260075 0.638916 0.950317 -0.406641
Cl4   Cl    Cl    0.739130 0.363185 0.072347 -0.377313
Cl5   Cl    Cl    0.467630 0.252360 0.901448 -0.387482
Cl6   Cl    Cl    0.642038 0.733312 0.051012 -0.389785
Cl7   Cl    Cl    0.733657 0.436347 0.915810 -0.292540
Cl8   Cl    Cl    0.255039 0.534873 0.095334 -0.362073
Cl9   Cl    Cl    0.570386 0.270784 0.100636 -0.292037
Cl10  Cl    Cl    0.400843 0.726737 0.931165 -0.326090
Cl11  Cl    Cl    0.260075 0.361084 0.049683 -0.406637
Cl12  Cl    Cl    0.739130 0.636815 0.927653 -0.377314
Cl13  Cl    Cl    0.467630 0.747640 0.098553 -0.387483
Cl14  Cl    Cl    0.642038 0.266688 0.948988 -0.389785
Cl15  Cl    Cl    0.733657 0.563653 0.084190 -0.292540
Cl16  Cl    Cl    0.255039 0.465127 0.904666 -0.362074
Cl17  Cl    Cl    0.927936 0.637115 0.734672 -0.375500
Cl18  Cl    Cl    0.079719 0.429717 0.270542 -0.330131
Cl19  Cl    Cl    0.927935 0.265328 0.637115 -0.375498
Cl20  Cl    Cl    0.079719 0.729458 0.429718 -0.330131
Cl21  Cl    Cl    0.927935 0.362885 0.265327 -0.375500
Cl22  Cl    Cl    0.079719 0.570281 0.729458 -0.330131
Cl23  Cl    Cl    0.927936 0.734672 0.362885 -0.375500
Cl24  Cl    Cl    0.079719 0.270542 0.570283 -0.330130
Cl25  Cl    Cl    0.055178 0.623703 0.271758 -0.382329
Cl26  Cl    Cl    0.905448 0.449578 0.733076 -0.292766
Cl27  Cl    Cl    0.055178 0.271758 0.376297 -0.382328
Cl28  Cl    Cl    0.905448 0.733076 0.550422 -0.292766
Cl29  Cl    Cl    0.055178 0.376296 0.728242 -0.382329
Cl30  Cl    Cl    0.905448 0.550422 0.266924 -0.292766
Cl31  Cl    Cl    0.055178 0.728242 0.623704 -0.382330
Cl32  Cl    Cl    0.905448 0.266924 0.449578 -0.292766
Cl33  Cl    Cl    0.733657 0.915810 0.563653 -0.292540
Cl34  Cl    Cl    0.255039 0.095334 0.465127 -0.362073
Cl35  Cl    Cl    0.570386 0.899364 0.270784 -0.292038
Cl36  Cl    Cl    0.400843 0.068835 0.726737 -0.326091
Cl37  Cl    Cl    0.260075 0.950317 0.361084 -0.406639
Cl38  Cl    Cl    0.739130 0.072347 0.636815 -0.377314
Cl39  Cl    Cl    0.467630 0.901447 0.747641 -0.387481
Cl40  Cl    Cl    0.642038 0.051012 0.266688 -0.389785
Cl41  Cl    Cl    0.260075 0.049684 0.638915 -0.406636
Cl42  Cl    Cl    0.739130 0.927653 0.363185 -0.377314
Cl43  Cl    Cl    0.467630 0.098552 0.252360 -0.387483
Cl44  Cl    Cl    0.642037 0.948988 0.733312 -0.389784
Cl45  Cl    Cl    0.733657 0.084190 0.436347 -0.292540
Cl46  Cl    Cl    0.255039 0.904666 0.534873 -0.362073
Cl47  Cl    Cl    0.570386 0.100636 0.729216 -0.292037
Cl48  Cl    Cl    0.400843 0.931165 0.273263 -0.326091

loop_
_geom_bond_atom_site_label_1
_geom_bond_atom_site_label_2
_geom_bond_distance
_ccdc_geom_bond_type
C36   C89   1.381909 A    
C24   C61   1.402840 A    
N63   O29   1.302320 A    
C7    C55   1.380783 A    
C8    C56   1.418163 A    
C14   C33   1.450657 S    
C12   C49   1.414475 A    
N11   Ni3   1.916495 S    
C2    C29   1.488426 S    
C42   C109  1.386045 A    
C61   N61   1.436944 S    
C16   C35   1.486050 S    
N8    N25   1.325988 A    
C6    C25   1.450657 S    
N72   O48   1.300503 A    
C46   C105  1.374297 A    
C117  Cl45  1.754560 S    
C111  Cl39  1.756707 S    
N70   O43   1.301483 A    
C120  Cl48  1.733417 S    
N42   Ni9   1.916496 S    
C79   N7    1.344552 A    
C86   N14   1.350378 A    
C55   N55   1.444019 S    
C19   C63   1.419385 A    
N2    Ni2   1.946260 S    
N18   Ni6   1.935560 S    
C29   C108  1.389110 A    
C71   N71   1.452663 S    
C101  Cl29  1.738090 S    
C21   C48   1.468784 S    
N57   O18   1.302318 A    
N47   Ni12  1.946258 S    
N55   O13   1.301223 A    
C23   C46   1.468784 S    
C90   Cl18  1.753917 S    
C9    C52   1.417228 A    
C6    C54   1.411465 A    
C27   C75   1.386044 A    
C10   C51   1.420181 A    
N32   N45   1.325988 A    
N49   O2    1.301241 A    
N68   O40   1.300975 A    
C54   N54   1.444018 S    
N56   O15   1.301081 A    
C15   C54   1.380784 A    
C45   C99   1.387259 A    
C88   Cl16  1.750482 S    
N12   N17   1.325988 A    
C7    C28   1.474682 S    
N10   N39   1.309298 A    
C94   N22   1.342136 A    
N17   Ni5   1.935560 S    
N65   O33   1.301223 A    
C8    C57   1.419383 A    
C96   N24   1.342135 A    
C81   N9    1.349112 A    
N4    Ni4   1.916495 S    
N16   Ni3   1.916496 S    
N20   Ni8   1.935560 S    
N66   O36   1.301274 A    
N15   Ni4   1.916494 S    
C74   Cl2   1.733416 S    
C38   C119  1.358724 A    
C73   N1    1.349112 A    
N13   N48   1.309298 A    
N28   N33   1.325988 A    
C86   Cl14  1.739760 S    
C2    C71   1.413995 A    
C119  N47   1.349112 A    
C77   N5    1.329979 A    
C120  N48   1.345280 A    
C99   N27   1.363120 A    
N31   Ni8   1.935559 S    
C112  N40   1.350378 A    
C97   N25   1.363121 A    
C50   N50   1.422780 S    
N54   O11   1.301222 A    
C79   Cl7   1.754557 S    
C40   C88   1.378872 A    
N11   N18   1.325988 A    
N36   Ni12  1.946260 S    
C104  N32   1.345943 A    
C42   C92   1.380263 A    
C115  N43   1.329979 A    
C9    C65   1.411466 A    
C113  N41   1.341140 A    
N51   O5    1.298216 A    
N53   O9    1.301073 A    
C84   Cl12  1.749717 S    
N12   Ni4   1.916495 S    
C107  N35   1.349112 A    
C105  N33   1.344552 A    
C81   Cl9   1.753227 S    
N52   O7    1.301483 A    
C30   C107  1.358727 A    
N45   Ni9   1.916495 S    
C83   Cl11  1.721133 S    
N39   Ni12  1.946261 S    
C109  N37   1.341141 A    
N28   Ni8   1.935560 S    
C38   C86   1.357578 A    
C44   C96   1.380265 A    
C75   Cl3   1.721131 S    
N60   O24   1.301070 A    
N10   Ni1   1.946261 S    
N50   O3    1.298217 A    
C19   C66   1.418164 A    
N69   O41   1.298217 A    
C31   C98   1.366605 A    
C97   Cl25  1.738090 S    
N66   O35   1.301075 A    
C111  N39   1.329979 A    
C2    C50   1.420182 A    
C40   C101  1.387259 A    
C99   Cl27  1.738091 S    
C23   C62   1.419338 A    
C14   C67   1.417228 A    
C19   C42   1.486050 S    
C13   C56   1.413999 A    
C14   C55   1.411466 A    
C77   Cl5   1.756705 S    
C23   C70   1.414477 A    
N62   O27   1.301070 A    
C90   N18   1.342137 A    
C59   N59   1.436946 S    
N22   Ni5   1.935559 S    
C10   C66   1.413994 A    
C113  Cl41  1.721131 S    
N33   Ni9   1.916495 S    
C1    C72   1.411465 A    
C118  Cl46  1.750482 S    
C115  Cl43  1.756705 S    
C76   N4    1.339560 A    
C63   N63   1.436945 S    
N9    Ni2   1.946259 S    
C25   C116  1.357576 A    
C78   N6    1.350378 A    
C80   N8    1.345890 A    
N61   O25   1.302319 A    
C84   N12   1.339561 A    
C105  Cl33  1.754558 S    
C107  Cl35  1.753227 S    
C93   Cl21  1.754404 S    
C108  Cl36  1.733417 S    
C58   N58   1.440901 S    
C49   N49   1.447732 S    
C41   C91   1.381910 A    
C17   C71   1.418166 A    
N43   Ni11  1.946260 S    
N21   Ni6   1.935562 S    
C96   Cl24  1.753918 S    
N4    N21   1.325989 A    
C16   C61   1.419387 A    
C15   C36   1.474680 S    
C39   C102  1.366603 A    
N59   O22   1.302319 A    
C119  Cl47  1.753229 S    
C110  N38   1.339560 A    
N63   O30   1.301713 A    
C48   C117  1.374297 A    
N15   N30   1.325989 A    
C65   N65   1.444018 S    
C21   C58   1.419339 A    
C69   N69   1.422779 S    
C9    C38   1.450657 S    
N70   O44   1.301242 A    
C22   C47   1.509591 S    
C25   C73   1.358726 A    
N37   Ni10  1.916496 S    
C11   C40   1.509593 S    
C76   Cl4   1.749717 S    
C29   C77   1.367488 A    
N25   Ni6   1.935559 S    
N8    Ni3   1.916494 S    
N64   O31   1.301070 A    
N14   Ni2   1.946259 S    
C34   C82   1.389109 A    
N9    N40   1.309298 A    
C87   Cl15  1.754557 S    
C13   C68   1.420181 A    
C95   N23   1.343215 A    
N24   N41   1.325988 A    
C53   N53   1.452664 S    
N16   N29   1.325989 A    
C109  Cl37  1.721132 S    
N49   O1    1.301484 A    
N56   O16   1.301277 A    
C43   C114  1.388140 A    
C92   Cl20  1.753918 S    
N27   Ni7   1.935560 S    
C114  N42   1.339561 A    
C32   C80   1.378872 A    
C95   Cl23  1.754404 S    
N13   Ni1   1.946260 S    
C26   C115  1.367488 A    
C5    C69   1.420180 A    
N32   Ni7   1.935562 S    
C47   C118  1.378872 A    
C117  N45   1.344551 A    
N58   O19   1.300984 A    
C106  N34   1.345891 A    
C82   Cl10  1.733417 S    
C43   C95   1.381910 A    
N67   O37   1.301484 A    
N46   Ni10  1.916495 S    
N44   Ni12  1.946259 S    
N5    N36   1.309298 A    
C103  N31   1.363121 A    
N6    N35   1.309298 A    
N23   Ni8   1.935562 S    
C11   C59   1.402840 A    
C64   N64   1.440902 S    
N35   Ni11  1.946259 S    
N71   O46   1.301269 A    
C18   C72   1.380784 A    
C47   C103  1.387259 A    
C87   N15   1.344552 A    
C20   C65   1.380783 A    
C88   N16   1.345890 A    
N54   O12   1.300504 A    
C98   Cl26  1.754358 S    
C35   C83   1.386044 A    
N72   O47   1.301222 A    
C28   C93   1.381910 A    
C62   N62   1.440900 S    
N59   O21   1.301712 A    
C108  N36   1.345281 A    
C78   Cl6   1.739759 S    
C33   C112  1.357576 A    
C52   N52   1.447733 S    
N5    Ni2   1.946261 S    
C22   C68   1.404511 A    
C102  N30   1.345944 A    
C73   Cl1   1.753229 S    
C74   N2    1.345281 A    
C44   C113  1.386044 A    
C114  Cl42  1.749715 S    
C89   N17   1.343215 A    
N34   Ni10  1.916495 S    
C75   N3    1.341141 A    
C28   C76   1.388138 A    
C93   N21   1.343215 A    
C37   C85   1.367490 A    
C6    C70   1.417228 A    
N68   O39   1.298216 A    
C116  Cl44  1.739761 S    
N52   O8    1.301241 A    
C106  Cl34  1.750481 S    
C94   Cl22  1.753917 S    
C3    C63   1.402840 A    
N48   Ni11  1.946261 S    
C4    C64   1.419339 A    
C12   C39   1.468784 S    
C17   C44   1.486050 S    
C13   C34   1.488427 S    
N65   O34   1.300502 A    
C11   C50   1.404510 A    
C18   C43   1.474680 S    
C104  Cl32  1.754358 S    
N3    N22   1.325989 A    
C1    C30   1.450656 S    
C15   C62   1.389156 A    
N50   O4    1.300973 A    
C3    C32   1.509592 S    
C4    C31   1.468784 S    
C51   N51   1.422781 S    
N7    N26   1.325988 A    
C5    C26   1.488427 S    
C35   C90   1.380264 A    
N55   O14   1.300502 A    
C8    C27   1.486050 S    
C27   C94   1.380264 A    
C72   N72   1.444018 S    
N41   Ni10  1.916494 S    
N3    Ni3   1.916495 S    
C39   C87   1.374297 A    
C85   N13   1.329980 A    
N1    Ni1   1.946259 S    
C57   N57   1.436944 S    
C102  Cl30  1.754359 S    
N19   Ni7   1.935560 S    
C22   C57   1.402840 A    
N62   O28   1.300985 A    
C20   C41   1.474681 S    
N57   O17   1.301712 A    
C83   N11   1.341141 A    
C67   N67   1.447733 S    
C4    C52   1.414475 A    
C10   C37   1.488426 S    
C89   Cl17  1.754404 S    
C24   C45   1.509593 S    
C5    C53   1.413994 A    
N38   Ni9   1.916494 S    
C36   C84   1.388139 A    
C91   Cl19  1.754405 S    
C56   N56   1.452662 S    
C48   C104  1.366605 A    
N26   Ni5   1.935562 S    
C66   N66   1.452664 S    
C32   C97   1.387259 A    
N27   N34   1.325988 A    
C16   C53   1.418164 A    
C60   N60   1.440902 S    
C70   N70   1.447733 S    
N19   N38   1.325988 A    
N53   O10   1.301270 A    
C80   Cl8   1.750481 S    
C82   N10   1.345280 A    
N23   N42   1.325988 A    
C110  Cl38  1.749715 S    
C100  Cl28  1.754359 S    
C34   C111  1.367490 A    
N67   O38   1.301241 A    
C103  Cl31  1.738090 S    
C24   C69   1.404511 A    
C3    C51   1.404510 A    
C85   Cl13  1.756705 S    
N60   O23   1.300983 A    
C98   N26   1.345943 A    
N7    Ni4   1.916496 S    
N1    N44   1.309298 A    
C118  N46   1.345890 A    
N2    N43   1.309298 A    
N69   O42   1.300974 A    
C30   C78   1.357577 A    
C20   C64   1.389154 A    
N40   Ni11  1.946258 S    
N20   N37   1.325988 A    
C17   C59   1.419385 A    
C18   C60   1.389155 A    
N30   Ni6   1.935560 S    
N64   O32   1.300984 A    
C41   C110  1.388140 A    
C112  Cl40  1.739759 S    
C91   N19   1.343214 A    
C45   C106  1.378871 A    
C46   C100  1.366605 A    
C7    C58   1.389154 A    
C116  N44   1.350378 A    
N71   O45   1.301073 A    
C31   C79   1.374297 A    
N61   O26   1.301711 A    
N31   N46   1.325988 A    
N6    Ni1   1.946259 S    
C68   N68   1.422780 S    
C37   C120  1.389110 A    
C33   C81   1.358727 A    
C100  N28   1.345943 A    
N24   Ni7   1.935559 S    
C101  N29   1.363121 A    
C26   C74   1.389110 A    
N29   Ni5   1.935560 S    
N51   O6    1.300975 A    
C12   C60   1.419337 A    
N58   O20   1.301070 A    
N14   N47   1.309298 A    
C1    C49   1.417230 A    
C21   C67   1.414476 A    
C92   N20   1.342136 A    
