data_mof_unit_44313.cif
_audit_creation_date              2012-12-11T15:36:48-0500
_audit_creation_method            fapswitch 2.2
_symmetry_space_group_name_H-M    P1
_symmetry_Int_Tables_number       1
_space_group_crystal_system       triclinic
_cell_length_a                    8.209676
_cell_length_b                    17.362371
_cell_length_c                    19.011883
_cell_angle_alpha                 98.00106
_cell_angle_beta                  94.478073
_cell_angle_gamma                 97.424311
_cell_volume                      2648.30115805

loop_
_atom_site_label
_atom_site_type_symbol
_atom_type_description
_atom_site_fract_x
_atom_site_fract_y
_atom_site_fract_z
_atom_type_partial_charge
Ba1   Ba    Ba6+2 0.162080 0.538580 0.468810 1.644060
Ba2   Ba    Ba6+2 0.648090 0.461410 0.531130 1.669395
C1    C     C_3   0.373164 0.759034 0.219746 -0.369778
C2    C     C_3   0.667781 0.771278 0.436968 -0.039811
C3    C     C_2   0.723251 0.858179 0.455820 -0.106025
C4    C     C_3   0.935570 0.752734 0.315770 0.356251
C5    C     C_2   0.864765 0.885522 0.498302 0.003393
C6    C     C_2   0.952455 0.827305 0.532975 -0.123140
C7    C     C_1   0.887657 0.751776 0.525151 0.051377
C8    C     C_R   0.114496 0.137604 0.522938 -0.057573
C9    C     C_R   0.175837 0.217700 0.534944 0.009729
C10   C     C_R   0.924944 0.247708 0.474755 0.088387
C11   C     C_R   0.863028 0.166947 0.462202 -0.067255
C12   C     C_3   0.394717 0.722511 0.287489 0.370656
C13   C     C_R   0.955182 0.111278 0.487992 0.060929
C14   C     C_2   0.934354 0.971214 0.512409 -0.047421
C15   C     C_2   0.885402 0.026141 0.474094 -0.062244
C16   C     C_3   0.974523 0.834036 0.294829 -0.372716
C17   C     C_R   0.078804 0.272394 0.513324 -0.236890
C18   C     C_R   0.613294 0.535626 0.301884 -0.283698
C19   C     C_R   0.458409 0.493648 0.276839 0.073191
C20   C     C_R   0.402285 0.486134 0.204336 -0.124545
C21   C     C_R   0.502348 0.519377 0.156180 -0.018119
C22   C     C_R   0.661755 0.558513 0.181977 -0.137754
C23   C     C_3   0.561117 0.699341 0.643748 0.303751
C24   C     C_R   0.717666 0.565076 0.254407 0.007104
C25   C     C_R   0.478142 0.572218 0.039738 -0.077743
C26   C     C_R   0.425644 0.563228 0.966870 -0.079024
C27   C     C_R   0.337863 0.491705 0.931074 0.060329
C28   C     C_3   0.759922 0.368855 0.312315 0.310573
C29   C     C_R   0.301975 0.429759 0.970320 -0.078386
C30   C     C_R   0.354556 0.438755 0.043254 -0.076970
C31   C     C_R   0.443913 0.510030 0.078831 0.063761
C32   C     C_R   0.129393 0.441347 0.824369 -0.139956
C33   C     C_R   0.081676 0.433216 0.750857 -0.012403
C34   C     C_3   0.592049 0.788097 0.664845 -0.370230
C35   C     C_R   0.342783 0.507250 0.733734 0.033999
C36   C     C_R   0.391995 0.514908 0.806757 -0.121851
C37   C     C_R   0.286428 0.481549 0.852997 -0.001863
C38   C     C_R   0.190993 0.463938 0.705827 -0.270738
C39   C     C_3   0.732831 0.349265 0.231385 -0.395225
C40   C     C_3   0.044066 0.631083 0.687997 0.312754
C41   C     C_3   0.071275 0.650944 0.768913 -0.393175
C42   C     C_3   0.246316 0.300922 0.367028 0.315751
C43   C     C_3   0.220200 0.212583 0.342681 -0.392160
C44   C     C_3   0.893643 0.253321 0.742027 0.730282
C45   C     C_3   0.839192 0.202742 0.797582 -0.294509
C46   C     C_3   0.366282 0.287126 0.711277 0.378569
C47   C     C_3   0.365996 0.260271 0.784040 -0.359932
C48   C     C_2   0.743434 0.724375 0.488558 -0.243442
Cl1   Cl    Cl    0.904260 0.191005 0.660528 -0.728764
H1    H     H_    0.314051 0.665004 0.280593 0.095891
H2    H     H_    0.126943 0.319947 0.379056 0.001163
H3    H     H_    0.335315 0.314459 0.415635 0.055163
H4    H     H_    0.243168 0.768338 0.208552 0.150828
H5    H     H_    0.129072 0.197416 0.294804 0.123931
H6    H     H_    0.173375 0.181145 0.385399 0.038494
H7    H     H_    0.338925 0.192755 0.329332 0.126760
H8    H     H_    0.525055 0.711933 0.294130 -0.081469
H9    H     H_    0.407284 0.719328 0.173910 0.069548
H10   H     H_    0.679849 0.678713 0.632111 0.012391
H11   H     H_    0.472661 0.685494 0.594943 0.073688
H12   H     H_    0.623718 0.303443 0.215431 0.124067
H13   H     H_    0.684149 0.804306 0.712323 0.121660
H14   H     H_    0.639983 0.816136 0.620138 0.072384
H15   H     H_    0.475049 0.810233 0.677488 0.133570
H16   H     H_    0.454354 0.816364 0.225638 0.103665
H17   H     H_    0.919481 0.877336 0.330922 0.067161
H18   H     H_    0.018060 0.284671 0.762278 -0.131209
H19   H     H_    0.717197 0.167068 0.779104 0.142624
H20   H     H_    0.931080 0.162732 0.807177 0.085541
H21   H     H_    0.829329 0.240830 0.848652 0.046913
H22   H     H_    0.238630 0.296102 0.693819 -0.033655
H23   H     H_    0.711548 0.402227 0.207631 0.065757
H24   H     H_    0.449857 0.343810 0.716808 0.072414
H25   H     H_    0.321662 0.305010 0.822669 0.059493
H26   H     H_    0.492720 0.252501 0.803794 0.133055
H27   H     H_    0.992487 0.754352 0.371100 0.065163
H28   H     H_    0.282962 0.203727 0.780284 0.128181
H29   H     H_    0.788751 0.009420 0.430536 0.054539
H30   H     H_    0.067447 0.847805 0.566455 0.087223
H31   H     H_    0.192862 0.096656 0.539600 0.062206
H32   H     H_    0.030584 0.988857 0.556205 0.090410
H33   H     H_    0.651504 0.896615 0.430523 0.070088
H34   H     H_    0.843443 0.327369 0.210278 0.124489
H35   H     H_    0.743912 0.147516 0.431993 0.063272
H36   H     H_    0.685073 0.664794 0.489373 0.066012
H37   H     H_    0.127478 0.334253 0.522687 0.055786
H38   H     H_    0.511216 0.547879 0.827372 0.074908
H39   H     H_    0.799737 0.738594 0.313458 -0.062292
H40   H     H_    0.452427 0.612734 0.938683 0.061913
H41   H     H_    0.544181 0.628256 0.065731 0.060833
H42   H     H_    0.281426 0.453763 0.185613 0.085376
H43   H     H_    0.236223 0.373684 0.944289 0.058886
H44   H     H_    0.328212 0.389226 0.071454 0.059058
H45   H     H_    0.154401 0.609447 0.667501 0.001262
H46   H     H_    0.042540 0.418788 0.859142 0.060036
H47   H     H_    0.744570 0.580997 0.145615 0.076934
H48   H     H_    0.152666 0.459344 0.649447 0.060813
H49   H     H_    0.657665 0.540144 0.357622 0.068220
H50   H     H_    0.109991 0.852220 0.299225 0.147439
H51   H     H_    0.922342 0.833787 0.239100 0.110070
H52   H     H_    0.646938 0.387598 0.332771 0.007169
H53   H     H_    0.864469 0.417237 0.326761 0.068281
H54   H     H_    0.936224 0.584571 0.673690 0.072688
H55   H     H_    0.185407 0.693671 0.784852 0.128686
H56   H     H_    0.083564 0.597270 0.793031 0.068369
H57   H     H_    0.964426 0.676840 0.789666 0.124731
O1    O     O_2   0.166667 0.691630 0.546720 -0.453207
O2    O     O_2   0.756023 0.450865 0.745953 -0.492610
O3    O     O_3   0.775646 0.303514 0.731266 -0.575918
O4    O     O_3   0.893830 0.593690 0.541700 -0.500897
O5    O     O_3   0.426330 0.460710 0.414310 -0.490754
O6    O     O_2   0.638540 0.536570 0.671920 -0.457042
O7    O     O_3   0.496838 0.664885 0.700156 -0.642348
O8    O     O_2   0.518059 0.218833 0.533822 -0.445285
O9    O     O_3   0.422621 0.230161 0.662728 -0.548619
O10   O     O_3   0.390350 0.644650 0.417800 -0.485847
O11   O     O_2   0.353297 0.785154 0.486235 -0.478231
O12   O     O_3   0.306785 0.337654 0.311602 -0.635822
O13   O     O_3   0.016807 0.699137 0.660073 -0.634973
O14   O     O_3   0.352109 0.772843 0.345910 -0.596110
O15   O     O_2   0.171750 0.463380 0.328050 -0.465233
O16   O     O_3   0.965290 0.605410 0.380210 -0.487169
O17   O     O_2   0.050725 0.551714 0.251784 -0.488872
O18   O     O_3   0.998911 0.697577 0.268141 -0.599845
O19   O     O_2   0.643630 0.308330 0.453260 -0.461785
O20   O     O_3   0.916470 0.406310 0.458240 -0.503287
O21   O     O_3   0.419940 0.355340 0.582140 -0.495607
O22   O     O_3   0.794020 0.301492 0.339839 -0.642196
O23   O     O_3   0.383960 0.539280 0.585630 -0.479696
O24   O     O_3   0.845010 0.394580 0.619730 -0.443161
P1    P     P_3+3 0.992230 0.679190 0.566750 0.980800
P2    P     P_3+3 0.339610 0.439630 0.337240 0.981907
P3    P     P_3+3 0.932580 0.603845 0.287915 0.940836
P4    P     P_3+3 0.818060 0.320800 0.433200 0.986739
P5    P     P_3+3 0.868683 0.394217 0.712528 0.993087
P6    P     P_3+3 0.439492 0.745787 0.424070 0.959620
P7    P     P_3+3 0.463374 0.562748 0.675177 0.946189
P8    P     P_3+3 0.385398 0.253589 0.576901 1.023858

loop_
_geom_bond_atom_site_label_1
_geom_bond_atom_site_label_2
_ccdc_geom_bond_type
C6    C7    D    
C12   O14   S    
C32   C37   A    
C34   H13   S    
Ba1   O20   S    
O4    P1    S    
Ba2   O21   S    
C38   H48   S    
C5    C6    S    
C25   C31   A    
C12   H8    S    
C36   H38   S    
C43   H6    S    
C22   H47   S    
C26   C27   A    
C22   C24   A    
C32   C33   A    
C35   C38   A    
C8    C13   A    
O20   P4    S    
Ba1   O4    S    
C36   C37   A    
Ba2   O5    S    
C34   H15   S    
C4    H27   S    
C42   O12   S    
C16   H17   S    
C32   H46   S    
Ba1   Ba2   S    
C16   H51   S    
C44   H18   S    
C24   P3    S    
Ba1   O1    S    
C39   H23   S    
C1    H4    S    
C42   H2    S    
C12   H1    S    
C43   H5    S    
C14   C15   D    
C21   C31   S    
C11   H35   S    
Ba2   O24   S    
C21   C22   A    
C28   C39   S    
O10   P6    S    
Ba1   O10   S    
Ba2   O19   S    
O17   P3    D    
C19   C20   A    
C46   H24   S    
Ba1   O5    S    
Ba1   P1    S    
C4    C16   S    
C1    H16   S    
C43   H7    S    
O15   P2    D    
O1    P1    D    
C6    H30   S    
O19   P4    D    
C4    O18   S    
C17   H37   S    
C3    C5    D    
C3    H33   S    
C34   H14   S    
Ba2   O4    S    
C41   H56   S    
O24   P5    S    
C4    H39   S    
C44   Cl1   S    
C8    H31   S    
C15   H29   S    
Ba2   P4    S    
C47   H28   S    
C2    C48   S    
C41   H55   S    
C28   H52   S    
C9    P8    S    
Ba1   O15   S    
C45   H19   S    
C35   C36   A    
C29   C30   A    
C18   H49   S    
C9    C17   A    
C27   C37   S    
Ba2   O23   S    
C47   H25   S    
C25   H41   S    
C23   H10   S    
O6    P7    D    
C18   C19   A    
O14   P6    S    
C1    C12   S    
C48   H36   S    
C46   C47   S    
O7    P7    S    
O18   P3    S    
O5    P2    S    
C11   C13   A    
C10   P4    S    
C20   H42   S    
C40   H45   S    
O9    P8    S    
C40   C41   S    
C45   H20   S    
Ba1   P2    S    
C19   P2    S    
C42   C43   S    
O3    P5    S    
C13   C15   S    
C44   C45   S    
C5    C14   S    
O16   P3    S    
O11   P6    D    
C46   H22   S    
O2    P5    D    
O22   P4    S    
C7    C48   D    
C2    C3    S    
Ba1   O23   S    
C46   O9    S    
C23   H11   S    
C29   H43   S    
C39   H34   S    
C30   C31   A    
C23   O7    S    
C33   C38   A    
Ba1   O16   S    
C27   C29   A    
C28   O22   S    
C1    H9    S    
Ba2   O6    S    
O21   P8    S    
C18   C24   A    
C10   C17   A    
C47   H26   S    
C26   H40   S    
O12   P2    S    
C41   H57   S    
C14   H32   S    
C40   H54   S    
C45   H21   S    
O23   P7    S    
C8    C9    A    
C23   C34   S    
C2    P6    S    
C42   H3    S    
C30   H44   S    
C10   C11   A    
C35   P7    S    
C28   H53   S    
C25   C26   A    
C39   H12   S    
C20   C21   A    
O13   P1    S    
C44   O3    S    
C16   H50   S    
C33   P5    S    
C40   O13   S    
C7    P1    S    
O8    P8    D    
Ba2   O20   S    
