data_mof_unit_56698.cif
_audit_creation_date              2012-12-11T15:30:40-0500
_audit_creation_method            fapswitch 2.2
_symmetry_space_group_name_H-M    P1
_symmetry_Int_Tables_number       1
_space_group_crystal_system       triclinic
_cell_length_a                    6.951735
_cell_length_b                    20.472272
_cell_length_c                    24.364501
_cell_angle_alpha                 89.908759
_cell_angle_beta                  90.696927
_cell_angle_gamma                 89.629991
_cell_volume                      3467.16876463

loop_
_atom_site_label
_atom_site_type_symbol
_atom_type_description
_atom_site_fract_x
_atom_site_fract_y
_atom_site_fract_z
_atom_type_partial_charge
O1    O     O_R   0.507310 0.423620 0.460450 -0.535968
O2    O     O_R   0.170760 0.556060 0.437190 -0.536359
O3    O     O_R   0.004040 0.576380 0.539550 -0.536445
C1    C     C_R   0.338657 0.576079 0.421190 0.728924
O4    O     O_R   0.177350 0.422870 0.454070 -0.537727
O5    O     O_R   0.010680 0.442240 0.556560 -0.537042
C2    C     C_R   0.345770 0.398763 0.443599 0.698017
O6    O     O_R   0.500670 0.557760 0.443440 -0.534027
O7    O     O_3   0.340380 0.506510 0.533610 -0.367603
V1    V     V_3+5 0.064130 0.498790 0.493770 1.440368
O8    O     O_R   0.681170 0.443940 0.562810 -0.538963
C3    C     C_R   0.850967 0.423942 0.578681 0.725341
O9    O     O_R   0.674570 0.577130 0.545930 -0.536381
C4    C     C_R   0.843329 0.600780 0.557186 0.702452
V2    V     V_3+5 0.564560 0.501210 0.506230 1.439556
O10   O     O_3   0.838170 0.493490 0.466390 -0.364805
C5    C     C_R   0.969141 0.835743 0.913713 -0.118067
C6    C     C_R   0.849295 0.661803 0.589562 -0.044730
C7    C     C_R   0.940264 0.717957 0.912296 -0.152559
C8    C     C_R   0.965071 0.775736 0.942315 -0.044170
C9    C     C_R   0.946947 0.836122 0.856260 -0.247443
C10   C     C_R   0.900937 0.778625 0.826169 0.082451
C11   C     C_R   0.906813 0.718240 0.854966 0.054203
C12   C     C_R   0.858469 0.778995 0.768008 -0.023079
C13   C     C_R   0.866093 0.718790 0.738088 0.045924
C14   C     C_R   0.876604 0.660085 0.768363 -0.203374
C15   C     C_R   0.886252 0.659098 0.825682 -0.037172
C16   C     C_R   0.802671 0.836473 0.738743 -0.049760
C17   C     C_R   0.797562 0.836209 0.681326 -0.130773
C18   C     C_R   0.817060 0.778554 0.650761 0.062283
C19   C     C_R   0.851567 0.718601 0.679017 0.081398
C20   C     C_R   0.797223 0.779121 0.592348 0.013249
C21   C     C_R   0.816252 0.720946 0.562888 -0.231364
C22   C     C_R   0.869676 0.660601 0.646922 -0.200225
H1    H     H_    0.899503 0.613478 0.664893 0.102843
H2    H     H_    0.797479 0.721253 0.518600 0.097117
H3    H     H_    0.768566 0.882011 0.660855 0.217864
H4    H     H_    0.951730 0.672260 0.934324 0.186380
H5    H     H_    0.969796 0.882100 0.835696 0.116583
H6    H     H_    0.864144 0.613329 0.748548 0.147203
C23   C     C_3   0.802127 0.265640 0.807221 -0.336552
C24   C     C_3   0.136910 0.237064 0.777274 -0.119687
C25   C     C_3   0.117330 0.286179 0.727550 -0.128921
H7    H     H_    0.816182 0.364619 0.772437 0.208102
H8    H     H_    0.862530 0.291608 0.843568 0.185875
H9    H     H_    0.187781 0.263815 0.814419 0.122241
H10   H     H_    0.196254 0.266392 0.691656 0.116833
C26   C     C_1   0.864031 0.378740 0.624513 -0.178304
C27   C     C_3   0.936082 0.207738 0.791422 0.173518
C28   C     C_3   0.777663 0.314613 0.758729 -0.278340
C29   C     C_3   0.901499 0.293449 0.709102 0.189279
C30   C     C_3   0.830854 0.224751 0.691216 -0.347252
C31   C     C_3   0.847719 0.175106 0.739477 -0.266143
C32   C     C_1   0.878862 0.340550 0.662592 -0.087582
C33   C     C_1   0.949880 0.160124 0.837799 -0.074922
C34   C     C_1   0.961080 0.121588 0.875709 -0.155039
H11   H     H_    0.702544 0.156030 0.749015 0.174162
H12   H     H_    0.935649 0.132314 0.726860 0.207265
H13   H     H_    0.678349 0.227687 0.676882 0.169726
H14   H     H_    0.658495 0.247070 0.819131 0.140534
H15   H     H_    0.623506 0.316596 0.746037 0.131721
H16   H     H_    0.917010 0.206832 0.656039 0.171282
C35   C     C_3   0.524792 0.678774 0.245624 -0.115702
C36   C     C_3   0.189629 0.725883 0.264595 -0.379439
C37   C     C_3   0.216842 0.772460 0.214376 -0.124067
H17   H     H_    0.496118 0.707272 0.157569 0.186970
H18   H     H_    0.099110 0.749245 0.296514 0.161771
H19   H     H_    0.109685 0.681647 0.251508 0.175120
H20   H     H_    0.179354 0.743626 0.177027 0.143201
C38   C     C_1   0.475937 0.877919 0.124200 -0.091509
C39   C     C_3   0.387368 0.706725 0.290624 0.190754
C40   C     C_3   0.546576 0.728547 0.197200 -0.425359
C41   C     C_3   0.433414 0.792845 0.208831 0.127582
C42   C     C_3   0.517012 0.819868 0.264480 -0.132466
C43   C     C_3   0.478352 0.770927 0.312480 -0.433286
C44   C     C_1   0.460068 0.839603 0.162135 0.022027
C45   C     C_1   0.363094 0.659512 0.337044 -0.054040
C46   C     C_1   0.348131 0.621332 0.375148 -0.168424
H21   H     H_    0.616639 0.759686 0.334141 0.148222
H22   H     H_    0.381954 0.792757 0.343759 0.154309
H23   H     H_    0.675981 0.822858 0.260251 0.165652
H24   H     H_    0.669702 0.672712 0.265212 0.110578
H25   H     H_    0.701875 0.739430 0.191646 0.162443
C47   C     C_R   0.473662 0.162444 0.088109 -0.064715
C48   C     C_R   0.350482 0.338151 0.411170 -0.047968
C49   C     C_R   0.534174 0.279049 0.092040 -0.006100
C50   C     C_R   0.526295 0.220427 0.062682 -0.198892
C51   C     C_R   0.428088 0.162313 0.143919 -0.200995
C52   C     C_R   0.439835 0.220198 0.176056 0.081653
C53   C     C_R   0.497593 0.278844 0.149399 0.058205
C54   C     C_R   0.400339 0.221355 0.233909 0.062201
C55   C     C_R   0.425288 0.280493 0.264658 0.053134
C56   C     C_R   0.491417 0.336146 0.236831 -0.180033
C57   C     C_R   0.526194 0.335270 0.180933 -0.146409
C58   C     C_R   0.336321 0.165319 0.262069 -0.168308
C59   C     C_R   0.299057 0.166622 0.317870 -0.182468
C60   C     C_R   0.320967 0.223808 0.348138 0.127830
C61   C     C_R   0.384154 0.281905 0.322325 0.086159
C62   C     C_R   0.276217 0.223317 0.404151 -0.147740
C63   C     C_R   0.289158 0.280112 0.435192 -0.164666
C64   C     C_R   0.399074 0.339134 0.355339 -0.206782
H26   H     H_    0.581713 0.379564 0.163102 0.171365
H27   H     H_    0.441138 0.385670 0.338837 0.106794
H28   H     H_    0.249114 0.278994 0.478027 0.111129
H29   H     H_    0.249811 0.122277 0.337470 0.140344
H30   H     H_    0.558687 0.219980 0.019236 0.133089
H31   H     H_    0.391199 0.115648 0.161127 0.110485
H32   H     H_    0.520000 0.381723 0.257224 0.144986
H33   H     H_    0.311067 0.119246 0.242169 0.144092
H34   H     H_    0.227420 0.178988 0.423825 0.126059
O11   O     O_R   0.323590 0.942280 0.056590 -0.513692
O12   O     O_R   0.647030 0.077140 0.045940 -0.539922
O13   O     O_R   0.813570 0.057750 0.943430 -0.539619
C65   C     C_R   0.478627 0.101288 0.056393 0.697188
O14   O     O_R   0.653510 0.943950 0.062820 -0.533832
O15   O     O_R   0.820100 0.923600 0.960440 -0.538675
C66   C     C_R   0.485644 0.923629 0.078565 0.742649
O16   O     O_R   0.317060 0.076430 0.039590 -0.539624
O17   O     O_3   0.483830 0.993520 0.966410 -0.376130
V3    V     V_3+5 0.760140 0.001200 0.006230 1.487175
O18   O     O_R   0.149560 0.922820 0.954030 -0.528178
C67   C     C_R   0.980564 0.898736 0.943380 0.764617
O19   O     O_R   0.143080 0.056020 0.937150 -0.543578
C68   C     C_R   0.973331 0.076088 0.921339 0.715216
V4    V     V_3+5 0.259690 0.998730 0.993720 1.492828
O20   O     O_3   0.986120 0.006480 0.033580 -0.359861
C69   C     C_2   0.872987 0.594522 0.853329 0.779301
O21   O     O_2   0.964234 0.547856 0.835850 -0.526691
O22   O     O_R   0.749667 0.586314 0.897705 -0.652620
H35   H     H_    0.751654 0.539986 0.912482 0.320831
C70   C     C_2   0.748655 0.838109 0.559380 0.362572
H36   H     H_    0.815693 0.845070 0.519803 0.057029
O23   O     O_2   0.623911 0.876501 0.573635 -0.516269
C71   C     C_2   0.287754 0.184765 0.767446 0.313843
H37   H     H_    0.385142 0.170841 0.800643 0.052103
O24   O     O_2   0.297492 0.156046 0.723662 -0.521459
C72   C     C_2   0.211067 0.351196 0.739988 0.338758
H38   H     H_    0.306912 0.372637 0.710190 0.050385
O25   O     O_2   0.177411 0.380918 0.782249 -0.500121
C73   C     C_2   0.464760 0.612164 0.224769 0.778200
O26   O     O_2   0.563733 0.564216 0.235855 -0.560146
O27   O     O_R   0.298670 0.605391 0.192391 -0.665509
H39   H     H_    0.275046 0.558468 0.181060 0.312386
C74   C     C_2   0.075986 0.829251 0.214151 0.724143
O28   O     O_2   0.049911 0.861657 0.255509 -0.570006
O29   O     O_R   0.972998 0.843916 0.166005 -0.654576
H40   H     H_    0.883896 0.882893 0.170433 0.311963
C75   C     C_2   0.451650 0.888392 0.278283 0.426314
H41   H     H_    0.345529 0.897022 0.309769 0.100018
O30   O     O_2   0.518022 0.935211 0.254047 -0.531257
C76   C     C_2   0.577733 0.339454 0.060817 0.764238
O31   O     O_2   0.702150 0.338531 0.025745 -0.544580
O32   O     O_R   0.470822 0.396514 0.069571 -0.655149
H42   H     H_    0.512793 0.433961 0.045308 0.317328
C77   C     C_2   0.989232 0.770828 0.003240 0.749518
O33   O     O_2   0.058618 0.815710 0.029771 -0.550705
O34   O     O_R   0.933898 0.713840 0.030455 -0.651140
H43   H     H_    0.957178 0.716171 0.071581 0.311217
C78   C     C_2   0.714343 0.894047 0.766128 0.384110
H44   H     H_    0.645103 0.888495 0.805523 0.053603
O35   O     O_2   0.714837 0.948024 0.744679 -0.512902

loop_
_geom_bond_atom_site_label_1
_geom_bond_atom_site_label_2
_ccdc_geom_bond_type
C13   C19   A    
C18   C20   A    
C59   H29   S    
C27   C31   S    
C56   C57   A    
C8    C77   S    
C77   O34   S    
C41   C42   S    
C4    C6    S    
O2    C1    A    
C7    C8    A    
C47   C50   A    
C1    O6    A    
C14   H6    S    
C21   H2    S    
O12   C65   A    
C60   C61   A    
C55   C61   A    
O19   C68   A    
C45   C46   T    
C26   C32   T    
C72   O25   D    
C14   C15   A    
O34   H43   S    
O15   C67   A    
C36   H19   S    
C42   C75   S    
C16   C17   A    
C30   H13   S    
C73   O27   S    
O22   H35   S    
C56   H32   S    
O5    C3    A    
C18   C19   A    
V3    O20   S    
O19   V4    S    
C38   C66   S    
V2    O10   S    
C63   H28   S    
C5    C8    A    
C37   C41   S    
C22   H1    S    
C24   H9    S    
C36   C39   S    
C15   C69   S    
H17   C40   S    
C58   C59   A    
O14   C66   A    
O11   V4    S    
C76   O31   D    
C78   O35   D    
O1    V2    S    
O16   V4    S    
C11   C15   A    
C52   C54   A    
C43   H22   S    
C3    C26   S    
C51   C52   A    
C64   H27   S    
O9    C4    A    
O8    V2    S    
C23   C27   S    
C60   C62   A    
C53   C57   A    
C10   C11   A    
C42   C43   S    
C35   H24   S    
C29   C30   S    
C36   H18   S    
C12   C16   A    
C73   O26   D    
C74   O29   S    
C49   C53   A    
C52   C53   A    
C54   C55   A    
O12   V3    S    
C51   H31   S    
C31   H11   S    
C49   C50   A    
C74   O28   D    
C71   O24   D    
C13   C14   A    
C27   C33   S    
C62   H34   S    
C16   C78   S    
C5    C9    A    
O15   V3    S    
C7    C11   A    
C69   O22   S    
O18   V4    S    
C17   C18   A    
C7    H4    S    
O13   V3    S    
C78   H44   S    
C9    H5    S    
C31   H12   S    
C59   C60   A    
C33   C34   T    
C28   C29   S    
C19   C22   A    
C12   C13   A    
C6    C22   A    
O13   C68   A    
O18   C67   A    
C65   O16   A    
O3    C4    A    
O17   V4    S    
C35   C39   S    
O6    V2    S    
O9    V2    S    
C58   H33   S    
V4    O20   S    
C41   C44   S    
C10   C12   A    
C24   C25   S    
C38   C44   T    
C69   O21   D    
O2    V1    S    
C34   C68   S    
C23   C28   S    
C39   C45   S    
C48   C64   A    
C30   C31   S    
O4    C2    A    
O29   H40   S    
O7    V1    S    
H7    C28   S    
C37   C74   S    
C47   C65   S    
O1    C2    A    
C47   C51   A    
C23   H14   S    
C75   O30   D    
C40   C41   S    
C70   O23   D    
O5    V1    S    
O17   V3    S    
C71   H37   S    
C1    C46   S    
C61   C64   A    
C72   H38   S    
C62   C63   A    
C24   C71   S    
O11   C66   A    
C29   C32   S    
C20   C21   A    
O32   H42   S    
O4    V1    S    
C48   C63   A    
V1    O10   S    
C49   C76   S    
C36   C37   S    
C39   C43   S    
C25   C29   S    
C2    C48   S    
C50   H30   S    
C43   H21   S    
C37   H20   S    
C55   C56   A    
C25   C72   S    
C75   H41   S    
C76   O32   S    
O7    V2    S    
C6    C21   A    
C40   H25   S    
C24   C27   S    
C54   C58   A    
C5    C67   S    
C35   C40   S    
C57   H26   S    
O14   V3    S    
C17   H3    S    
C77   O33   D    
O3    V1    S    
C28   H15   S    
C23   H8    S    
O27   H39   S    
C30   H16   S    
C42   H23   S    
C35   C73   S    
C9    C10   A    
C25   H10   S    
C20   C70   S    
C70   H36   S    
O8    C3    A    
