data_mof_unit_64971.cif
_audit_creation_date              2012-12-10T19:25:17-0500
_audit_creation_method            fapswitch 2.2
_symmetry_space_group_name_H-M    P1
_symmetry_Int_Tables_number       1
_space_group_crystal_system       triclinic
_cell_length_a                    18.829675
_cell_length_b                    18.711672
_cell_length_c                    18.649892
_cell_angle_alpha                 109.206406
_cell_angle_beta                  109.146321
_cell_angle_gamma                 109.654829
_cell_volume                      5083.46531933

loop_
_atom_site_label
_atom_site_type_symbol
_atom_type_description
_atom_site_fract_x
_atom_site_fract_y
_atom_site_fract_z
_atom_type_partial_charge
C1    C     C_R   0.880535 0.379879 0.000650 0.879808
C2    C     C_R   0.813782 0.312865 0.998575 -0.085990
C3    C     C_R   0.821220 0.240681 0.998284 -0.220490
C4    C     C_R   0.756685 0.176075 0.997757 -0.220559
C5    C     C_R   0.684043 0.182918 0.994785 -0.093079
C6    C     C_R   0.672176 0.248547 0.982809 0.144065
C7    C     C_3   0.650708 0.310690 0.032655 -0.507276
C8    C     C_3   0.722584 0.382600 0.036140 -0.470809
C9    C     C_R   0.170937 0.475460 0.239198 0.067871
C10   C     C_R   0.187322 0.504091 0.184078 -0.100190
C11   C     C_R   0.271118 0.534234 0.192971 0.168615
C12   C     C_R   0.884367 0.503435 0.879963 0.935860
C13   C     C_R   0.334769 0.533238 0.257776 -0.222796
C14   C     C_R   0.314210 0.501445 0.311334 -0.161953
C15   C     C_R   0.231245 0.472975 0.299334 0.137276
C16   C     C_3   0.172016 0.434827 0.329750 -0.445773
C17   C     C_3   0.102363 0.437041 0.259801 -0.505014
C18   C     C_R   0.251603 0.760242 0.074728 0.081843
C19   C     C_R   0.185038 0.684581 0.998399 -0.088338
C20   C     C_R   0.184309 0.672121 0.919369 -0.215097
C21   C     C_R   0.249004 0.737000 0.919415 -0.214335
C22   C     C_R   0.315656 0.812583 0.998805 -0.119220
C23   C     C_R   0.119827 0.619847 0.999674 0.878408
C24   C     C_R   0.315591 0.820609 0.075065 0.112089
C25   C     C_3   0.359146 0.880278 0.171111 0.008045
C26   C     C_3   0.285724 0.810324 0.170610 -0.526138
C27   C     C_R   0.498121 0.380099 0.377958 0.902100
C28   C     C_R   0.615873 0.503668 0.621053 0.911422
C29   C     C_R   0.496060 0.619717 0.616197 0.881204
C30   C     C_R   0.377910 0.500114 0.377163 0.897657
C31   C     C_R   0.500518 0.879948 0.880464 0.880612
C32   C     C_R   0.619767 0.120200 0.999564 0.878585
C33   C     C_R   0.499076 0.119635 0.119870 0.890631
C34   C     C_R   0.119477 0.500730 0.119121 0.905061
C35   C     C_R   0.380414 0.879979 0.000255 0.882664
C36   C     C_R   0.495209 0.318429 0.240446 0.091048
C37   C     C_R   0.503274 0.315610 0.316203 -0.104427
C38   C     C_R   0.523678 0.255122 0.333924 0.168025
C39   C     C_R   0.523801 0.191252 0.268733 -0.219223
C40   C     C_R   0.502501 0.187457 0.187497 -0.149290
C41   C     C_R   0.493789 0.254487 0.176301 0.115237
C42   C     C_3   0.424560 0.251313 0.104982 -0.444388
C43   C     C_3   0.426387 0.322416 0.176042 -0.511887
C44   C     C_R   0.498252 0.757141 0.679863 0.129148
C45   C     C_2   0.762260 0.576330 0.742395 -0.178717
C46   C     C_R   0.497713 0.684583 0.683881 -0.095207
C47   C     C_R   0.498733 0.676331 0.756544 -0.216225
C48   C     C_R   0.501070 0.741731 0.822998 -0.219883
C49   C     C_R   0.499667 0.813551 0.814995 -0.098483
C50   C     C_R   0.497443 0.818097 0.741880 0.131233
C51   C     C_3   0.496006 0.871317 0.697642 -0.488011
C52   C     C_3   0.496145 0.800749 0.625897 -0.491711
C53   C     C_2   0.677677 0.516503 0.702666 -0.003389
C54   C     C_2   0.828315 0.583126 0.817438 0.215449
C55   C     C_2   0.826412 0.508664 0.811002 -0.349178
C56   C     C_R   0.736997 0.313599 0.985691 0.109328
H1    H     H_    0.784563 0.618641 0.717017 0.149768
H2    H     H_    0.778402 0.430068 0.103215 0.215648
H3    H     H_    0.399305 0.555974 0.265559 0.168932
H4    H     H_    0.158380 0.367696 0.315789 0.206143
H5    H     H_    0.192234 0.480605 0.397738 0.199097
H6    H     H_    0.048857 0.371235 0.205160 0.200310
H7    H     H_    0.081961 0.483800 0.287240 0.212302
H8    H     H_    0.133309 0.613751 0.858131 0.161030
H9    H     H_    0.247333 0.728146 0.858356 0.156723
H10   H     H_    0.357841 0.942413 0.187084 0.117605
H11   H     H_    0.305899 0.776589 0.205352 0.204756
H12   H     H_    0.241634 0.832189 0.185266 0.191918
H13   H     H_    0.536173 0.142141 0.279620 0.166016
H14   H     H_    0.448346 0.273703 0.064860 0.196676
H15   H     H_    0.362637 0.188268 0.067356 0.211456
H16   H     H_    0.451400 0.385894 0.177073 0.208001
H17   H     H_    0.365534 0.300823 0.179634 0.201685
H18   H     H_    0.498913 0.620631 0.762326 0.157122
H19   H     H_    0.502482 0.735621 0.879170 0.158597
H20   H     H_    0.434653 0.873446 0.675579 0.211724
H21   H     H_    0.556547 0.935594 0.735378 0.201435
H22   H     H_    0.434663 0.761769 0.562548 0.200651
H23   H     H_    0.556546 0.824357 0.621814 0.212597
H24   H     H_    0.781857 0.448039 0.749229 0.145872
H25   H     H_    0.878493 0.236659 0.002856 0.154045
H26   H     H_    0.764386 0.122494 0.001931 0.159983
H27   H     H_    0.585036 0.298571 0.992285 0.204663
H28   H     H_    0.664561 0.316414 0.097659 0.200687
H29   H     H_    0.698410 0.412139 0.997948 0.200326
O1    O     O_R   0.908050 0.460100 0.051390 -0.625119
O2    O     O_R   0.445680 0.356610 0.405790 -0.622177
O3    O     O_R   0.639540 0.551640 0.587850 -0.638292
O4    O     O_R   0.536110 0.448210 0.587860 -0.614625
O5    O     O_R   0.547900 0.643240 0.587840 -0.622366
O6    O     O_R   0.444470 0.539800 0.587850 -0.628131
O7    O     O_R   0.457480 0.551640 0.405780 -0.630319
O8    O     O_R   0.354050 0.448210 0.405780 -0.622453
O9    O     O_R   0.449170 0.908380 0.857510 -0.623905
O10   O     O_R   0.551950 0.908320 0.960240 -0.626158
O11   O     O_R   0.540220 0.091590 0.948580 -0.622909
O12   O     O_R   0.908730 0.356680 0.948620 -0.621838
O13   O     O_R   0.643000 0.091540 0.051310 -0.621558
O14   O     O_R   0.448050 0.091580 0.039660 -0.625197
O15   O     O_R   0.550830 0.091520 0.142390 -0.621717
O16   O     O_R   0.357000 0.908370 0.948590 -0.624756
O17   O     O_R   0.459780 0.908310 0.051320 -0.611654
O18   O     O_R   0.908630 0.551710 0.960350 -0.613238
O19   O     O_R   0.909310 0.448290 0.857570 -0.625686
O20   O     O_R   0.091270 0.643320 0.051380 -0.623945
O21   O     O_R   0.091950 0.539900 0.948610 -0.627158
O22   O     O_R   0.090690 0.551710 0.142430 -0.625353
O23   O     O_R   0.091370 0.448290 0.039650 -0.623979
O24   O     O_R   0.549120 0.460050 0.405790 -0.621278
Zn1   Zn    Zn3+2 0.999540 0.569060 0.068630 0.937859
Zn2   Zn    Zn3+2 0.000460 0.430940 0.931370 0.946662
Zn3   Zn    Zn3+2 0.565860 0.568990 0.496810 0.941884
Zn4   Zn    Zn3+2 0.427730 0.430860 0.496820 0.939684
Zn5   Zn    Zn3+2 0.431370 0.999990 0.931350 0.941982
Zn6   Zn    Zn3+2 0.568630 0.999910 0.068550 0.956800
C57   C     C_3   0.293370 0.568048 0.135790 -0.904130
H30   H     H_    0.279689 0.622294 0.141341 0.225600
H31   H     H_    0.362907 0.592889 0.154826 0.231171
H32   H     H_    0.254021 0.514949 0.066743 0.259356
N1    N     N_2   0.445324 0.894290 0.221027 -0.275481
H33   H     H_    0.470814 0.930012 0.287511 0.224523
C58   C     C_3   0.463573 0.823247 0.195713 -0.714202
H34   H     H_    0.533406 0.847968 0.237596 0.217884
H35   H     H_    0.449769 0.797019 0.127041 0.253751
H36   H     H_    0.425259 0.770238 0.204332 0.224234
C59   C     C_3   0.640545 0.467025 0.743825 -0.878181
H37   H     H_    0.581977 0.470402 0.740976 0.243300
H38   H     H_    0.621986 0.397498 0.707530 0.237209
H39   H     H_    0.685508 0.494808 0.813990 0.250663
C60   C     C_3   0.543654 0.256886 0.419872 -0.889253
H40   H     H_    0.597916 0.322293 0.474318 0.231947
H41   H     H_    0.485603 0.242315 0.428163 0.255929
H42   H     H_    0.562936 0.207729 0.423703 0.229527
C61   C     C_3   0.897654 0.672023 0.894463 -0.843823
H43   H     H_    0.891198 0.724199 0.881938 0.224848
H44   H     H_    0.891620 0.679137 0.953314 0.252818
H45   H     H_    0.962848 0.681326 0.906880 0.229272

loop_
_geom_bond_atom_site_label_1
_geom_bond_atom_site_label_2
_ccdc_geom_bond_type
C43   H17   S    
C7    H27   S    
O20   Zn1   S    
C43   H16   S    
C41   C42   S    
C19   C23   S    
C19   C20   A    
C18   C26   S    
O5    Zn3   S    
C35   O17   A    
C8    C56   S    
C61   H45   S    
O9    Zn5   S    
C7    C8    S    
C22   C35   S    
C45   H1    S    
C59   H37   S    
O18   Zn1   S    
C18   C24   A    
C34   O22   A    
C38   C60   S    
C36   C37   A    
O1    Zn1   S    
C31   C49   S    
C12   O19   A    
C30   O8    A    
C38   C39   A    
O12   Zn2   S    
C15   C16   S    
C23   O20   A    
C42   H14   S    
C57   H30   S    
C18   C19   A    
C16   H4    S    
O17   Zn6   S    
C8    H2    S    
C54   C55   D    
O10   Zn6   S    
C16   C17   S    
C28   O3    A    
C28   O4    A    
C52   H23   S    
C9    C10   A    
C5    C32   S    
C44   C52   S    
C7    H28   S    
C45   C53   D    
C21   C22   A    
O16   Zn5   S    
C48   H19   S    
O11   Zn5   S    
C36   C41   A    
O15   Zn6   S    
C14   C30   S    
C52   H22   S    
C29   O5    A    
N1    C58   S    
O21   Zn2   S    
O4    Zn4   S    
C33   C40   S    
C51   C52   S    
C51   H20   S    
C12   O18   A    
C30   O7    A    
C10   C11   A    
O24   Zn3   S    
C1    O12   A    
C39   C40   A    
O7    Zn3   S    
C61   H44   S    
C44   C46   A    
C59   H39   S    
C25   C26   S    
C23   O21   A    
C8    H29   S    
O6    Zn4   S    
C33   O14   A    
C20   H8    S    
C60   H41   S    
C32   O13   A    
C51   H21   S    
C3    H25   S    
C37   C38   A    
C17   H6    S    
C47   C48   A    
C50   C51   S    
C39   H13   S    
C10   C34   S    
O8    Zn4   S    
C24   C25   S    
C27   O2    A    
C11   C57   S    
C6    C7    S    
C9    C17   S    
C48   C49   A    
C32   O11   A    
C45   C54   S    
O22   Zn1   S    
C22   C24   A    
C60   H42   S    
C16   H5    S    
C26   H11   S    
C58   H35   S    
C3    C4    A    
C25   N1    S    
C29   O6    A    
O14   Zn5   S    
N1    H33   S    
C44   C50   A    
C1    O1    A    
C46   C47   A    
C40   C41   A    
C59   H38   S    
C21   H9    S    
C25   H10   S    
C47   H18   S    
C6    C56   A    
C4    C5    A    
C35   O16   A    
O19   Zn2   S    
C28   C53   S    
O23   Zn2   S    
C61   H43   S    
C13   H3    S    
C31   O9    A    
C57   H32   S    
C29   C46   S    
C33   O15   A    
C26   H12   S    
C58   H36   S    
C2    C3    A    
C9    C15   A    
C34   O23   A    
C2    C56   A    
C17   H7    S    
C55   H24   S    
C11   C13   A    
O13   Zn6   S    
C5    C6    A    
C27   C37   S    
C31   O10   A    
C1    C2    S    
C42   H15   S    
C57   H31   S    
C60   H40   S    
O2    Zn4   S    
C12   C55   S    
C53   C59   S    
O3    Zn3   S    
C4    H26   S    
C20   C21   A    
C27   O24   A    
C49   C50   A    
C42   C43   S    
C14   C15   A    
C36   C43   S    
C58   H34   S    
C13   C14   A    
C54   C61   S    
