data_mof_unit_19646.cif
_audit_creation_date              2012-12-11T20:21:49-0500
_audit_creation_method            fapswitch 2.2
_symmetry_space_group_name_H-M    P1
_symmetry_Int_Tables_number       1
_space_group_crystal_system       triclinic
_cell_length_a                    8.202985
_cell_length_b                    17.32548
_cell_length_c                    26.983969
_cell_angle_alpha                 99.086771
_cell_angle_beta                  92.364106
_cell_angle_gamma                 82.394309
_cell_volume                      3752.72507797

loop_
_atom_site_label
_atom_site_type_symbol
_atom_type_description
_atom_site_fract_x
_atom_site_fract_y
_atom_site_fract_z
_atom_type_partial_charge
Ba1   Ba    Ba6+2 0.860160 0.462360 0.521850 1.666119
Ba2   Ba    Ba6+2 0.329680 0.537570 0.478140 1.648898
C1    C     C_3   0.623171 0.194275 0.657788 -0.354978
C2    C     C_3   0.613627 0.272186 0.637890 0.376922
C3    C     C_3   0.495906 0.663643 0.633358 0.300587
C4    C     C_3   0.484531 0.693024 0.689443 -0.374848
C5    C     C_3   0.048239 0.701583 0.345992 0.356415
C6    C     C_3   0.064014 0.721164 0.293542 -0.284546
C7    C     C_3   0.502866 0.748165 0.370323 0.340157
C8    C     C_3   0.456284 0.827645 0.352935 -0.315214
C9    C     C_R   0.017329 0.441648 0.176285 0.598576
C10   C     C_R   0.908182 0.577759 0.180612 0.572819
C11   C     C_2   0.756434 0.551892 0.274493 -0.081840
C12   C     C_3   0.160782 0.245947 0.647267 0.318279
C13   C     C_3   0.736769 0.577473 0.330167 -0.046702
C14   C     C_1   0.985337 0.486739 0.342318 0.032125
C15   C     C_2   0.025764 0.482674 0.294336 -0.107251
C16   C     C_2   0.903326 0.514796 0.256827 0.192024
C17   C     C_R   0.021814 0.506022 0.101707 -0.079549
C18   C     C_R   0.057928 0.438475 0.125204 -0.036694
C19   C     C_R   0.133207 0.368949 0.097043 -0.059101
C20   C     C_R   0.946163 0.575883 0.129831 -0.024518
C21   C     C_2   0.847646 0.527194 0.361346 -0.293720
C22   C     C_2   0.354371 0.482766 0.640357 -0.280946
C23   C     C_3   0.085487 0.228110 0.694057 -0.342147
C24   C     C_R   0.176713 0.430929 0.970460 0.019763
C25   C     C_R   0.061330 0.570882 0.975745 0.020442
C26   C     C_R   0.138478 0.500016 0.947643 0.050064
C27   C     C_R   0.253306 0.362092 0.940539 -0.098253
C28   C     C_R   0.290958 0.361180 0.890490 -0.061905
C29   C     C_R   0.254522 0.428757 0.867622 -0.034238
C30   C     C_R   0.177920 0.498329 0.896120 -0.078232
C31   C     C_R   0.140879 0.566328 0.873088 -0.033238
C32   C     C_R   0.181844 0.564258 0.822435 0.585771
C33   C     C_R   0.293074 0.428150 0.816791 0.591221
C34   C     C_3   0.215306 0.297544 0.411373 0.301063
C35   C     C_2   0.458979 0.479450 0.728205 -0.078418
C36   C     C_3   0.502942 0.487581 0.675238 -0.068691
C37   C     C_1   0.209414 0.516195 0.657367 0.048832
C38   C     C_2   0.169604 0.516440 0.704661 -0.084657
C39   C     C_2   0.300036 0.495338 0.742799 0.215274
C40   C     C_R   0.137522 0.432845 0.022006 0.019558
C41   C     C_R   0.060908 0.503849 0.050087 0.049827
C42   C     C_R   0.022750 0.572839 0.027175 0.020236
C43   C     C_R   0.172185 0.366067 0.046848 -0.098494
C44   C     C_R   0.909829 0.643243 0.106805 -0.058875
C45   C     C_3   0.226348 0.208479 0.397635 -0.337727
C46   C     C_R   0.025340 0.637762 0.951109 -0.099797
C47   C     C_R   0.064328 0.635395 0.901180 -0.061343
C48   C     C_R   0.946927 0.641926 0.056893 -0.101349
C49   C     C_2   0.449115 0.279387 0.517696 -0.244458
C50   C     C_3   0.371018 0.227357 0.547751 -0.075737
C51   C     C_2   0.408451 0.141366 0.528471 -0.103523
C52   C     C_2   0.519503 0.115111 0.492414 0.007327
C53   C     C_2   0.603752 0.172683 0.470206 -0.091014
C54   C     C_1   0.563856 0.249564 0.484155 0.034711
C55   C     C_R   0.807632 0.869807 0.473326 0.332364
C56   C     C_3   0.976088 0.702387 0.587914 0.303432
C57   C     C_R   0.862860 0.787695 0.466658 -0.047675
C58   C     C_R   0.624825 0.762511 0.510073 0.048127
C59   C     C_R   0.568007 0.842729 0.516811 -0.166058
C60   C     C_R   0.654120 0.896181 0.497514 -0.070799
C61   C     C_2   0.562029 0.029608 0.476238 0.027484
C62   C     C_2   0.589381 0.980220 0.510274 -0.009331
C63   C     C_R   0.767517 0.735333 0.483197 -0.352178
C64   C     C_3   0.951521 0.791442 0.603270 -0.369339
C65   C     C_3   0.690319 0.365432 0.368790 0.299245
C66   C     C_3   0.686847 0.346890 0.311792 -0.349536
H1    H     H_    0.676951 0.260525 0.601302 0.068399
H2    H     H_    0.311654 0.187470 0.366027 0.118382
H3    H     H_    0.272103 0.179814 0.430258 0.080534
H4    H     H_    0.102669 0.191366 0.386473 0.152814
H5    H     H_    0.856676 0.681679 0.576719 0.013107
H6    H     H_    0.059634 0.687527 0.555623 0.072768
H7    H     H_    0.862092 0.808020 0.634139 0.135121
H8    H     H_    0.904168 0.820966 0.571146 0.054412
H9    H     H_    0.070653 0.812357 0.616228 0.124214
H10   H     H_    0.812956 0.380599 0.381713 0.006535
H11   H     H_    0.595342 0.416242 0.380362 0.074165
H12   H     H_    0.753544 0.170564 0.663998 0.130953
H13   H     H_    0.785741 0.298452 0.298955 0.138419
H14   H     H_    0.705928 0.399679 0.295431 0.068862
H15   H     H_    0.565744 0.328858 0.298268 0.134174
H16   H     H_    0.482501 0.296100 0.633319 -0.091601
H17   H     H_    0.566177 0.150655 0.630185 0.059812
H18   H     H_    0.372755 0.649331 0.619234 0.030884
H19   H     H_    0.587075 0.609803 0.627187 0.035410
H20   H     H_    0.398926 0.748733 0.696266 0.138709
H21   H     H_    0.437342 0.648771 0.708725 0.077783
H22   H     H_    0.607966 0.703780 0.705384 0.125804
H23   H     H_    0.557406 0.202910 0.693801 0.130524
H24   H     H_    0.173588 0.236211 0.726259 0.104459
H25   H     H_    0.126508 0.644910 0.348871 0.072564
H26   H     H_    0.917696 0.695489 0.351531 -0.068299
H27   H     H_    0.178082 0.747906 0.290502 0.146834
H28   H     H_    0.070193 0.666291 0.266007 0.108906
H29   H     H_    0.956845 0.763242 0.284417 0.132908
H30   H     H_    0.639388 0.736064 0.370757 -0.060949
H31   H     H_    0.457969 0.752332 0.409051 0.082044
H32   H     H_    0.499114 0.825048 0.314128 0.119096
H33   H     H_    0.515251 0.873461 0.378253 0.086657
H34   H     H_    0.181978 0.309005 0.653872 0.024664
H35   H     H_    0.321010 0.844302 0.353723 0.183171
H36   H     H_    0.148673 0.457578 0.282305 0.129657
H37   H     H_    0.162825 0.315840 0.113825 0.123605
H38   H     H_    0.556595 0.467215 0.755365 0.095333
H39   H     H_    0.349668 0.306689 0.869633 0.119003
H40   H     H_    0.286570 0.307223 0.954538 0.069001
H41   H     H_    0.229773 0.309926 0.028638 0.069802
H42   H     H_    0.661126 0.573663 0.249220 0.120561
H43   H     H_    0.851778 0.698071 0.127460 0.124972
H44   H     H_    0.966556 0.693710 0.969147 0.069775
H45   H     H_    0.279386 0.207094 0.641601 -0.025766
H46   H     H_    0.033867 0.688628 0.884563 0.122910
H47   H     H_    0.043474 0.533862 0.716411 0.116103
H48   H     H_    0.913993 0.696880 0.043018 0.070175
H49   H     H_    0.828309 0.537786 0.401514 0.082002
H50   H     H_    0.367232 0.453807 0.601743 0.070449
H51   H     H_    0.566062 0.002040 0.549681 0.059905
H52   H     H_    0.696655 0.150891 0.442078 0.122967
H53   H     H_    0.584362 0.008353 0.436856 0.125559
H54   H     H_    0.346059 0.100571 0.545194 0.071005
H55   H     H_    0.971223 0.268786 0.703277 0.166419
H56   H     H_    0.458304 0.864070 0.538475 0.091257
H57   H     H_    0.419869 0.342618 0.528053 0.074263
H58   H     H_    0.811228 0.673004 0.478792 0.078398
H59   H     H_    0.057567 0.166295 0.688128 0.108907
H60   H     H_    0.339820 0.314228 0.419593 -0.004089
H61   H     H_    0.138856 0.316117 0.445166 0.082453
N1    N     N_R   0.943607 0.511059 0.203827 -0.422155
N2    N     N_R   0.257379 0.495682 0.794797 -0.425697
O1    O     O_2   0.906370 0.542040 0.619810 -0.467121
O2    O     O_3   0.659590 0.298765 0.388275 -0.631533
O3    O     O_3   0.055459 0.230190 0.605490 -0.567885
O4    O     O_2   0.283330 0.457940 0.380160 -0.463897
O5    O     O_3   0.051340 0.457960 0.440360 -0.495945
O6    O     O_3   0.503130 0.601610 0.416130 -0.478813
O7    O     O_3   0.146383 0.331780 0.370517 -0.622767
O8    O     O_3   0.616890 0.595000 0.528820 -0.482367
O9    O     O_3   0.087820 0.642040 0.442240 -0.510553
O10   O     O_2   0.204818 0.775709 0.474621 -0.453638
O11   O     O_3   0.100492 0.762077 0.381378 -0.542726
O12   O     O_3   0.138370 0.541980 0.559630 -0.489692
O13   O     O_3   0.572820 0.404940 0.471170 -0.499277
O14   O     O_2   0.345130 0.693150 0.532000 -0.464736
O15   O     O_3   0.546209 0.722866 0.609807 -0.639671
O16   O     O_2   0.409367 0.538148 0.323999 -0.499603
O17   O     O_3   0.430503 0.689590 0.337835 -0.594964
O18   O     O_2   0.045536 0.382174 0.195849 -0.594660
O19   O     O_2   0.357289 0.367325 0.792034 -0.600906
O20   O     O_2   0.844231 0.639581 0.204262 -0.619767
O21   O     O_2   0.152040 0.623964 0.803109 -0.598778
O22   O     O_3   0.686580 0.398330 0.583860 -0.483090
O23   O     O_2   0.845422 0.442204 0.669369 -0.476311
O24   O     O_3   0.042428 0.668238 0.629073 -0.630142
O25   O     O_3   0.691469 0.325112 0.672334 -0.587427
O26   O     O_2   0.844570 0.306830 0.467970 -0.453376
O27   O     O_3   0.101900 0.357890 0.557750 -0.480268
O28   O     O_2   0.052238 0.217963 0.507332 -0.447731
P1    P     P_3+3 0.071770 0.565500 0.613330 0.997126
P2    P     P_3+3 0.664870 0.318630 0.453960 0.992390
P3    P     P_3+3 0.145065 0.256405 0.553809 0.985032
P4    P     P_3+3 0.117940 0.434440 0.386660 0.992729
P5    P     P_3+3 0.064302 0.743112 0.441405 1.040063
P6    P     P_3+3 0.679645 0.414945 0.649748 0.988520
P7    P     P_3+3 0.534066 0.694839 0.544688 0.956188
P8    P     P_3+3 0.519914 0.597868 0.351502 0.942694
S1    S     S_3+6 0.925357 0.939301 0.452716 -0.084241
O29   O     O_2   0.858882 0.955313 0.402117 -0.290809
O30   O     O_2   0.907006 0.015570 0.488620 -0.321708
O31   O     O_3   0.128043 0.910129 0.446717 -0.477139
H62   H     H_    0.179519 0.931958 0.478857 0.337054

loop_
_geom_bond_atom_site_label_1
_geom_bond_atom_site_label_2
_ccdc_geom_bond_type
C25   C46   A    
C36   P6    S    
O31   H62   S    
C38   C39   S    
C7    H30   S    
C33   N2    Am   
C37   P1    S    
C1    H17   S    
Ba2   O13   S    
C17   C18   A    
C6    H28   S    
C41   C42   A    
Ba1   O1    S    
C55   C60   A    
C55   S1    S    
C19   H37   S    
C51   C52   D    
Ba2   O14   S    
C6    H27   S    
C56   C64   S    
O1    P1    D    
C62   H51   S    
C10   N1    Am   
C11   C16   D    
C59   H56   S    
Ba2   O8    S    
Ba1   O27   S    
C65   O2    S    
C15   H36   S    
C49   C54   D    
C51   H54   S    
O11   P5    S    
C3    C4    S    
O13   P2    S    
C43   H41   S    
C12   H34   S    
C38   H47   S    
C52   C61   S    
C31   C47   A    
C10   C20   A    
C22   C37   D    
C4    H20   S    
C34   C45   S    
C1    H23   S    
Ba1   Ba2   S    
C64   H9    S    
C60   C62   S    
C57   P5    S    
C25   C42   A    
C9    O18   D    
S1    O31   S    
C14   C15   D    
C28   H39   S    
C22   C36   S    
O23   P6    D    
O7    P4    S    
C33   O19   D    
Ba1   O5    S    
C7    C8    S    
Ba1   O8    S    
C53   H52   S    
O22   P6    S    
S1    O30   D    
C47   H46   S    
O15   P7    S    
Ba1   P2    S    
C7    H31   S    
C44   H43   S    
Ba2   O12   S    
C66   H15   S    
C10   O20   D    
C13   P8    S    
C34   H60   S    
C65   H10   S    
C1    H12   S    
C2    H1    S    
C61   H53   S    
C17   C41   A    
C31   C32   A    
C19   C43   A    
O14   P7    D    
C8    H33   S    
C14   P4    S    
C5    H25   S    
C9    C18   A    
C65   C66   S    
C49   H57   S    
O12   P1    S    
C17   C20   A    
C65   H11   S    
C5    C6    S    
C37   C38   D    
C39   N2    S    
C32   O21   D    
C12   O3    S    
C4    H22   S    
C54   P2    S    
Ba2   O5    S    
C49   C50   S    
C58   C59   A    
C40   C43   A    
C35   C36   S    
O8    P7    S    
Ba1   O22   S    
C6    H29   S    
C46   H44   S    
C45   H2    S    
C27   C28   A    
Ba1   O12   S    
C29   C30   A    
C2    H16   S    
C26   C30   A    
C64   H8    S    
C53   C54   D    
C15   C16   S    
O28   P3    D    
C27   H40   S    
C18   C19   A    
C8    H32   S    
C23   H55   S    
C11   H42   S    
C45   H3    S    
O16   P8    D    
C24   C27   A    
C3    H18   S    
S1    O29   D    
C20   C44   A    
C58   C63   A    
C14   C21   D    
C11   C13   S    
C29   C33   A    
C16   N1    S    
C40   C41   A    
C66   H13   S    
C1    C2    S    
C4    H21   S    
C9    N1    Am   
O26   P2    D    
O6    P8    S    
C50   C51   S    
C56   H6    S    
C42   C48   A    
C5    H26   S    
C52   C53   S    
C8    H35   S    
C23   H24   S    
C3    O15   S    
C2    O25   S    
O24   P1    S    
Ba2   O6    S    
O4    P4    D    
Ba1   P1    S    
O2    P2    S    
Ba2   P4    S    
C21   H49   S    
O9    P5    S    
C12   H45   S    
C44   C48   A    
C7    O17   S    
C24   C26   A    
Ba2   O4    S    
C32   N2    Am   
C66   H14   S    
C30   C31   A    
Ba1   O26   S    
C23   H59   S    
Ba2   O9    S    
C35   H38   S    
Ba1   O13   S    
C34   H61   S    
C63   H58   S    
C28   C29   A    
O25   P6    S    
C46   C47   A    
C64   H7    S    
C13   C21   S    
C22   H50   S    
C48   H48   S    
C24   C40   A    
C35   C39   D    
C59   C60   A    
C58   P7    S    
C45   H4    S    
C55   C57   A    
C56   O24   S    
O27   P3    S    
C61   C62   D    
C3    H19   S    
O3    P3    S    
C12   C23   S    
O10   P5    D    
C25   C26   A    
O17   P8    S    
C34   O7    S    
C5    O11   S    
C57   C63   A    
C56   H5    S    
C50   P3    S    
O5    P4    S    
