data_mof_unit_15586.cif
_audit_creation_date              2012-12-10T20:21:39-0500
_audit_creation_method            fapswitch 2.2
_symmetry_space_group_name_H-M    P1
_symmetry_Int_Tables_number       1
_space_group_crystal_system       triclinic
_cell_length_a                    19.328086
_cell_length_b                    18.462152
_cell_length_c                    8.884705
_cell_angle_alpha                 90.000547
_cell_angle_beta                  89.854974
_cell_angle_gamma                 90.000141
_cell_volume                      3170.39075376

loop_
_atom_site_label
_atom_site_type_symbol
_atom_type_description
_atom_site_fract_x
_atom_site_fract_y
_atom_site_fract_z
_atom_type_partial_charge
C1    C     C_R   0.365643 0.499972 0.499370 0.992236
C2    C     C_R   0.512164 0.197328 0.365559 0.430132
C3    C     C_R   0.500001 0.841106 0.500000 0.049642
C4    C     C_R   0.500001 0.158840 0.499996 0.054437
C5    C     C_R   0.436510 0.961453 0.503684 -0.085256
C6    C     C_R   0.563500 0.038550 0.497506 -0.076296
C7    C     C_R   0.563493 0.961453 0.496315 -0.085269
C8    C     C_R   0.436502 0.038550 0.502490 -0.076244
C9    C     C_R   0.500001 0.077317 0.500000 0.183823
C10   C     C_R   0.500001 0.922666 0.500001 0.182597
C11   C     C_R   0.499968 0.500004 0.218468 0.924227
C12   C     C_R   0.634358 0.499972 0.500627 0.992203
C13   C     C_R   0.500032 0.500004 0.781532 0.924229
C14   C     C_1   0.499984 0.500020 0.065386 -0.214350
C15   C     C_1   0.500015 0.500020 0.934614 -0.214344
C16   C     C_R   0.746833 0.442157 0.437411 0.337996
C17   C     C_R   0.255072 0.559459 0.433307 0.370341
C18   C     C_R   0.253167 0.442169 0.562621 0.337979
C19   C     C_R   0.744931 0.559474 0.566622 0.370347
C20   C     C_R   0.819127 0.446686 0.425494 0.392163
C21   C     C_R   0.183290 0.563105 0.443063 0.365250
C22   C     C_R   0.180874 0.446703 0.574537 0.392165
C23   C     C_R   0.513958 0.725937 0.629553 -0.107054
C24   C     C_R   0.816713 0.563118 0.556857 0.365231
C25   C     C_R   0.853494 0.505755 0.490978 -0.288649
C26   C     C_R   0.146508 0.505757 0.508998 -0.288649
C27   C     C_R   0.709710 0.500307 0.501825 -0.423815
C28   C     C_R   0.290291 0.500306 0.498162 -0.423797
C29   C     C_R   0.962112 0.507131 0.634325 -0.138270
C30   C     C_R   0.037891 0.507088 0.365652 -0.138266
C31   C     C_R   0.033684 0.507796 0.639304 -0.175858
C32   C     C_R   0.966319 0.507749 0.360672 -0.175866
C33   C     C_R   0.071493 0.506791 0.504963 0.269675
C34   C     C_R   0.489598 0.273991 0.631233 -0.143862
C35   C     C_R   0.928510 0.506787 0.495013 0.269635
C36   C     C_3   0.715843 0.324996 0.479009 -0.178833
C37   C     C_3   0.300119 0.598729 0.211904 -0.226983
C38   C     C_3   0.284156 0.325002 0.521102 -0.178817
C39   C     C_3   0.699897 0.598799 0.787995 -0.226934
C40   C     C_3   0.845943 0.388735 0.204804 -0.251198
C41   C     C_3   0.141405 0.675368 0.490982 -0.225849
C42   C     C_3   0.154053 0.388806 0.795282 -0.251214
C43   C     C_3   0.858618 0.675358 0.508795 -0.225839
C44   C     C_3   0.581235 0.812632 0.850248 -0.258161
C45   C     C_R   0.486043 0.725936 0.370446 -0.107065
C46   C     C_3   0.424217 0.184742 0.853666 -0.256209
C47   C     C_3   0.418789 0.812616 0.149710 -0.258112
C48   C     C_3   0.575631 0.184851 0.146036 -0.255923
C49   C     C_2   0.369182 0.921849 0.504129 0.382143
C50   C     C_2   0.630760 0.078185 0.491300 0.366035
C51   C     C_2   0.630821 0.921850 0.495874 0.382135
C52   C     C_2   0.369242 0.078185 0.508677 0.365832
C53   C     C_R   0.510402 0.273992 0.368764 -0.143996
C54   C     C_R   0.515653 0.802665 0.632724 0.435344
C55   C     C_R   0.487837 0.197331 0.634428 0.430040
C56   C     C_R   0.484348 0.802664 0.367274 0.435350
H1    H     H_    0.932846 0.506801 0.738514 0.143189
H2    H     H_    0.696614 0.340349 0.592932 0.152290
H3    H     H_    0.769381 0.303396 0.486700 0.187013
H4    H     H_    0.331182 0.548412 0.197466 0.120970
H5    H     H_    0.329212 0.643541 0.157725 0.170929
H6    H     H_    0.249653 0.593507 0.152797 0.169012
H7    H     H_    0.317738 0.280689 0.563066 0.191828
H8    H     H_    0.303387 0.340336 0.407171 0.152315
H9    H     H_    0.230617 0.303403 0.513418 0.187002
H10   H     H_    0.668834 0.548485 0.802495 0.120962
H11   H     H_    0.670808 0.643624 0.842137 0.170910
H12   H     H_    0.067158 0.506724 0.261463 0.143175
H13   H     H_    0.750367 0.593590 0.847092 0.169008
H14   H     H_    0.840219 0.443487 0.153255 0.120110
H15   H     H_    0.800046 0.354971 0.178561 0.208656
H16   H     H_    0.891309 0.362647 0.150628 0.175708
H17   H     H_    0.113369 0.721920 0.441064 0.181890
H18   H     H_    0.192650 0.695439 0.529849 0.192713
H19   H     H_    0.110318 0.655653 0.588358 0.141923
H20   H     H_    0.199958 0.355063 0.821567 0.208649
H21   H     H_    0.108692 0.362716 0.849476 0.175711
H22   H     H_    0.159758 0.443572 0.846777 0.120109
H23   H     H_    0.059495 0.509232 0.747203 0.134904
H24   H     H_    0.886608 0.721947 0.558691 0.181914
H25   H     H_    0.807383 0.695385 0.469774 0.192629
H26   H     H_    0.889761 0.655617 0.411526 0.141951
H27   H     H_    0.625847 0.795313 0.779108 0.162563
H28   H     H_    0.562347 0.767173 0.921170 0.160262
H29   H     H_    0.600397 0.855258 0.927632 0.219470
H30   H     H_    0.378191 0.197548 0.783164 0.147742
H31   H     H_    0.440067 0.232582 0.921029 0.164715
H32   H     H_    0.408463 0.141922 0.934348 0.222847
H33   H     H_    0.374174 0.795274 0.220818 0.162543
H34   H     H_    0.940508 0.509150 0.252770 0.134915
H35   H     H_    0.437703 0.767170 0.078784 0.160281
H36   H     H_    0.399620 0.855239 0.072330 0.219469
H37   H     H_    0.621679 0.197852 0.216316 0.147639
H38   H     H_    0.559576 0.232592 0.078604 0.164815
H39   H     H_    0.591443 0.142030 0.065405 0.222871
H40   H     H_    0.324917 0.944103 0.445256 0.062160
H41   H     H_    0.673876 0.055993 0.427964 0.063111
H42   H     H_    0.675085 0.944105 0.554748 0.062150
H43   H     H_    0.326124 0.055995 0.572007 0.063091
H44   H     H_    0.523331 0.695188 0.730719 0.149245
H45   H     H_    0.483111 0.304497 0.733851 0.162665
H46   H     H_    0.476669 0.695185 0.269282 0.149252
H47   H     H_    0.516890 0.304503 0.266156 0.162654
H48   H     H_    0.682258 0.280678 0.437076 0.191905
N1    N     N_R   0.500000 0.689440 0.500000 -0.120732
N2    N     N_R   0.500000 0.310560 0.500000 -0.127126
O1    O     O_R   0.398180 0.560840 0.499960 -0.569935
O2    O     O_3   0.290586 0.615792 0.365276 -0.553721
O3    O     O_3   0.287917 0.383456 0.623169 -0.599418
O4    O     O_3   0.709420 0.615823 0.634603 -0.553670
O5    O     O_3   0.857446 0.391001 0.361764 -0.587493
O6    O     O_3   0.148791 0.621298 0.380055 -0.588714
O7    O     O_3   0.142554 0.391032 0.638318 -0.587481
O8    O     O_3   0.851210 0.621330 0.619801 -0.588696
O9    O     O_3   0.526635 0.841905 0.764287 -0.595056
O10   O     O_3   0.480326 0.158479 0.767512 -0.596201
O11   O     O_3   0.473367 0.841905 0.235714 -0.595053
O12   O     O_R   0.601820 0.439160 0.500040 -0.584850
O13   O     O_3   0.519673 0.158459 0.232486 -0.596174
O14   O     O_2   0.361830 0.865075 0.572790 -0.572095
O15   O     O_2   0.639383 0.134914 0.559331 -0.597325
O16   O     O_2   0.638173 0.865076 0.427213 -0.572074
O17   O     O_2   0.360623 0.134911 0.440638 -0.597304
O18   O     O_R   0.601820 0.560840 0.500040 -0.569925
O19   O     O_R   0.398180 0.439160 0.499960 -0.584871
O20   O     O_R   0.500000 0.560800 0.285330 -0.633849
O21   O     O_R   0.500000 0.439200 0.714670 -0.627036
O22   O     O_R   0.500000 0.560800 0.714670 -0.633862
O23   O     O_R   0.500000 0.439200 0.285330 -0.627040
O24   O     O_3   0.712082 0.383434 0.376904 -0.599419
Zn1   Zn    Zn3+2 0.500000 0.581210 0.500000 0.983448
Zn2   Zn    Zn3+2 0.500000 0.418790 0.500000 0.963632

loop_
_geom_bond_atom_site_label_1
_geom_bond_atom_site_label_2
_ccdc_geom_bond_type
C7    C10   A    
C21   C26   A    
C24   O8    S    
C48   H39   S    
C56   O11   S    
C18   O3    S    
C36   H3    S    
C6    C9    A    
C37   H6    S    
N1    Zn1   S    
N2    Zn2   S    
C40   H14   S    
C40   H15   S    
C1    O19   A    
C46   H31   S    
C36   H2    S    
C43   O8    S    
C52   O17   D    
C49   O14   D    
C55   O10   S    
C23   N1    A    
C47   H36   S    
O21   Zn2   S    
C42   O7    S    
C41   H18   S    
C13   O22   A    
C53   N2    A    
C39   O4    S    
C32   H34   S    
C45   C56   A    
C8    C9    A    
C41   O6    S    
C1    C28   S    
C31   C33   A    
C48   O13   S    
C16   O24   S    
C8    C52   S    
C38   H8    S    
O23   Zn2   S    
C44   H27   S    
C51   H42   S    
C23   H44   S    
C34   C55   A    
C53   H47   S    
C47   H33   S    
C5    C49   S    
C50   O15   D    
C47   H35   S    
C11   O23   A    
C45   N1    A    
C40   O5    S    
C46   H32   S    
C22   O7    S    
C34   H45   S    
C48   H37   S    
C12   C27   S    
C34   N2    A    
C32   C35   A    
C11   O20   A    
C18   C28   A    
C24   C25   A    
C44   O9    S    
C37   O2    S    
O1    Zn1   S    
C17   O2    S    
C11   C14   S    
C43   H24   S    
C17   C21   A    
O18   Zn1   S    
C2    C4    A    
C36   O24   S    
C41   H19   S    
C20   O5    S    
C3    C56   A    
C26   C33   S    
C12   O18   A    
C38   H9    S    
C16   C20   A    
C54   O9    S    
C39   H13   S    
C6    C50   S    
C38   O3    S    
C48   H38   S    
C1    O1    A    
C12   O12   A    
C25   C35   S    
C42   H22   S    
C13   C15   S    
C4    C55   A    
C22   C26   A    
C43   H25   S    
C39   H10   S    
C44   H29   S    
O22   Zn1   S    
C21   O6    S    
C19   C27   A    
C23   C54   A    
C38   H7    S    
C19   O4    S    
C51   O16   D    
C50   H41   S    
C40   H16   S    
C30   C33   A    
C18   C22   A    
C17   C28   A    
C39   H11   S    
C29   H1    S    
C44   H28   S    
C2    C53   A    
C5    C8    A    
C37   H5    S    
C2    O13   S    
C31   H23   S    
C6    C7    A    
C29   C35   A    
C52   H43   S    
C42   H20   S    
C46   O10   S    
C36   H48   S    
C19   C24   A    
C7    C51   S    
C5    C10   A    
C29   C31   A    
C3    C10   S    
C30   C32   A    
O19   Zn2   S    
O20   Zn1   S    
C16   C27   A    
C3    C54   A    
C49   H40   S    
C37   H4    S    
O12   Zn2   S    
C45   H46   S    
C41   H17   S    
C13   O21   A    
C47   O11   S    
C42   H21   S    
C20   C25   A    
C43   H26   S    
C14   C15   T    
C4    C9    S    
C30   H12   S    
C46   H30   S    
