data_mof_unit_53387.cif
_audit_creation_date              2012-12-11T17:00:14-0500
_audit_creation_method            fapswitch 2.2
_symmetry_space_group_name_H-M    P1
_symmetry_Int_Tables_number       1
_space_group_crystal_system       triclinic
_cell_length_a                    6.94539
_cell_length_b                    13.563175
_cell_length_c                    20.287723
_cell_angle_alpha                 103.276323
_cell_angle_beta                  89.758485
_cell_angle_gamma                 90.972277
_cell_volume                      1859.78958125

loop_
_atom_site_label
_atom_site_type_symbol
_atom_type_description
_atom_site_fract_x
_atom_site_fract_y
_atom_site_fract_z
_atom_type_partial_charge
O1    O     O_R   0.506770 0.599700 0.449550 -0.552277
O2    O     O_R   0.179980 0.595740 0.587960 -0.526352
O3    O     O_R   0.004580 0.400300 0.550450 -0.530470
C1    C     C_R   0.348746 0.618383 0.614772 0.797615
O4    O     O_R   0.177380 0.611700 0.452380 -0.546142
O5    O     O_R   0.001970 0.416370 0.413900 -0.544802
C2    C     C_R   0.347553 0.639035 0.436509 0.673919
O6    O     O_R   0.509390 0.583630 0.586100 -0.529968
O7    O     O_3   0.337530 0.435890 0.487530 -0.365214
V1    V     V_3+5 0.064660 0.511890 0.502310 1.555705
O8    O     O_R   0.671950 0.404260 0.412040 -0.538214
C3    C     C_R   0.840428 0.382597 0.384783 0.705308
O9    O     O_R   0.674540 0.388300 0.547620 -0.523764
C4    C     C_R   0.841506 0.361744 0.564500 0.878232
V2    V     V_3+5 0.564030 0.488110 0.497690 1.578465
O10   O     O_3   0.841030 0.564110 0.512470 -0.384711
C5    C     C_R   0.725749 0.118175 0.614586 -0.174683
H1    H     H_    0.664268 0.044567 0.591080 0.195960
C6    C     C_R   0.839752 0.282830 0.603273 -0.257423
C7    C     C_R   0.919039 0.315910 0.929590 0.608917
C8    C     C_R   0.929499 0.392069 0.894153 -0.202318
C9    C     C_R   0.900398 0.369810 0.824393 -0.073802
C10   C     C_R   0.861154 0.269411 0.787570 0.105400
C11   C     C_R   0.833855 0.193311 0.825245 -0.110662
C12   C     C_R   0.839972 0.242503 0.715274 -0.080298
C13   C     C_R   0.765034 0.144385 0.684309 -0.114565
C14   C     C_R   0.728421 0.073139 0.723145 0.634345
C15   C     C_R   0.769816 0.095875 0.791804 -0.240346
C16   C     C_R   0.888645 0.308600 0.672179 0.589458
C17   C     C_R   0.759658 0.187088 0.574284 0.346535
C18   C     C_R   0.869075 0.216709 0.896044 -0.180240
H2    H     H_    0.901589 0.433975 0.801684 0.255737
H3    H     H_    0.960774 0.469363 0.920954 0.158819
H4    H     H_    0.744215 0.036919 0.818949 0.137018
C19   C     C_R   0.714852 0.176303 0.228950 0.057304
C20   C     C_R   0.867187 0.182907 0.184557 -0.104016
C21   C     C_R   0.020871 0.249838 0.209854 -0.148090
H5    H     H_    0.142190 0.257135 0.177691 0.138942
C22   C     C_R   0.013199 0.313444 0.275280 -0.064590
H6    H     H_    0.128744 0.367959 0.291482 0.133337
C23   C     C_R   0.851839 0.311814 0.317410 -0.165168
C24   C     C_R   0.707612 0.238984 0.293827 0.056078
C25   C     C_3   0.496039 0.252088 0.289239 0.488935
C26   C     C_3   0.503725 0.183826 0.218584 -0.424288
H7    H     H_    0.455673 0.331503 0.290893 0.030306
H8    H     H_    0.471985 0.223756 0.177884 0.131117
H9    H     H_    0.426434 0.110187 0.214125 0.213431
C27   C     C_R   0.430511 0.654606 0.737985 -0.085208
C28   C     C_R   0.353189 0.686666 0.683084 -0.163645
C29   C     C_R   0.251326 0.778915 0.697603 0.480536
C30   C     C_R   0.253522 0.841285 0.764379 -0.170924
H10   H     H_    0.188223 0.915210 0.773709 0.129180
C31   C     C_R   0.351702 0.812164 0.817432 -0.149428
C32   C     C_R   0.429451 0.714748 0.803316 -0.105194
C33   C     C_3   0.617563 0.673810 0.820711 0.213883
C34   C     C_3   0.618105 0.608823 0.748310 1.103964
H11   H     H_    0.738333 0.730552 0.830909 0.057083
C35   C     C_R   0.487957 0.880134 0.388740 -0.124511
H12   H     H_    0.479976 0.830298 0.481568 0.131381
H13   H     H_    0.612986 0.983284 0.301844 0.158150
H14   H     H_    0.559058 0.951128 0.412339 0.147527
C36   C     C_R   0.362674 0.717301 0.398137 -0.068738
C37   C     C_R   0.235733 0.701336 0.076889 -0.309252
C38   C     C_R   0.158563 0.638632 0.115588 -0.142117
C39   C     C_R   0.188969 0.659642 0.185128 0.615772
C40   C     C_R   0.313297 0.740883 0.217227 -0.103731
C41   C     C_R   0.394123 0.805362 0.176965 -0.094494
C42   C     C_R   0.355942 0.762326 0.288126 0.089051
C43   C     C_R   0.452202 0.854592 0.318801 0.060061
C44   C     C_R   0.527536 0.916583 0.278962 -0.228882
C45   C     C_R   0.515594 0.887670 0.208720 0.409677
C46   C     C_R   0.318060 0.692913 0.329127 -0.132306
C47   C     C_R   0.443438 0.811649 0.428211 -0.157932
C48   C     C_R   0.346848 0.786720 0.106754 -0.088910
H15   H     H_    0.271106 0.616087 0.308096 0.175136
H16   H     H_    0.197021 0.687062 0.023780 0.144236
H17   H     H_    0.063983 0.576337 0.091954 0.185614
O11   O     O_R   0.203450 0.916320 0.913910 -0.543980
O12   O     O_R   0.535520 0.888300 0.047620 -0.524901
O13   O     O_R   0.710860 0.083650 0.086100 -0.517191
C49   C     C_R   0.365985 0.865078 0.067322 0.756336
O14   O     O_R   0.532860 0.904250 0.912040 -0.555021
O15   O     O_R   0.708190 0.099710 0.949550 -0.542072
C50   C     C_R   0.363750 0.881518 0.885232 0.712759
O16   O     O_R   0.206120 0.900260 0.050460 -0.562489
O17   O     O_3   0.375280 0.064080 0.012470 -0.363028
V3    V     V_3+5 0.648180 0.988110 0.997690 1.450975
O18   O     O_R   0.038220 0.111740 0.952370 -0.530207
C51   C     C_R   0.871008 0.137662 0.934960 0.782134
O19   O     O_R   0.040880 0.095790 0.087940 -0.550943
C52   C     C_R   0.872613 0.118145 0.114996 0.766293
V4    V     V_3+5 0.148800 0.011950 0.002300 1.449898
O20   O     O_3   0.871820 0.935920 0.987530 -0.391797
O21   O     O_3   0.701221 0.162830 0.507344 -0.541265
C53   C     C_3   0.858607 0.121408 0.466834 -0.213466
H18   H     H_    0.905960 0.049842 0.479361 0.136583
H19   H     H_    0.981205 0.176560 0.471657 0.143129
H20   H     H_    0.812563 0.103010 0.413027 0.169802
F1    F     F_    0.396419 0.207760 0.334472 -0.665994
O22   O     O_3   0.177785 0.815826 0.644887 -0.569191
C54   C     C_3   0.975054 0.814984 0.648362 -0.135257
H21   H     H_    0.919971 0.852837 0.699308 0.169083
H22   H     H_    0.917534 0.736217 0.633332 0.199293
H23   H     H_    0.919080 0.856730 0.611633 0.171043
O23   O     O_3   0.596083 0.612059 0.867848 -0.527861
C55   C     C_3   0.605762 0.672315 0.934249 -0.140550
H24   H     H_    0.478496 0.721725 0.945153 0.111910
H25   H     H_    0.741922 0.717835 0.943360 0.121210
H26   H     H_    0.602504 0.621802 0.970195 0.159428
F2    F     F_    0.600853 0.505549 0.743541 -0.643850
F3    F     F_    0.651701 0.980475 0.694529 -0.721298
F4    F     F_    0.765132 0.634299 0.708867 -0.731683
F5    F     F_    0.081254 0.604714 0.220059 -0.715287
O24   O     O_3   0.635166 0.936823 0.171896 -0.559777
C56   C     C_3   0.815992 0.889296 0.166211 -0.183408
H27   H     H_    0.803138 0.806974 0.141937 0.137137
H28   H     H_    0.887979 0.900708 0.216370 0.124056
H29   H     H_    0.910368 0.923920 0.133450 0.160881
F6    F     F_    0.986299 0.397292 0.694820 -0.662204
F7    F     F_    0.953823 0.339369 0.997279 -0.693692

loop_
_geom_bond_atom_site_label_1
_geom_bond_atom_site_label_2
_ccdc_geom_bond_type
O15   V3    S    
C33   C34   S    
C54   H21   S    
C56   H28   S    
C38   H17   S    
C40   C42   A    
C53   H18   S    
C1    O6    A    
O12   V3    S    
O24   C56   S    
C53   H20   S    
C22   C23   A    
C31   C32   A    
C27   C32   A    
C16   F6    S    
C13   C14   A    
C3    C23   S    
C9    H2    S    
C33   O23   S    
C31   C50   S    
C5    C13   A    
C20   C21   A    
C25   F1    S    
O13   V3    S    
O5    C3    A    
C8    H3    S    
C55   H24   S    
O14   V3    S    
C23   C24   A    
C19   C24   A    
V4    O20   S    
O8    V2    S    
O18   V4    S    
C42   C43   A    
C18   C51   S    
C10   C11   A    
C36   C47   A    
C44   C45   A    
O1    V2    S    
O7    V1    S    
H12   C47   S    
C26   H9    S    
C35   H14   S    
C40   C41   A    
C15   H4    S    
C55   H26   S    
C54   H22   S    
C8    C9    A    
C5    C17   A    
C43   C44   A    
C46   H15   S    
C34   F2    S    
O16   V4    S    
C26   H8    S    
C29   C30   A    
C12   C16   A    
O15   C51   A    
V2    O10   S    
C30   H10   S    
C22   H6    S    
O12   C49   A    
O17   V3    S    
O11   V4    S    
C12   C13   A    
C45   O24   S    
C30   C31   A    
C19   C20   A    
O2    C1    A    
C25   C26   S    
C2    C36   S    
C21   H5    S    
O19   V4    S    
H13   C44   S    
C42   C46   A    
C56   H29   S    
C5    H1    S    
C36   C46   A    
C41   C48   A    
O18   C51   A    
C19   C26   S    
C25   H7    S    
O3    C4    A    
C20   C52   S    
C27   C28   A    
C28   C29   A    
O6    V2    S    
O14   C50   A    
C33   H11   S    
C24   C25   S    
C48   C49   S    
C6    C16   A    
C7    F7    S    
O4    C2    A    
C27   C34   S    
C32   C33   S    
O1    C2    A    
C39   F5    S    
C4    C6    S    
C11   C15   A    
O5    V1    S    
O8    C3    A    
C53   H19   S    
C35   C43   A    
C37   C48   A    
C54   H23   S    
O23   C55   S    
C29   O22   S    
C1    C28   S    
C38   C39   A    
O13   C52   A    
O9    V2    S    
O7    V2    S    
C11   C18   A    
O4    V1    S    
C21   C22   A    
O3    V1    S    
V1    O10   S    
O19   C52   A    
C55   H25   S    
V3    O20   S    
O22   C54   S    
C41   C45   A    
C10   C12   A    
O21   C53   S    
C14   F3    S    
C37   C38   A    
O11   C50   A    
C7    C8    A    
C17   O21   S    
C39   C40   A    
C37   H16   S    
C14   C15   A    
C9    C10   A    
O17   V4    S    
O9    C4    A    
C6    C17   A    
C34   F4    S    
C49   O16   A    
C56   H27   S    
C35   C47   A    
C7    C18   A    
O2    V1    S    
