data_mof_unit_11453.cif
_audit_creation_date              2012-12-10T17:22:57-0500
_audit_creation_method            fapswitch 2.2
_symmetry_space_group_name_H-M    P1
_symmetry_Int_Tables_number       1
_space_group_crystal_system       triclinic
_cell_length_a                    10.302361
_cell_length_b                    10.499091
_cell_length_c                    10.761476
_cell_angle_alpha                 91.116228
_cell_angle_beta                  95.954628
_cell_angle_gamma                 80.234828
_cell_volume                      1140.96261841

loop_
_atom_site_label
_atom_site_type_symbol
_atom_type_description
_atom_site_fract_x
_atom_site_fract_y
_atom_site_fract_z
_atom_type_partial_charge
C1    C     C_R   0.444209 0.503702 0.267377 0.934465
C2    C     C_3   0.500354 0.122281 0.500142 0.040522
C3    C     C_3   0.621851 0.937590 0.485111 -0.135952
C4    C     C_3   0.377418 0.062372 0.516237 -0.134358
C5    C     C_2   0.413833 0.490814 0.134194 -0.389785
C6    C     C_2   0.588200 0.466303 0.864890 -0.378130
C7    C     C_2   0.513521 0.448658 0.065860 -0.156613
C8    C     C_2   0.490718 0.450585 0.932555 -0.163005
C9    C     C_2   0.076068 0.492917 0.481021 0.352026
C10   C     C_2   0.936292 0.493098 0.517931 0.312476
C11   C     C_3   0.945271 0.437242 0.734529 -0.855309
C12   C     C_R   0.556127 0.487252 0.732413 0.924759
C13   C     C_3   0.080141 0.525847 0.259732 -0.666892
C14   C     C_3   0.841362 0.276350 0.319884 0.176905
C15   C     C_3   0.911821 0.181278 0.422963 -0.402091
C16   C     C_3   0.916966 0.041221 0.380379 -0.955431
C17   C     C_3   0.169272 0.717732 0.690215 0.210871
C18   C     C_3   0.129209 0.675555 0.813928 -0.386365
C19   C     C_3   0.194504 0.742744 0.924573 -1.014637
C20   C     C_R   0.500487 0.257637 0.499760 0.844342
C21   C     C_R   0.499493 0.742323 0.500682 0.843576
C22   C     C_3   0.535531 0.033149 0.390595 -0.191677
C23   C     C_3   0.463753 0.966743 0.610667 -0.195709
C24   C     C_3   0.412970 0.970599 0.406641 -0.166244
C25   C     C_3   0.586332 0.029381 0.594665 -0.173215
C26   C     C_3   0.499075 0.877712 0.501062 0.035183
H1    H     H_    0.342243 0.941992 0.330526 0.134551
H2    H     H_    0.312862 0.516996 0.091620 0.155273
H3    H     H_    0.822684 0.597413 0.646126 0.262771
H4    H     H_    0.885801 0.359047 0.714029 0.254512
H5    H     H_    0.925747 0.479412 0.827535 0.238298
H6    H     H_    0.051884 0.394576 0.737646 0.226033
H7    H     H_    0.106937 0.344919 0.348793 0.219998
H8    H     H_    0.119439 0.617406 0.277296 0.241234
H9    H     H_    0.971443 0.552764 0.239885 0.253190
H10   H     H_    0.119802 0.478140 0.175479 0.205521
H11   H     H_    0.875538 0.240365 0.229035 0.128705
H12   H     H_    0.657118 0.058065 0.670677 0.130852
H13   H     H_    0.733209 0.278590 0.308816 0.172232
H14   H     H_    0.014747 0.197886 0.448412 0.198163
H15   H     H_    0.858955 0.196649 0.508231 0.233238
H16   H     H_    0.816768 0.023808 0.344143 0.260584
H17   H     H_    0.955447 0.975289 0.460205 0.276886
H18   H     H_    0.983782 0.019365 0.305293 0.262075
H19   H     H_    0.145947 0.824891 0.684931 0.122076
H20   H     H_    0.276368 0.693380 0.688981 0.192956
H21   H     H_    0.019995 0.700198 0.814121 0.243821
H22   H     H_    0.159729 0.569505 0.824803 0.224040
H23   H     H_    0.564501 0.065085 0.301219 0.123748
H24   H     H_    0.303995 0.716804 0.928910 0.278156
H25   H     H_    0.161680 0.712058 0.012682 0.268929
H26   H     H_    0.165603 0.849302 0.916127 0.266026
H27   H     H_    0.434192 0.934851 0.699820 0.124693
H28   H     H_    0.721442 0.881718 0.473449 0.158871
H29   H     H_    0.277402 0.116884 0.528817 0.134233
H30   H     H_    0.390074 0.450164 0.890629 0.190019
H31   H     H_    0.615313 0.422567 0.107300 0.191005
H32   H     H_    0.688665 0.466459 0.907327 0.152190
N1    N     N_2   0.157310 0.552180 0.551120 0.035471
N2    N     N_2   0.842690 0.447820 0.448880 0.036352
N3    N     N_2   0.911549 0.537115 0.640192 -0.291454
N4    N     N_2   0.117658 0.439396 0.366298 -0.275270
O1    O     O_R   0.568940 0.489500 0.307530 -0.599652
O2    O     O_3   0.095623 0.669492 0.587653 -0.598512
O3    O     O_R   0.431060 0.510500 0.692470 -0.644114
O4    O     O_R   0.348880 0.522990 0.340350 -0.593004
O5    O     O_R   0.651120 0.477010 0.659650 -0.630276
O6    O     O_R   0.610000 0.297210 0.483560 -0.647686
O7    O     O_R   0.390000 0.702790 0.516440 -0.633210
O8    O     O_R   0.389940 0.330700 0.516390 -0.630834
O9    O     O_R   0.610060 0.669300 0.483610 -0.629765
O10   O     O_3   0.872607 0.401775 0.335868 -0.618665
Zn1   Zn    Zn3+2 0.646930 0.477640 0.478080 0.941883
Zn2   Zn    Zn3+2 0.353070 0.522360 0.521920 0.944146

loop_
_geom_bond_atom_site_label_1
_geom_bond_atom_site_label_2
_ccdc_geom_bond_type
O8    Zn2   S    
C10   N2    D    
C21   C26   S    
C2    C22   S    
C20   O6    A    
O5    Zn1   S    
C19   H25   S    
C25   H12   S    
C18   H22   S    
C5    H2    S    
C9    C10   S    
C16   H18   S    
C2    C4    S    
N1    Zn2   S    
C24   H1    S    
C18   H21   S    
C8    H30   S    
C17   C18   S    
O6    Zn1   S    
C11   H5    S    
C13   H8    S    
C17   O2    S    
C14   H11   S    
C6    C12   S    
C19   H24   S    
C20   O8    A    
N1    O2    S    
C21   O9    A    
C22   H23   S    
C1    C5    S    
C1    O1    A    
C23   H27   S    
C3    H28   S    
C24   C26   S    
C17   H19   S    
C11   H6    S    
C13   H9    S    
C2    C25   S    
C22   C24   S    
C23   C25   S    
C4    H29   S    
O7    Zn2   S    
C4    C24   S    
C12   O5    A    
H3    N3    S    
C15   H14   S    
C16   H17   S    
C10   N3    S    
C7    C8    S    
N2    O10   S    
C2    C20   S    
C9    N4    S    
O4    Zn2   S    
C16   H16   S    
N2    Zn1   S    
C3    C25   S    
C17   H20   S    
C15   H15   S    
C13   H10   S    
C5    C7    D    
C18   C19   S    
C12   O3    A    
C23   C26   S    
O3    Zn2   S    
O9    Zn1   S    
C4    C23   S    
C6    H32   S    
C14   C15   S    
C3    C22   S    
C6    C8    D    
O1    Zn1   S    
C11   N3    S    
C14   H13   S    
C14   O10   S    
C19   H26   S    
C7    H31   S    
C3    C26   S    
C13   N4    S    
C15   C16   S    
C11   H4    S    
C21   O7    A    
H7    N4    S    
C9    N1    D    
C1    O4    A    
