data_mof_unit_24245.cif
_audit_creation_date              2012-12-11T15:50:35-0500
_audit_creation_method            fapswitch 2.2
_symmetry_space_group_name_H-M    P1
_symmetry_Int_Tables_number       1
_space_group_crystal_system       triclinic
_cell_length_a                    18.967205
_cell_length_b                    11.045952
_cell_length_c                    18.805025
_cell_angle_alpha                 89.96077
_cell_angle_beta                  91.679313
_cell_angle_gamma                 89.950119
_cell_volume                      3938.16187823

loop_
_atom_site_label
_atom_site_type_symbol
_atom_type_description
_atom_site_fract_x
_atom_site_fract_y
_atom_site_fract_z
_atom_type_partial_charge
C1    C     C_R   0.275118 0.038997 0.855543 0.552335
C2    C     C_R   0.763423 0.578448 0.928865 -0.007285
C3    C     C_R   0.228853 0.547105 0.352698 0.578351
C4    C     C_R   0.439817 0.820467 0.639388 0.536797
C5    C     C_R   0.528791 0.823902 0.351901 0.543545
C6    C     C_R   0.939817 0.320467 0.639388 0.536797
C7    C     C_R   0.028791 0.323902 0.351901 0.543545
C8    C     C_R   0.272412 0.682585 0.636383 0.561211
C9    C     C_R   0.729254 0.678884 0.363754 0.549009
C10   C     C_R   0.772412 0.182585 0.636383 0.561211
C11   C     C_R   0.229254 0.178884 0.363754 0.549009
C12   C     C_3   0.484367 0.934753 0.025582 -0.041837
C13   C     C_R   0.735216 0.073361 0.069459 -0.001870
C14   C     C_3   0.527561 0.877760 0.966207 -0.088169
C15   C     C_3   0.984367 0.434753 0.025582 -0.041837
C16   C     C_3   0.027561 0.377760 0.966207 -0.088170
C17   C     C_3   0.416838 0.870407 0.996368 -0.104669
C18   C     C_3   0.543373 0.766943 0.013117 -0.141305
C19   C     C_3   0.916838 0.370407 0.996368 -0.104669
C20   C     C_3   0.043373 0.266943 0.013117 -0.141305
C21   C     C_3   0.460833 0.815720 0.937620 0.046771
C22   C     C_3   0.499878 0.824210 0.071920 0.043562
C23   C     C_3   0.960833 0.315720 0.937620 0.046771
C24   C     C_R   0.263423 0.078448 0.928865 -0.007286
C25   C     C_3   0.999878 0.324210 0.071920 0.043562
C26   C     C_2   0.114869 0.625795 0.904364 0.614102
C27   C     C_2   0.882099 0.621573 0.094648 0.610505
C28   C     C_2   0.614869 0.125796 0.904364 0.614102
C29   C     C_2   0.382099 0.121573 0.094648 0.610505
C30   C     C_R   0.297864 0.545181 0.036352 -0.078105
C31   C     C_R   0.699577 0.556092 0.961160 -0.062468
C32   C     C_R   0.797864 0.045181 0.036352 -0.078105
C33   C     C_R   0.199577 0.056092 0.961160 -0.062468
C34   C     C_R   0.303658 0.553301 0.963225 -0.049048
C35   C     C_R   0.693364 0.565052 0.034061 -0.063822
C36   C     C_R   0.803658 0.053301 0.963225 -0.049048
C37   C     C_R   0.724337 0.037494 0.143789 0.566956
C38   C     C_R   0.193364 0.065052 0.034061 -0.063822
C39   C     C_R   0.179860 0.607606 0.950949 0.004537
C40   C     C_R   0.817600 0.610511 0.047668 0.012441
C41   C     C_R   0.679860 0.107606 0.950949 0.004537
C42   C     C_R   0.317600 0.110511 0.047668 0.012441
C43   C     C_R   0.176888 0.615313 0.025695 0.157564
C44   C     C_R   0.821772 0.619172 0.973176 0.140095
C45   C     C_R   0.676888 0.115313 0.025695 0.157564
C46   C     C_R   0.321772 0.119172 0.973176 0.140095
C47   C     C_3   0.340428 0.432539 0.041151 -0.200992
C48   C     C_R   0.775118 0.538997 0.855543 0.552335
C49   C     C_3   0.651624 0.449722 0.955962 -0.202685
C50   C     C_3   0.840428 0.932539 0.041151 -0.200992
C51   C     C_3   0.151624 0.949722 0.955962 -0.202685
C52   C     C_3   0.345150 0.438901 0.961182 -0.209313
C53   C     C_3   0.644827 0.459511 0.035824 -0.207460
C54   C     C_3   0.845150 0.938901 0.961182 -0.209313
C55   C     C_3   0.144827 0.959511 0.035824 -0.207459
C56   C     C_R   0.245490 0.581655 0.919629 -0.032932
C57   C     C_R   0.751945 0.586588 0.078512 -0.034153
C58   C     C_R   0.745490 0.081655 0.919629 -0.032932
C59   C     C_R   0.224337 0.537494 0.143789 0.566956
C60   C     C_R   0.251945 0.086588 0.078512 -0.034153
C61   C     C_R   0.493984 0.830138 0.420144 0.041154
C62   C     C_R   0.457106 0.830251 0.564548 -0.000310
C63   C     C_R   0.993984 0.330138 0.420144 0.041154
C64   C     C_R   0.957106 0.330251 0.564548 -0.000310
C65   C     C_R   0.439476 0.815836 0.861906 0.568468
C66   C     C_R   0.529347 0.820920 0.144702 0.567042
C67   C     C_R   0.939476 0.315836 0.861906 0.568468
C68   C     C_R   0.029347 0.320920 0.144702 0.567042
C69   C     C_R   0.500113 0.728195 0.462728 0.101531
C70   C     C_3   0.476728 0.702953 0.983591 -0.116966
C71   C     C_R   0.483123 0.728521 0.532282 0.000618
C72   C     C_R   0.000113 0.228195 0.462727 0.101532
C73   C     C_R   0.983123 0.228521 0.532281 0.000618
C74   C     C_R   0.441846 0.932393 0.521189 -0.157651
C75   C     C_R   0.461294 0.933192 0.448851 -0.157521
C76   C     C_R   0.941846 0.432393 0.521189 -0.157651
C77   C     C_R   0.961294 0.433192 0.448851 -0.157521
C78   C     C_3   0.562074 0.649743 0.477183 -0.226425
C79   C     C_3   0.542329 0.647972 0.554380 -0.224893
C80   C     C_3   0.062074 0.149742 0.477183 -0.226424
C81   C     C_3   0.433536 0.758905 0.043769 -0.124448
C82   C     C_3   0.042328 0.147972 0.554380 -0.224893
C83   C     C_R   0.246651 0.596287 0.420666 0.032491
C84   C     C_R   0.744016 0.595074 0.580624 0.032374
C85   C     C_R   0.746651 0.096287 0.420666 0.032491
C86   C     C_R   0.244016 0.095074 0.580624 0.032374
C87   C     C_R   0.189687 0.628741 0.461976 0.015699
C88   C     C_R   0.772550 0.702001 0.554224 -0.028934
C89   C     C_R   0.689687 0.128741 0.461976 0.015699
C90   C     C_R   0.272550 0.202001 0.554224 -0.028933
C91   C     C_R   0.198764 0.652565 0.532001 0.099171
C92   C     C_3   0.976728 0.202953 0.983591 -0.116966
C93   C     C_R   0.769781 0.724215 0.482576 -0.035202
C94   C     C_R   0.698764 0.152565 0.532001 0.099171
C95   C     C_R   0.269781 0.224215 0.482576 -0.035202
C96   C     C_R   0.323892 0.619202 0.522987 -0.165801
C97   C     C_R   0.705388 0.539139 0.461421 -0.129853
C98   C     C_R   0.823892 0.119201 0.522987 -0.165801
C99   C     C_R   0.205388 0.039139 0.461421 -0.129853
C100  C     C_R   0.315240 0.598616 0.449884 0.170523
C101  C     C_R   0.702626 0.520965 0.534158 0.182892
C102  C     C_R   0.815240 0.098616 0.449884 0.170522
C103  C     C_3   0.933536 0.258905 0.043769 -0.124448
C104  C     C_R   0.202625 0.020966 0.534158 0.182892
C105  C     C_3   0.122165 0.561818 0.473252 -0.258549
C106  C     C_3   0.843920 0.759272 0.563214 -0.258664
C107  C     C_3   0.622165 0.061818 0.473251 -0.258548
C108  C     C_3   0.343920 0.259272 0.563214 -0.258664
C109  C     C_3   0.132834 0.587815 0.551508 -0.233846
C110  C     C_3   0.841912 0.777348 0.483618 -0.241392
C111  C     C_3   0.632834 0.087815 0.551508 -0.233846
C112  C     C_3   0.341912 0.277348 0.483618 -0.241392
C113  C     C_R   0.259613 0.633428 0.850026 0.571884
C114  C     C_R   0.235216 0.573361 0.069459 -0.001870
C115  C     C_R   0.739796 0.634554 0.149393 0.573867
C116  C     C_R   0.759613 0.133428 0.850026 0.571884
C117  C     C_R   0.239796 0.134554 0.149393 0.573867
C118  C     C_R   0.265029 0.645647 0.563934 -0.019006
C119  C     C_R   0.739867 0.640875 0.435537 -0.019740
C120  C     C_R   0.765029 0.145647 0.563934 -0.019006
C121  C     C_R   0.239867 0.140876 0.435537 -0.019741
C122  C     C_R   0.270311 0.046231 0.646868 0.555890
C123  C     C_R   0.728853 0.047105 0.352698 0.578351
C124  C     C_R   0.770311 0.546231 0.646868 0.555890
Cl1   Cl    Cl    0.388278 0.563805 0.397769 -0.629538
Cl2   Cl    Cl    0.644328 0.408119 0.562643 -0.664435
Cl3   Cl    Cl    0.888278 0.063805 0.397769 -0.629538
Cl4   Cl    Cl    0.144327 0.908119 0.562643 -0.664435
Cl5   Cl    Cl    0.098122 0.673815 0.061776 -0.557588
Cl6   Cl    Cl    0.904739 0.664592 0.939394 -0.538843
Cl7   Cl    Cl    0.598122 0.173815 0.061776 -0.557588
Cl8   Cl    Cl    0.404739 0.164592 0.939394 -0.538843
Cr1   Cr    Cr6+3 0.229640 0.835880 0.747370 1.078284
Cr2   Cr    Cr6+3 0.614230 0.677220 0.250660 1.058577
Cr3   Cr    Cr6+3 0.885770 0.177220 0.749340 1.025871
Cr4   Cr    Cr6+3 0.114230 0.177220 0.250660 1.058577
Cr5   Cr    Cr6+3 0.770360 0.835880 0.252630 1.085033
Cr6   Cr    Cr6+3 0.729640 0.335880 0.747370 1.078284
Cr7   Cr    Cr6+3 0.270360 0.335880 0.252630 1.085033
Cr8   Cr    Cr6+3 0.387390 0.989720 0.750850 1.057585
Cr9   Cr    Cr6+3 0.612610 0.989720 0.249150 1.063359
Cr10  Cr    Cr6+3 0.887390 0.489720 0.750850 1.057584
Cr11  Cr    Cr6+3 0.112610 0.489720 0.249150 1.063359
Cr12  Cr    Cr6+3 0.385770 0.677220 0.749340 1.025871
H1    H     H_    0.362084 0.901384 0.987326 0.115159
H2    H     H_    0.022920 0.058555 0.572496 0.204614
H3    H     H_    0.610623 0.702360 0.468116 0.110841
H4    H     H_    0.522920 0.558556 0.572496 0.204614
H5    H     H_    0.556733 0.560487 0.450314 0.206935
H6    H     H_    0.581775 0.693062 0.590390 0.161076
H7    H     H_    0.056732 0.060487 0.450314 0.206935
H8    H     H_    0.081775 0.193061 0.590390 0.161076
H9    H     H_    0.374857 0.608293 0.548584 0.157160
H10   H     H_    0.676579 0.478652 0.425752 0.174055
H11   H     H_    0.874857 0.108292 0.548584 0.157160
H12   H     H_    0.596546 0.728019 0.021281 0.132107
H13   H     H_    0.176579 0.978652 0.425753 0.174055
H14   H     H_    0.125999 0.463794 0.460352 0.124537
H15   H     H_    0.887251 0.698062 0.580824 0.163654
H16   H     H_    0.625999 0.963794 0.460352 0.124537
H17   H     H_    0.387251 0.198062 0.580823 0.163654
H18   H     H_    0.075947 0.609837 0.448878 0.166978
H19   H     H_    0.841633 0.845898 0.593180 0.157151
H20   H     H_    0.575947 0.109837 0.448878 0.166978
H21   H     H_    0.341633 0.345898 0.593180 0.157151
H22   H     H_    0.092289 0.649823 0.572604 0.196142
H23   H     H_    0.862085 0.401384 0.987326 0.115159
H24   H     H_    0.840957 0.872911 0.468256 0.201000
H25   H     H_    0.592289 0.149823 0.572604 0.196143
H26   H     H_    0.340957 0.372912 0.468256 0.200999
H27   H     H_    0.143369 0.505170 0.583988 0.139347
H28   H     H_    0.880610 0.720338 0.455467 0.159672
H29   H     H_    0.643369 0.005169 0.583988 0.139347
H30   H     H_    0.380610 0.220338 0.455467 0.159673
H31   H     H_    0.490723 0.029014 0.042181 0.252277
H32   H     H_    0.568644 0.916715 0.933458 0.174882
H33   H     H_    0.990723 0.529014 0.042181 0.252277
H34   H     H_    0.096546 0.228019 0.021281 0.132107
H35   H     H_    0.068644 0.416715 0.933458 0.174882
H36   H     H_    0.475859 0.607732 0.965339 0.133090
H37   H     H_    0.395720 0.712400 0.078312 0.142013
H38   H     H_    0.975859 0.107731 0.965339 0.133090
H39   H     H_    0.895720 0.212400 0.078312 0.142013
H40   H     H_    0.809029 0.854562 0.059400 0.174848
H41   H     H_    0.179377 0.866236 0.939576 0.178665
H42   H     H_    0.309029 0.354562 0.059400 0.174848
H43   H     H_    0.679377 0.366236 0.939576 0.178665
H44   H     H_    0.391848 0.447272 0.069694 0.190522
H45   H     H_    0.417425 0.011355 0.543439 0.129682
H46   H     H_    0.601814 0.470662 0.925809 0.176619
H47   H     H_    0.891848 0.947272 0.069694 0.190523
H48   H     H_    0.101814 0.970662 0.925809 0.176619
H49   H     H_    0.399534 0.452576 0.942670 0.181982
H50   H     H_    0.591005 0.485482 0.052121 0.179838
H51   H     H_    0.899534 0.952576 0.942670 0.181982
H52   H     H_    0.091005 0.985482 0.052121 0.179838
H53   H     H_    0.315180 0.366318 0.932784 0.180593
H54   H     H_    0.669457 0.383486 0.066096 0.196304
H55   H     H_    0.815180 0.866318 0.932784 0.180593
H56   H     H_    0.453589 0.014121 0.417067 0.130477
H57   H     H_    0.169457 0.883486 0.066096 0.196304
H58   H     H_    0.061315 0.578337 0.814182 0.358102
H59   H     H_    0.936698 0.557101 0.180223 0.350434
H60   H     H_    0.561314 0.078338 0.814182 0.358102
H61   H     H_    0.436698 0.057101 0.180223 0.350434
H62   H     H_    0.917426 0.511356 0.543439 0.129682
H63   H     H_    0.953589 0.514121 0.417067 0.130476
H64   H     H_    0.110622 0.202360 0.468116 0.110841
O1    O     O_R   0.214300 0.709080 0.827500 -0.494088
O2    O     O_R   0.543340 0.717710 0.330180 -0.485099
O3    O     O_R   0.956660 0.217710 0.669820 -0.513321
O4    O     O_R   0.043340 0.217710 0.330180 -0.485099
O5    O     O_R   0.320590 0.625770 0.672930 -0.527531
O6    O     O_R   0.679410 0.625770 0.327070 -0.511060
O7    O     O_R   0.820590 0.125770 0.672930 -0.527531
O8    O     O_R   0.179410 0.125770 0.327070 -0.511060
O9    O     O_3   0.334270 0.834280 0.749190 -0.334012
O10   O     O_3   0.665730 0.834280 0.250810 -0.304943
O11   O     O_3   0.834270 0.334280 0.749190 -0.334012
O12   O     O_R   0.785700 0.709080 0.172500 -0.496527
O13   O     O_3   0.165730 0.334280 0.250810 -0.304943
O14   O     O_R   0.236190 0.958390 0.823150 -0.516051
O15   O     O_R   0.763810 0.958390 0.176850 -0.508016
O16   O     O_R   0.736190 0.458390 0.823150 -0.516051
O17   O     O_R   0.263810 0.458390 0.176850 -0.508016
O18   O     O_R   0.332090 0.075280 0.831290 -0.451177
O19   O     O_R   0.667910 0.075280 0.168710 -0.443588
O20   O     O_R   0.832090 0.575280 0.831290 -0.451177
O21   O     O_R   0.167910 0.575280 0.168710 -0.443588
O22   O     O_R   0.446280 0.918040 0.826620 -0.459816
O23   O     O_R   0.714300 0.209080 0.827500 -0.494088
O24   O     O_R   0.553720 0.918040 0.173380 -0.487709
O25   O     O_R   0.946280 0.418040 0.826620 -0.459816
O26   O     O_R   0.053720 0.418040 0.173380 -0.487709
O27   O     O_R   0.457080 0.716270 0.831760 -0.509413
O28   O     O_R   0.542920 0.716270 0.168240 -0.510304
O29   O     O_R   0.957080 0.216270 0.831760 -0.509413
O30   O     O_R   0.042920 0.216270 0.168240 -0.510304
O31   O     O_R   0.320980 0.624440 0.823040 -0.510048
O32   O     O_R   0.679020 0.624440 0.176960 -0.494228
O33   O     O_R   0.820980 0.124440 0.823040 -0.510048
O34   O     O_R   0.285700 0.209080 0.172500 -0.496527
O35   O     O_R   0.179020 0.124440 0.176960 -0.494228
O36   O     O_R   0.213880 0.710510 0.665560 -0.455661
O37   O     O_R   0.786120 0.710510 0.334440 -0.491816
O38   O     O_R   0.713880 0.210510 0.665560 -0.455661
O39   O     O_R   0.286120 0.210510 0.334440 -0.491816
O40   O     O_R   0.235800 0.959720 0.673040 -0.451818
O41   O     O_R   0.764200 0.959720 0.326960 -0.466943
O42   O     O_R   0.735800 0.459720 0.673040 -0.451818
O43   O     O_R   0.264200 0.459720 0.326960 -0.466943
O44   O     O_R   0.331670 0.076720 0.669350 -0.545642
O45   O     O_R   0.445900 0.919370 0.676500 -0.496206
O46   O     O_R   0.668330 0.076720 0.330650 -0.523860
O47   O     O_R   0.831670 0.576720 0.669350 -0.545642
O48   O     O_R   0.168330 0.576720 0.330650 -0.523860
O49   O     O_2   0.071614 0.704128 0.917422 -0.422562
O50   O     O_R   0.105844 0.556382 0.842450 -0.695751
O51   O     O_2   0.922654 0.706654 0.088409 -0.449313
O52   O     O_R   0.893338 0.537663 0.149587 -0.704159
O53   O     O_2   0.571614 0.204128 0.917422 -0.422562
O54   O     O_R   0.605845 0.056382 0.842450 -0.695751
O55   O     O_2   0.422654 0.206654 0.088409 -0.449313
O56   O     O_R   0.554100 0.919370 0.323500 -0.524472
O57   O     O_R   0.393338 0.037663 0.149587 -0.704159
O58   O     O_R   0.945900 0.419370 0.676500 -0.496206
O59   O     O_R   0.054100 0.419370 0.323500 -0.524472
O60   O     O_R   0.456660 0.717710 0.669820 -0.513321

loop_
_geom_bond_atom_site_label_1
_geom_bond_atom_site_label_2
_ccdc_geom_bond_type
C1    O18   A    
C18   C70   S    
C80   H7    S    
C112  H30   S    
C108  H21   S    
Cr9   O19   S    
C84   C101  A    
C4    C62   S    
C29   C42   S    
C35   C53   S    
Cr1   O1    S    
C14   C18   S    
C13   C32   A    
Cr3   O3    S    
Cr8   O44   S    
C81   H37   S    
C86   C104  A    
C46   Cl8   S    
C71   C79   S    
C107  H16   S    
C8    C118  S    
C90   C95   A    
C57   C115  S    
C11   C121  S    
C75   H56   S    
C61   C75   A    
Cr9   O24   S    
C15   C19   S    
C27   O52   S    
C20   C92   S    
C94   C120  A    
C50   C54   S    
Cr7   O43   S    
C65   O22   A    
C103  H39   S    
C53   H54   S    
C32   C36   A    
C14   C21   S    
C96   C118  A    
Cr6   O23   S    
C3    O43   A    
C41   C58   A    
C123  O41   A    
C36   C58   A    
C95   C112  S    
H58   O50   S    
C43   C114  A    
C30   C114  A    
C115  O32   A    
C48   O20   A    
C49   C53   S    
C10   O7    A    
C15   C25   S    
C20   C25   S    
C8    O36   A    
C44   Cl6   S    
C106  H15   S    
C55   H57   S    
C68   O30   A    
C66   O24   A    
C28   C41   S    
C72   C80   S    
C29   O57   S    
Cr6   O42   S    
C42   C46   A    
C3    C83   S    
C6    C64   S    
C89   C94   A    
C69   C71   A    
C70   C81   S    
C82   H8    S    
C3    O48   A    
C22   C66   S    
C123  O46   A    
C124  O42   A    
C34   C52   S    
C92   C103  S    
C5    O2    A    
C91   C109  S    
Cr4   O4    S    
C110  H24   S    
C105  H18   S    
Cr10  O25   S    
Cr3   O7    S    
C38   C55   S    
C96   H9    S    
C2    C44   A    
C54   H51   S    
C104  Cl4   S    
Cr5   O10   S    
C86   C122  S    
C5    O56   A    
C14   H32   S    
C56   C113  S    
C115  O12   A    
C10   O38   A    
H60   O54   S    
C9    O37   A    
Cr4   O30   S    
C27   C40   S    
C13   C37   S    
Cr12  O27   S    
C16   H35   S    
C16   C20   S    
C11   O8    A    
C99   C121  A    
C108  C112  S    
C117  O34   A    
C95   C121  A    
C55   H52   S    
Cr7   O39   S    
C98   C120  A    
C18   C22   S    
C85   C102  A    
C58   C116  S    
C53   H50   S    
C69   C78   S    
Cr12  O60   S    
C25   C68   S    
C19   H23   S    
C4    O45   A    
C31   C49   S    
C124  O47   A    
C34   C56   A    
Cr2   O32   S    
C82   H2    S    
C76   H62   S    
C7    O4    A    
C32   C50   S    
C112  H26   S    
C107  H20   S    
C87   C91   A    
C30   C34   A    
Cr2   O28   S    
C100  Cl1   S    
C22   C81   S    
C84   C88   A    
C30   C47   S    
C43   Cl5   S    
C36   C54   S    
C76   C77   A    
C37   O15   A    
C80   C82   S    
C102  Cl3   S    
C74   C75   A    
C42   C60   A    
C88   C93   A    
C78   C79   S    
C25   C103  S    
C39   C43   A    
C49   H46   S    
C48   O16   A    
C51   C55   S    
C2    C48   S    
C28   O53   D    
Cr2   O10   S    
C113  O31   A    
C19   C103  S    
C67   O29   A    
Cr1   O9    S    
C54   H55   S    
Cr3   O29   S    
Cr12  O31   S    
C66   O28   A    
C1    O14   A    
C111  H25   S    
C12   C17   S    
C19   C23   S    
C6    O58   A    
Cr6   O38   S    
Cr4   O13   S    
Cr9   O10   S    
C74   H45   S    
C88   C106  S    
C26   C39   S    
C97   C101  A    
C105  H14   S    
C87   C105  S    
Cr6   O16   S    
C94   C111  S    
C64   C73   A    
C62   C74   A    
Cr3   O11   S    
C89   C107  S    
C101  Cl2   S    
C64   C76   A    
C91   C118  A    
C5    C61   S    
C60   C117  S    
C39   C56   A    
C106  H19   S    
Cr11  O21   S    
C47   H42   S    
C7    O59   A    
C50   H47   S    
C7    C63   S    
C79   H4    S    
C68   O26   A    
C78   H3    S    
C12   H31   S    
C38   C60   A    
C117  O35   A    
Cr7   O17   S    
C80   H64   S    
Cr2   O2    S    
Cr6   O11   S    
C8    O5    A    
C16   C23   S    
C90   C108  S    
Cr11  O48   S    
C15   H33   S    
C116  O23   A    
C86   C90   A    
C17   H1    S    
C9    C119  S    
C12   C22   S    
C31   C35   A    
C51   H41   S    
C79   H6    S    
C84   C124  S    
Cr9   O46   S    
C59   O21   A    
C73   C82   S    
C18   H12   S    
H59   O52   S    
Cr11  O26   S    
C122  O40   A    
C63   C77   A    
C61   C69   A    
C105  C109  S    
C116  O33   A    
C67   O25   A    
C85   C89   A    
C40   C57   A    
Cr4   O35   S    
C21   C65   S    
C111  H29   S    
C107  C111  S    
C65   O27   A    
C50   H40   S    
C52   H49   S    
Cr10  O58   S    
C12   C14   S    
C72   C73   A    
Cr7   O34   S    
C97   H10   S    
C83   C87   A    
Cr11  O13   S    
Cr5   O41   S    
C45   Cl7   S    
C47   C52   S    
C6    O3    A    
C49   H43   S    
C9    O6    A    
C33   C51   S    
C27   O51   D    
C108  H17   S    
C93   C110  S    
Cr8   O22   S    
Cr8   O18   S    
C24   C33   A    
Cr2   O6    S    
C35   C57   A    
C21   C70   S    
C83   C100  A    
C11   O39   A    
Cr3   O33   S    
C99   H13   S    
C4    O60   A    
C47   H44   S    
C24   C46   A    
Cr12  O9    S    
Cr1   O36   S    
C99   C104  A    
C98   C102  A    
C29   O55   D    
C13   C45   A    
C77   H63   S    
C70   H36   S    
Cr12  O5    S    
C26   O49   D    
C23   C67   S    
C52   H53   S    
C59   C114  S    
C28   O54   S    
C96   C100  A    
Cr5   O12   S    
C97   C119  A    
Cr9   O56   S    
C62   C71   A    
Cr7   O13   S    
C85   C123  S    
C17   C81   S    
C59   O17   A    
C98   H11   S    
C17   C21   S    
Cr10  O11   S    
C10   C120  S    
C109  H22   S    
Cr10  O47   S    
Cr1   O40   S    
C122  O44   A    
C109  H27   S    
Cr8   O9    S    
C40   C44   A    
C63   C72   A    
C1    C24   S    
C106  C110  S    
Cr5   O37   S    
Cr11  O59   S    
C26   O50   S    
C51   H48   S    
C41   C45   A    
C23   C92   S    
C2    C31   A    
C33   C38   A    
C92   H38   S    
Cr8   O45   S    
C93   C119  A    
Cr4   O8    S    
Cr5   O15   S    
H61   O57   S    
C37   O19   A    
Cr10  O20   S    
C20   H34   S    
Cr1   O14   S    
C15   C16   S    
C78   H5    S    
C113  O1    A    
C110  H28   S    
