data_mof_unit_13681.cif
_audit_creation_date              2012-12-10T17:05:41-0500
_audit_creation_method            fapswitch 2.2
_symmetry_space_group_name_H-M    P1
_symmetry_Int_Tables_number       1
_space_group_crystal_system       triclinic
_cell_length_a                    15.904059
_cell_length_b                    10.827642
_cell_length_c                    9.895049
_cell_angle_alpha                 109.75584
_cell_angle_beta                  99.177223
_cell_angle_gamma                 91.769225
_cell_volume                      1576.53641724

loop_
_atom_site_label
_atom_site_type_symbol
_atom_type_description
_atom_site_fract_x
_atom_site_fract_y
_atom_site_fract_z
_atom_type_partial_charge
C1    C     C_R   0.497941 0.253620 0.443009 0.823496
C2    C     C_3   0.959207 0.446292 0.597470 -0.111173
C3    C     C_3   0.914719 0.512594 0.485958 -0.177458
C4    C     C_3   0.956295 0.669131 0.547346 0.482793
C5    C     C_3   0.058804 0.667689 0.531081 0.257931
C6    C     C_1   0.823350 0.508474 0.494588 0.180330
C7    C     C_1   0.175596 0.509151 0.493377 0.141679
C8    C     C_1   0.251272 0.504458 0.498862 -0.113822
C9    C     C_2   0.504334 0.112694 0.418352 -0.006374
C10   C     C_2   0.560904 0.073238 0.511732 0.137621
C11   C     C_2   0.523413 0.887549 0.582611 -0.332479
C12   C     C_R   0.340517 0.500166 0.499837 0.816089
C13   C     C_2   0.561642 0.933059 0.493793 0.169790
C14   C     C_2   0.511945 0.504240 0.080575 -0.055064
C15   C     C_2   0.493488 0.486379 0.921071 0.338330
C16   C     C_R   0.510351 0.746503 0.557281 0.861640
C17   C     C_R   0.659422 0.500479 0.500073 0.788745
C18   C     C_3   0.058143 0.463500 0.610274 -0.093415
C19   C     C_3   0.031766 0.414355 0.324932 0.402021
C20   C     C_3   0.928194 0.422326 0.321265 0.390953
C21   C     C_1   0.748573 0.504196 0.499608 -0.070932
C22   C     C_3   0.082540 0.514131 0.485464 -0.093663
Cu1   Cu    Cu3+1 0.514650 0.521810 0.644910 0.950665
Cu2   Cu    Cu3+1 0.485350 0.478190 0.355090 0.982205
H1    H     H_    0.076724 0.544115 0.713376 0.233363
H2    H     H_    0.943599 0.505166 0.702491 0.269380
H3    H     H_    0.499179 0.956033 0.673283 0.136108
H4    H     H_    0.567688 0.565651 0.151307 0.167779
H5    H     H_    0.408391 0.388293 0.077033 0.219928
N1    N     N_2   0.463320 0.445430 0.137380 -0.292320
N2    N     N_2   0.536720 0.554500 0.862620 -0.142237
O1    O     O_R   0.507820 0.332330 0.577400 -0.597835
O2    O     O_R   0.483070 0.295500 0.332660 -0.563911
O3    O     O_R   0.391820 0.518430 0.622420 -0.592700
O4    O     O_R   0.367070 0.481600 0.377680 -0.532197
O5    O     O_R   0.516930 0.704500 0.667340 -0.567984
O6    O     O_R   0.492180 0.667670 0.422600 -0.559260
O7    O     O_R   0.632930 0.518400 0.622320 -0.567745
O8    O     O_R   0.608180 0.481570 0.377580 -0.555609
C23   C     C_3   0.921785 0.312359 0.599686 -0.735304
H6    H     H_    0.927256 0.314473 0.714157 0.275800
H7    H     H_    0.852596 0.291520 0.552351 0.222494
H8    H     H_    0.956801 0.227674 0.547933 0.262269
S1    S     S_3+6 0.888812 0.775736 0.464327 0.132918
O9    O     O_2   0.928383 0.831978 0.368160 -0.152469
O10   O     O_2   0.805196 0.702728 0.377066 -0.306001
O11   O     O_3   0.861815 0.909900 0.591301 -0.429343
H9    H     H_    0.800335 0.892879 0.591952 0.361189
C24   C     C_3   0.606904 0.847705 0.377873 -0.756159
H10   H     H_    0.559062 0.784638 0.283915 0.222687
H11   H     H_    0.646801 0.909103 0.337786 0.235220
H12   H     H_    0.649434 0.785985 0.422565 0.243793
C25   C     C_3   0.627264 0.166616 0.633519 -0.767871
H13   H     H_    0.674907 0.111223 0.678722 0.241553
H14   H     H_    0.662573 0.232035 0.591841 0.219604
H15   H     H_    0.596557 0.226036 0.724537 0.251422
C26   C     C_3   0.444960 0.014090 0.289618 -0.846891
H16   H     H_    0.399728 0.063959 0.232167 0.240671
H17   H     H_    0.482612 0.953628 0.210203 0.242565
H18   H     H_    0.406504 0.948915 0.327187 0.255505
C27   C     C_3   0.420370 0.382867 0.831233 -0.775595
H19   H     H_    0.432662 0.288100 0.847857 0.186942
H20   H     H_    0.359441 0.416049 0.866392 0.195848
H21   H     H_    0.408058 0.357162 0.714007 0.271958
C28   C     C_3   0.608010 0.648920 0.950899 -0.518215
H22   H     H_    0.635825 0.695346 0.881994 0.243882
H23   H     H_    0.585974 0.728468 0.038853 0.155986
H24   H     H_    0.658989 0.598931 0.997085 0.210922
C29   C     C_3   0.112817 0.363725 0.659880 -0.785956
H25   H     H_    0.178551 0.410667 0.712785 0.217228
H26   H     H_    0.085677 0.338161 0.744694 0.271030
H27   H     H_    0.121829 0.271348 0.574796 0.235974
S2    S     S_3+6 0.075206 0.426613 0.162819 0.085304
O12   O     O_2   0.023518 0.491905 0.070814 -0.152602
O13   O     O_2   0.163694 0.495939 0.208967 -0.253127
O14   O     O_3   0.084399 0.275080 0.045143 -0.520634
H28   H     H_    0.123396 0.288954 0.981843 0.366081
C30   C     C_3   0.055802 0.271665 0.311244 -0.729256
H29   H     H_    0.125959 0.264671 0.322284 0.233896
H30   H     H_    0.033431 0.234416 0.389356 0.204028
H31   H     H_    0.025877 0.196879 0.205058 0.278744
C31   C     C_3   0.878823 0.280328 0.275025 -0.710461
H32   H     H_    0.809750 0.285084 0.280178 0.233568
H33   H     H_    0.882579 0.218844 0.161268 0.268372
H34   H     H_    0.900346 0.215826 0.334374 0.202108
S3    S     S_3+6 0.867252 0.467595 0.170792 0.075789
O15   O     O_2   0.873968 0.364432 0.026844 -0.251295
O16   O     O_2   0.773891 0.464597 0.181101 -0.298372
O17   O     O_3   0.895445 0.612783 0.158697 -0.388535
H35   H     H_    0.856106 0.617503 0.072555 0.378827
C32   C     C_3   0.120281 0.755003 0.678488 -0.637782
H36   H     H_    0.119143 0.734077 0.778838 0.230711
H37   H     H_    0.188697 0.751221 0.668072 0.212552
H38   H     H_    0.108915 0.860476 0.708845 0.294582
S4    S     S_3+6 0.095557 0.754682 0.416014 0.086112
O18   O     O_2   0.188897 0.739869 0.411729 -0.283645
O19   O     O_2   0.048925 0.711845 0.262600 -0.140948
O20   O     O_3   0.087034 0.917540 0.492343 -0.498862
H39   H     H_    0.113607 0.958973 0.432289 0.366165
S5    S     S_3+6 0.944930 0.751492 0.744334 -0.019294
O21   O     O_2   0.974616 0.895714 0.794546 -0.202970
O22   O     O_2   0.851914 0.740193 0.755023 -0.311623
O23   O     O_3   0.998804 0.696658 0.870810 -0.585713
H40   H     H_    0.978974 0.744801 0.962848 0.419962

loop_
_geom_bond_atom_site_label_1
_geom_bond_atom_site_label_2
_ccdc_geom_bond_type
C20   C31   S    
C29   H27   S    
S2    O12   D    
S4    O18   D    
C3    C6    S    
S4    O20   S    
C1    O2    A    
C7    C8    T    
C25   H13   S    
C31   H34   S    
O20   H39   S    
S3    O16   D    
C26   H17   S    
C2    C18   S    
Cu1   O5    S    
Cu2   O8    S    
C27   H20   S    
C17   O8    A    
C29   H26   S    
C10   C25   S    
C23   H8    S    
C5    C22   S    
C19   C20   S    
C28   H23   S    
C20   S3    S    
Cu1   Cu2   S    
C9    C10   D    
C9    C26   S    
S1    O11   S    
C16   O6    A    
Cu1   O3    S    
C18   C29   S    
C23   H7    S    
C18   C22   S    
S2    O13   D    
C29   H25   S    
C18   H1    S    
C14   N1    D    
C5    S4    S    
S1    O10   D    
C25   H14   S    
Cu2   O4    S    
C19   S2    S    
C19   C22   S    
C1    C9    S    
O14   H28   S    
C32   H36   S    
C30   H29   S    
C26   H18   S    
C4    S1    S    
C24   H11   S    
C6    C21   T    
S3    O17   S    
S5    O23   S    
C17   C21   S    
Cu1   N2    S    
C27   H21   S    
H5    N1    S    
C32   H37   S    
C11   C16   S    
O11   H9    S    
C11   H3    S    
C8    C12   S    
C24   H12   S    
S5    O22   D    
Cu2   O6    S    
C15   C27   S    
C3    C20   S    
C2    H2    S    
C12   O4    A    
C5    C32   S    
C13   C24   S    
C23   H6    S    
C24   H10   S    
C31   H33   S    
C4    S5    S    
S2    O14   S    
C28   H24   S    
C12   O3    A    
C3    C4    S    
Cu1   O7    S    
S1    O9    D    
C25   H15   S    
N2    C28   S    
S3    O15   D    
C4    C5    S    
C10   C13   S    
S4    O19   D    
C15   N2    D    
C7    C22   S    
Cu2   O2    S    
C19   C30   S    
Cu1   O1    S    
C2    C3    S    
C28   H22   S    
C16   O5    A    
C32   H38   S    
C11   C13   D    
C30   H31   S    
C26   H16   S    
S5    O21   D    
C30   H30   S    
C17   O7    A    
C1    O1    A    
C27   H19   S    
Cu2   N1    S    
C2    C23   S    
C31   H32   S    
O23   H40   S    
C14   C15   S    
C14   H4    S    
O17   H35   S    
