data_mof_unit_57938.cif
_audit_creation_date              2012-12-10T16:47:56-0500
_audit_creation_method            fapswitch 2.2
_symmetry_space_group_name_H-M    P1
_symmetry_Int_Tables_number       1
_space_group_crystal_system       triclinic
_cell_length_a                    7.767643
_cell_length_b                    8.58203
_cell_length_c                    10.636676
_cell_angle_alpha                 90.626454
_cell_angle_beta                  86.30123
_cell_angle_gamma                 93.538227
_cell_volume                      706.220689422

loop_
_atom_site_label
_atom_site_type_symbol
_atom_type_description
_atom_site_fract_x
_atom_site_fract_y
_atom_site_fract_z
_atom_type_partial_charge
C1    C     C_R   0.545715 0.794715 0.496810 0.960955
C2    C     C_2   0.569793 0.958123 0.494841 -0.360841
C3    C     C_2   0.358450 0.657380 0.091956 0.922594
C4    C     C_2   0.430191 0.041861 0.504890 -0.365363
C5    C     C_R   0.502478 0.496801 0.737629 0.930413
C6    C     C_R   0.454282 0.205289 0.503115 0.964593
C7    C     C_R   0.499868 0.514960 0.262548 0.864656
C8    C     C_2   0.649194 0.548814 0.060172 -0.204013
C9    C     C_2   0.504266 0.568117 0.133766 -0.205265
C10   C     C_2   0.648676 0.550355 0.924536 -0.106169
C11   C     C_2   0.509305 0.490322 0.870220 -0.281863
H1    H     H_    0.765234 0.508132 0.097538 0.200971
H2    H     H_    0.764772 0.593059 0.869884 0.169485
H3    H     H_    0.395755 0.440757 0.924030 0.142788
H4    H     H_    0.701703 0.009010 0.485197 0.181944
H5    H     H_    0.298281 0.990967 0.514510 0.182871
H6    H     H_    0.013263 0.382423 0.406436 0.203940
H7    H     H_    0.283203 0.828968 0.983297 0.340311
H8    H     H_    0.986734 0.617607 0.593541 0.189539
N1    N     N_2   0.950320 0.457950 0.466680 -0.161669
N2    N     N_2   0.049680 0.542050 0.533320 -0.167131
O1    O     O_R   0.389250 0.738570 0.508180 -0.611072
O2    O     O_R   0.391784 0.777594 0.004284 -0.787897
O3    O     O_R   0.678390 0.711630 0.486820 -0.628521
O4    O     O_R   0.355470 0.513470 0.691600 -0.611576
O5    O     O_R   0.644610 0.486520 0.670240 -0.630878
O6    O     O_R   0.321610 0.288370 0.513180 -0.632330
O7    O     O_R   0.610750 0.261430 0.491820 -0.611688
O8    O     O_R   0.355390 0.513480 0.329760 -0.584940
O9    O     O_R   0.644530 0.486530 0.308400 -0.612159
O10   O     O_2   0.210477 0.627023 0.134966 -0.627214
Zn1   Zn    Zn3+2 0.306940 0.517990 0.514260 0.973781
Zn2   Zn    Zn3+2 0.693060 0.482010 0.485740 0.961749

loop_
_geom_bond_atom_site_label_1
_geom_bond_atom_site_label_2
_ccdc_geom_bond_type
C4    H5    S    
C2    C4    D    
C7    O8    A    
O5    Zn2   S    
C3    O2    S    
O3    Zn2   S    
C8    H1    S    
O4    Zn1   S    
C1    O1    A    
C7    O9    A    
C3    O10   D    
C2    H4    S    
O1    Zn1   S    
H7    O2    S    
C5    O4    A    
N1    Zn2   S    
C8    C10   S    
H8    N2    S    
O7    Zn2   S    
C5    C11   S    
O8    Zn1   S    
N2    Zn1   S    
C3    C9    S    
C10   C11   D    
C5    O5    A    
H6    N1    S    
N1    N2    D    
C1    O3    A    
C4    C6    S    
C1    C2    S    
C11   H3    S    
C7    C9    S    
O9    Zn2   S    
O6    Zn1   S    
C6    O7    A    
C6    O6    A    
C8    C9    D    
C10   H2    S    
