data_mof_unit_37428.cif
_audit_creation_date              2013-03-05T16:11:19-0500
_audit_creation_method            fapswitch 2.2
_symmetry_space_group_name_H-M    P1
_symmetry_Int_Tables_number       1
_space_group_crystal_system       triclinic
_cell_length_a                    15.865579
_cell_length_b                    10.740478
_cell_length_c                    9.430799
_cell_angle_alpha                 89.992489
_cell_angle_beta                  89.98675
_cell_angle_gamma                 89.995655
_cell_volume                      1607.04488913

loop_
_atom_site_label
_atom_site_type_symbol
_atom_site_description
_atom_site_fract_x
_atom_site_fract_y
_atom_site_fract_z
_atom_type_partial_charge
O1    O     O_R   0.500050 0.317570 0.620260 -0.607048
O2    O     O_R   0.499980 0.317810 0.379740 -0.568960
C1    C     C_R   0.499113 0.259918 0.499683 0.831924
O3    O     O_R   0.379110 0.499870 0.620240 -0.597123
O4    O     O_R   0.379040 0.500110 0.379720 -0.542886
C2    C     C_R   0.339851 0.499925 0.500002 0.830056
Cu1   Cu    Cu3+1 0.500040 0.499860 0.642410 0.916667
Cu2   Cu    Cu3+1 0.499960 0.500140 0.357590 1.008895
O5    O     O_R   0.500020 0.682190 0.620260 -0.602215
O6    O     O_R   0.499950 0.682430 0.379740 -0.568217
O7    O     O_R   0.620960 0.499890 0.620280 -0.589440
O8    O     O_R   0.620890 0.500130 0.379760 -0.515954
C3    C     C_R   0.499761 0.740113 0.499805 0.791635
C4    C     C_R   0.660128 0.500156 0.499959 0.864138
C5    C     C_3   0.971870 0.395620 0.560994 -0.178279
C6    C     C_3   0.028638 0.399169 0.426661 -0.213462
H1    H     H_    0.052524 0.317543 0.366657 0.162901
H2    H     H_    0.947588 0.310221 0.613246 0.182650
C7    C     C_1   0.250157 0.499879 0.499894 -0.183255
C8    C     C_1   0.749786 0.500212 0.499693 -0.071351
C9    C     C_3   0.027963 0.495905 0.632563 -0.112507
C10   C     C_3   0.082962 0.499887 0.498264 0.113019
C11   C     C_3   0.971957 0.600360 0.568942 -0.204574
C12   C     C_3   0.916996 0.500068 0.497731 0.067514
C13   C     C_3   0.028718 0.604766 0.434641 -0.214022
C14   C     C_3   0.973265 0.503943 0.366728 0.394061
C15   C     C_1   0.174607 0.499855 0.499335 -0.028116
C16   C     C_1   0.825317 0.500153 0.498999 0.055880
H3    H     H_    0.052672 0.689754 0.381100 0.161704
H4    H     H_    0.947774 0.682476 0.627723 0.170791
H5    H     H_    0.052039 0.492571 0.743021 0.173262
C17   C     C_3   0.580666 0.071647 0.572884 0.142660
H6    H     H_    0.578218 0.101203 0.686241 0.119013
C18   C     C_3   0.580938 0.927266 0.571330 -0.432081
H7    H     H_    0.637444 0.890296 0.515493 0.201038
H8    H     H_    0.584314 0.892326 0.682376 0.152189
H9    H     H_    0.427476 0.102264 0.697127 0.178439
H10   H     H_    0.419812 0.890779 0.689249 0.184071
C19   C     C_3   0.422828 0.071787 0.584543 -0.464911
C20   C     C_3   0.493301 0.070557 0.342978 0.262444
C21   C     C_3   0.499217 0.121927 0.498456 -0.014067
H11   H     H_    0.547666 0.105480 0.280499 0.183145
C22   C     C_3   0.499820 0.877962 0.498793 0.056651
C23   C     C_3   0.421319 0.928042 0.579120 -0.399089
C24   C     C_3   0.497672 0.927501 0.343885 -0.415143
H12   H     H_    0.555452 0.897038 0.286359 0.162749
H13   H     H_    0.442958 0.887331 0.285759 0.196442
H14   H     H_    0.362435 0.110240 0.543884 0.181460
H15   H     H_    0.362803 0.896247 0.525031 0.169467
C25   C     C_3   0.548260 0.610349 0.083808 0.412746
H16   H     H_    0.517648 0.697542 0.121804 0.118316
C26   C     C_3   0.546100 0.612715 0.916053 -0.238538
H17   H     H_    0.514630 0.700075 0.881402 0.122652
H18   H     H_    0.611176 0.616593 0.872334 0.180272
H19   H     H_    0.607218 0.376442 0.123836 0.225553
H20   H     H_    0.609857 0.386178 0.877212 0.195826
C27   C     C_3   0.542028 0.387102 0.082367 -0.262524
C28   C     C_3   0.414509 0.505403 0.083770 0.306140
N1    N     N_3   0.501840 0.500250 0.143650 -0.137556
H21   H     H_    0.379094 0.421742 0.121130 0.116083
N2    N     N_3   0.501160 0.503300 0.856280 -0.153821
C29   C     C_3   0.543548 0.390536 0.915230 -0.213728
C30   C     C_3   0.414583 0.504838 0.916251 -0.251829
H22   H     H_    0.380083 0.587590 0.875252 0.179719
H23   H     H_    0.379179 0.421801 0.878386 0.136175
H24   H     H_    0.507172 0.302559 0.116642 0.170418
H25   H     H_    0.511996 0.304986 0.875788 0.156794
O9    O     O_3   0.420415 0.113323 0.272241 -0.752715
H26   H     H_    0.370647 0.068468 0.310129 0.334621
O10   O     O_3   0.632291 0.610666 0.130832 -0.693986
H27   H     H_    0.654852 0.695523 0.113236 0.306298
O11   O     O_3   0.372680 0.612691 0.132608 -0.734174
H28   H     H_    0.311643 0.599886 0.114416 0.314317
N3    N     N_R   0.944777 0.508384 0.219895 0.124610
O12   O     O_R   0.999827 0.511276 0.117786 -0.371470
O13   O     O_R   0.864797 0.509520 0.189813 -0.330799
N4    N     N_R   0.658480 0.122778 0.511447 0.110773
O14   O     O_R   0.685713 0.086568 0.387952 -0.386110
O15   O     O_R   0.704661 0.198436 0.586081 -0.376229

loop_
_geom_bond_atom_site_label_1
_geom_bond_atom_site_label_2
_geom_bond_distance
_ccdc_geom_bond_type
C23   H15   1.113124 S    
C5    H2    1.110140 S    
C30   H23   1.112955 S    
C27   H24   1.111190 S    
Cu1   Cu2   2.686081 S    
C19   C21   1.554839 S    
C24   H12   1.114217 S    
Cu1   O7    1.929735 S    
C2    C7    1.423035 S    
C9    H5    1.110182 S    
N3    O13   1.300363 A    
C29   H25   1.110623 S    
C25   N1    1.503005 S    
C12   C14   1.524657 S    
C26   N2    1.485816 S    
Cu2   N1    2.017839 S    
O4    C2    1.293452 A    
O7    C4    1.293617 A    
C27   N1    1.489065 S    
C28   H21   1.116766 S    
C5    C6    1.554692 S    
C18   H7    1.112868 S    
C24   H13   1.113787 S    
N2    C30   1.485450 S    
O5    C3    1.295117 A    
Cu1   N2    2.017392 S    
C17   N4    1.470081 S    
C1    C21   1.482142 S    
C6    H1    1.110150 S    
C10   C13   1.539303 S    
C25   C26   1.582640 S    
C11   C12   1.540228 S    
O10   H27   0.993130 S    
C7    C15   1.198665 T    
C20   H11   1.109775 S    
C9    C10   1.538457 S    
C6    C14   1.535427 S    
O3    Cu1   1.930033 S    
C26   H18   1.112440 S    
N4    O15   1.301165 A    
C13   H3    1.110154 S    
C20   C24   1.538072 S    
N3    O12   1.300279 A    
C11   H4    1.110113 S    
C4    C8    1.422468 S    
C27   C29   1.576843 S    
O3    C2    1.293878 A    
O9    H26   0.991518 S    
C8    C16   1.198358 T    
C13   C14   1.535411 S    
N4    O14   1.301624 A    
O1    C1    1.294958 A    
C17   C18   1.550801 S    
C22   C23   1.553689 S    
H10   C23   1.113253 S    
Cu2   O8    1.930033 S    
C25   H16   1.114108 S    
C22   C24   1.555093 S    
C5    C12   1.540226 S    
O8    C4    1.293398 A    
C10   C15   1.454045 S    
H19   C27   1.111736 S    
H20   C29   1.112351 S    
C17   C21   1.566650 S    
C3    C22   1.480595 S    
C26   H17   1.111940 S    
C28   C30   1.579848 S    
Cu1   O5    1.969395 S    
C20   C21   1.569554 S    
C6    C10   1.539359 S    
O1    Cu1   1.969020 S    
O2    Cu2   1.969393 S    
C18   C22   1.550908 S    
C12   C16   1.454587 S    
O11   H28   0.993097 S    
O6    C3    1.290797 A    
O4    Cu2   1.929736 S    
C19   C23   1.544927 S    
C17   H6    1.115886 S    
C9    C11   1.551816 S    
O2    C1    1.290787 A    
C28   N1    1.497349 S    
H9    C19   1.113574 S    
C28   O11   1.407238 S    
C14   N3    1.457526 S    
C18   H8    1.113709 S    
C11   C13   1.554626 S    
C25   O10   1.405123 S    
N2    C29   1.492675 S    
C30   H22   1.113105 S    
C5    C9    1.551890 S    
Cu2   O6    1.969022 S    
C20   O9    1.411890 S    
C19   H14   1.111649 S    
