data_mof_unit_44319.cif
_audit_creation_date              2012-12-11T16:24:23-0500
_audit_creation_method            fapswitch 2.2
_symmetry_space_group_name_H-M    P1
_symmetry_Int_Tables_number       1
_space_group_crystal_system       triclinic
_cell_length_a                    14.75723
_cell_length_b                    14.771465
_cell_length_c                    33.268409
_cell_angle_alpha                 96.064368
_cell_angle_beta                  96.250479
_cell_angle_gamma                 61.207133
_cell_volume                      6305.87509693

loop_
_atom_site_label
_atom_site_type_symbol
_atom_type_description
_atom_site_fract_x
_atom_site_fract_y
_atom_site_fract_z
_atom_type_partial_charge
C1    C     C_R   0.390961 0.699554 0.446106 0.546249
C2    C     C_1   0.314265 0.339721 0.229122 -0.015255
C3    C     C_1   0.319570 0.343932 0.265468 -0.015336
C4    C     C_R   0.405820 0.386374 0.434005 0.544349
C5    C     C_R   0.291302 0.294209 0.101810 0.019544
C6    C     C_R   0.756308 0.373283 0.410152 0.022089
C7    C     C_R   0.789493 0.435020 0.393605 -0.129458
C8    C     C_R   0.818720 0.414316 0.353905 -0.118795
C9    C     C_R   0.815556 0.331367 0.330107 0.035570
C10   C     C_R   0.791871 0.263884 0.347877 -0.120573
C11   C     C_R   0.762378 0.284731 0.387628 -0.131244
C12   C     C_R   0.329714 0.347579 0.308766 0.041666
C13   C     C_R   0.834849 0.311862 0.204748 0.347115
C14   C     C_R   0.827012 0.321802 0.286237 0.347320
C15   C     C_R   0.835627 0.390238 0.142224 -0.119474
C16   C     C_R   0.700695 0.410018 0.447523 0.546408
C17   C     C_R   0.865646 0.379040 0.103021 -0.129952
C18   C     C_R   0.909304 0.197939 0.099163 -0.131045
C19   C     C_R   0.879173 0.209184 0.138468 -0.119979
C20   C     C_R   0.846801 0.304286 0.160981 0.034260
C21   C     C_R   0.907434 0.281674 0.081903 0.021726
C22   C     C_R   0.370855 0.754463 0.409065 0.022045
C23   C     C_R   0.411387 0.264882 0.328473 -0.108106
C24   C     C_R   0.276884 0.783867 0.385753 -0.129981
C25   C     C_R   0.266748 0.811835 0.346212 -0.119509
C26   C     C_R   0.350279 0.811174 0.329348 0.035046
C27   C     C_R   0.440697 0.791347 0.353917 -0.119720
C28   C     C_R   0.393618 0.701207 0.561283 0.547623
C29   C     C_R   0.450941 0.763141 0.393502 -0.130546
C30   C     C_R   0.343665 0.828323 0.204312 0.348037
C31   C     C_R   0.346226 0.821585 0.285586 0.348241
C32   C     C_R   0.258702 0.831615 0.135170 -0.119444
C33   C     C_R   0.238938 0.862276 0.095629 -0.130318
C34   C     C_R   0.431376 0.274038 0.370221 -0.124426
C35   C     C_R   0.381739 0.901588 0.104885 -0.131530
C36   C     C_R   0.401573 0.870800 0.144489 -0.120720
C37   C     C_R   0.336950 0.840392 0.160559 0.035283
C38   C     C_R   0.297012 0.902360 0.080832 0.021852
C39   C     C_R   0.371636 0.369187 0.585131 0.022146
C40   C     C_R   0.407382 0.388867 0.549018 0.545748
C41   C     C_R   0.285161 0.448640 0.603978 -0.131236
C42   C     C_R   0.266054 0.439370 0.643065 -0.121640
C43   C     C_R   0.333216 0.350592 0.663856 0.034668
C44   C     C_R   0.413930 0.267524 0.643560 -0.119322
C45   C     C_R   0.393886 0.252660 0.165919 -0.108138
C46   C     C_R   0.432885 0.276667 0.604516 -0.129561
C47   C     C_R   0.318759 0.348042 0.788567 0.346096
C48   C     C_R   0.325515 0.347909 0.707421 0.346354
C49   C     C_R   0.218557 0.403454 0.850499 -0.121309
C50   C     C_R   0.207331 0.383840 0.889246 -0.131349
C51   C     C_R   0.386345 0.249085 0.893074 -0.129069
C52   C     C_R   0.701193 0.413734 0.562719 0.543203
C53   C     C_R   0.397518 0.268628 0.854411 -0.118309
C54   C     C_R   0.312348 0.342523 0.832025 0.034178
C55   C     C_R   0.289769 0.303025 0.910006 0.021637
C56   C     C_R   0.384912 0.234319 0.124076 -0.124567
C57   C     C_R   0.753426 0.381186 0.603078 0.020411
C58   C     C_R   0.775445 0.449397 0.629914 -0.126803
C59   C     C_R   0.803014 0.429205 0.670752 -0.108576
C60   C     C_R   0.809434 0.340555 0.685145 0.041125
C61   C     C_R   0.793846 0.269155 0.658287 -0.110820
C62   C     C_R   0.766232 0.289132 0.617430 -0.125488
C63   C     C_R   0.884789 0.213301 0.822926 -0.110193
C64   C     C_R   0.369958 0.366454 0.392565 0.019915
C65   C     C_R   0.912994 0.201736 0.864278 -0.126694
C66   C     C_R   0.870708 0.382609 0.873623 -0.125699
C67   C     C_R   0.209715 0.377623 0.121789 -0.125369
C68   C     C_R   0.842366 0.393966 0.832330 -0.109007
C69   C     C_R   0.852316 0.308661 0.806786 0.041062
C70   C     C_1   0.836717 0.317588 0.763786 -0.018243
C71   C     C_1   0.825056 0.326728 0.727827 -0.018149
C72   C     C_R   0.909696 0.285474 0.889789 0.019267
C73   C     C_R   0.377310 0.754329 0.602099 0.011219
C74   C     C_R   0.283757 0.786985 0.619930 -0.130402
C75   C     C_R   0.275908 0.815905 0.661137 -0.143149
C76   C     C_R   0.283443 0.446266 0.372834 -0.125679
C77   C     C_R   0.361057 0.812924 0.685242 0.053084
C78   C     C_R   0.218895 0.395655 0.163669 -0.107882
C79   C     C_R   0.453973 0.786876 0.667319 0.029182
C80   C     C_R   0.460645 0.758065 0.625727 -0.158143
C81   C     C_R   0.397888 0.882126 0.833071 -0.099996
C82   C     C_R   0.377796 0.910098 0.873834 -0.130307
C83   C     C_R   0.227807 0.881901 0.862833 -0.124052
C84   C     C_R   0.248162 0.853893 0.822110 -0.119023
C85   C     C_R   0.331455 0.856770 0.806999 0.035161
C86   C     C_1   0.344157 0.840779 0.764304 0.014421
C87   C     C_1   0.352586 0.828828 0.728334 0.049753
C88   C     C_R   0.263765 0.436915 0.331056 -0.108452
C89   C     C_R   0.309782 0.331144 0.185818 0.041536
C90   C     C_R   0.290504 0.913548 0.888831 0.019805
C91   C     C_R   0.963505 0.264208 0.045527 0.545971
C92   C     C_R   0.272740 0.259419 0.060033 0.544064
C93   C     C_R   0.259262 0.959613 0.043762 0.545755
C94   C     C_R   0.962536 0.267647 0.930744 0.542681
C95   C     C_R   0.270854 0.264057 0.945386 0.545455
C96   C     C_R   0.256115 0.964978 0.928980 0.543550
C97   C     C_2   0.547057 0.784504 0.690504 0.222788
Cr1   Cr    Cr6+3 0.576280 0.580550 0.506370 1.012700
Cr2   Cr    Cr6+3 0.346780 0.572400 0.496520 1.012967
Cr3   Cr    Cr6+3 0.576960 0.347070 0.497150 1.013120
Cr4   Cr    Cr6+3 0.087320 0.083240 0.984860 1.014082
Cr5   Cr    Cr6+3 0.087720 0.316210 0.996740 1.013832
Cr6   Cr    Cr6+3 0.317350 0.090340 0.995890 1.014202
H1    H     H_    0.449097 0.169627 0.109588 0.129709
H2    H     H_    0.524074 0.741660 0.410892 0.129891
H3    H     H_    0.173993 0.860662 0.077585 0.130407
H4    H     H_    0.464689 0.202658 0.182952 0.118034
H5    H     H_    0.195224 0.828881 0.328260 0.136627
H6    H     H_    0.505908 0.791536 0.341899 0.135828
H7    H     H_    0.208945 0.806356 0.146450 0.135264
H8    H     H_    0.428374 0.931397 0.094169 0.130058
H9    H     H_    0.463360 0.877063 0.163188 0.134833
H10   H     H_    0.236123 0.520672 0.589659 0.129392
H11   H     H_    0.499407 0.213627 0.590579 0.130889
H12   H     H_    0.737941 0.235256 0.399706 0.129344
H13   H     H_    0.132067 0.427147 0.901663 0.131253
H14   H     H_    0.202444 0.504184 0.657773 0.132824
H15   H     H_    0.465763 0.197207 0.658523 0.137979
H16   H     H_    0.462578 0.195301 0.311328 0.117734
H17   H     H_    0.151893 0.461835 0.834155 0.134422
H18   H     H_    0.451670 0.187289 0.908610 0.131336
H19   H     H_    0.471490 0.221896 0.841295 0.137510
H20   H     H_    0.943240 0.125809 0.875721 0.128864
H21   H     H_    0.892558 0.146876 0.803318 0.113142
H22   H     H_    0.798946 0.200171 0.669199 0.112912
H23   H     H_    0.861952 0.445301 0.090239 0.130693
H24   H     H_    0.749613 0.235163 0.597600 0.126543
H25   H     H_    0.765784 0.521153 0.619921 0.125076
H26   H     H_    0.816960 0.468183 0.820059 0.119272
H27   H     H_    0.867245 0.448530 0.892439 0.129075
H28   H     H_    0.498448 0.211229 0.384520 0.129350
H29   H     H_    0.815168 0.484820 0.691389 0.119189
H30   H     H_    0.427409 0.934296 0.893007 0.130197
H31   H     H_    0.462717 0.884288 0.821573 0.147757
H32   H     H_    0.533167 0.733410 0.612204 0.112354
H33   H     H_    0.218215 0.785023 0.602530 0.132577
H34   H     H_    0.838758 0.466483 0.341275 0.135162
H35   H     H_    0.196514 0.834044 0.802079 0.111856
H36   H     H_    0.159951 0.883900 0.873388 0.129271
H37   H     H_    0.204355 0.836286 0.674620 0.111024
H38   H     H_    0.234743 0.518440 0.389168 0.128765
H39   H     H_    0.153573 0.456807 0.178941 0.118061
H40   H     H_    0.136586 0.425036 0.105519 0.130197
H41   H     H_    0.200198 0.501161 0.315934 0.116916
H42   H     H_    0.786821 0.503106 0.410401 0.130592
H43   H     H_    0.618561 0.755470 0.675526 0.092401
H44   H     H_    0.789953 0.198617 0.330401 0.134350
H45   H     H_    0.808774 0.465129 0.158527 0.137251
H46   H     H_    0.940690 0.122019 0.083474 0.131673
H47   H     H_    0.887423 0.141851 0.151993 0.137004
H48   H     H_    0.213343 0.779081 0.397093 0.130589
N1    N     N_R   0.828537 0.395708 0.227908 -0.229551
N2    N     N_R   0.422964 0.827919 0.269029 -0.230308
N3    N     N_R   0.421332 0.831937 0.229166 -0.230222
N4    N     N_R   0.239980 0.422750 0.766792 -0.235039
N5    N     N_R   0.243634 0.423093 0.727008 -0.235144
N6    N     N_R   0.404085 0.273366 0.729232 -0.226718
N7    N     N_R   0.400617 0.273244 0.768951 -0.226353
N8    N     N_R   0.824365 0.400723 0.267802 -0.229051
N9    N     N_R   0.833062 0.237863 0.263110 -0.230246
N10   N     N_R   0.837657 0.232659 0.223137 -0.230068
N11   N     N_R   0.267284 0.821634 0.220909 -0.229832
N12   N     N_R   0.268730 0.817965 0.260705 -0.229529
O1    O     O_R   0.679450 0.499830 0.463150 -0.519057
O2    O     O_R   0.340240 0.172500 0.045430 -0.519509
O3    O     O_R   0.309670 0.000990 0.032050 -0.501958
O4    O     O_R   0.480650 0.664000 0.464630 -0.501469
O5    O     O_R   0.168330 0.982130 0.939200 -0.520398
O6    O     O_R   0.000140 0.178170 0.944610 -0.501931
O7    O     O_R   0.983010 0.336750 0.948660 -0.519508
O8    O     O_R   0.181800 0.312190 0.959860 -0.502143
O9    O     O_R   0.338500 0.175680 0.956950 -0.519051
O10   O     O_R   0.308050 0.003930 0.950020 -0.501115
O11   O     O_3   0.164130 0.163270 0.992500 -0.236932
O12   O     O_R   0.356040 0.477400 0.534170 -0.502304
O13   O     O_R   0.323930 0.675950 0.455370 -0.519940
O14   O     O_R   0.354700 0.475360 0.451930 -0.501892
O15   O     O_R   0.494470 0.320860 0.448390 -0.519227
O16   O     O_R   0.662580 0.357570 0.460050 -0.502044
O17   O     O_R   0.680900 0.502040 0.551870 -0.520455
O18   O     O_R   0.481990 0.666040 0.546870 -0.501732
O19   O     O_R   0.325370 0.678160 0.544080 -0.519017
O20   O     O_2   0.545549 0.815636 0.726027 -0.507823
O21   O     O_R   0.495910 0.323070 0.537100 -0.519416
O22   O     O_R   0.663920 0.359620 0.542290 -0.501556
O23   O     O_3   0.500010 0.500010 0.500010 -0.236749
O24   O     O_R   0.170070 0.978950 0.027680 -0.519376
O25   O     O_R   0.001760 0.175230 0.026640 -0.501305
O26   O     O_R   0.984760 0.333570 0.037150 -0.519477
O27   O     O_R   0.183410 0.309240 0.041890 -0.501532

loop_
_geom_bond_atom_site_label_1
_geom_bond_atom_site_label_2
_ccdc_geom_bond_type
Cr5   O7    S    
C66   C68   A    
C91   O25   A    
C63   C65   A    
C1    O13   A    
C58   H25   S    
N6    N7    A    
C22   C29   A    
C27   C29   A    
C18   C21   A    
C41   C42   A    
C5    C56   A    
C35   C36   A    
Cr1   O18   S    
C4    O14   A    
C5    C67   A    
C67   H40   S    
C19   H47   S    
C83   H36   S    
C63   H21   S    
C7    C8    A    
C39   C41   A    
C53   C54   A    
C16   O1    A    
C91   O26   A    
C12   C23   A    
C26   C27   A    
C80   H32   S    
C32   H7    S    
C36   C37   A    
Cr2   O14   S    
C75   H37   S    
C78   H39   S    
C94   O6    A    
C23   H16   S    
C62   H24   S    
C17   H23   S    
C49   H17   S    
C1    O4    A    
C49   C54   A    
Cr6   O10   S    
Cr5   O26   S    
C18   C19   A    
C97   H43   S    
C28   O19   A    
Cr2   O19   S    
C3    C12   S    
C92   O2    A    
C66   C72   A    
Cr2   O13   S    
C63   C69   A    
C95   O9    A    
C44   C46   A    
C8    C9    A    
C32   C33   A    
C74   H33   S    
C36   H9    S    
C96   O5    A    
Cr4   O6    S    
C70   C71   T    
Cr4   O25   S    
C11   H12   S    
C9    C10   A    
C76   C88   A    
C50   H13   S    
Cr1   O4    S    
C16   O16   A    
C10   H44   S    
C72   C94   S    
C76   H38   S    
C48   N5    A    
N1    N8    A    
C84   H35   S    
C1    C22   S    
C66   H27   S    
C29   H2    S    
Cr4   O11   S    
C68   H26   S    
C67   C78   A    
C28   C73   S    
C31   N2    A    
C92   O27   A    
C81   C82   A    
C77   C79   A    
C78   C89   A    
C15   C20   A    
C77   C87   S    
C31   N12   A    
C59   H29   S    
C74   C75   A    
C46   H11   S    
C81   H31   S    
C35   C38   A    
C84   C85   A    
C45   C56   A    
C55   C95   S    
C96   O10   A    
C4    O15   A    
C39   C40   S    
C12   C88   A    
C86   C87   T    
C68   C69   A    
C60   C71   S    
C57   C62   A    
C25   C26   A    
C85   C86   S    
Cr6   O11   S    
C17   C21   A    
C30   C37   S    
C14   N9    A    
C60   C61   A    
C51   C53   A    
Cr4   O5    S    
Cr3   O23   S    
C9    C14   S    
C52   O17   A    
C24   H48   S    
C83   C84   A    
C44   H15   S    
C23   C34   A    
C34   C64   A    
C64   C76   A    
C32   C37   A    
C24   C25   A    
C13   N10   A    
C75   C77   A    
C56   H1    S    
C47   C54   S    
C93   O24   A    
C34   H28   S    
Cr6   O2    S    
C30   N3    A    
C39   C46   A    
C43   C44   A    
Cr6   O9    S    
C51   H18   S    
C22   C24   A    
C42   C43   A    
C30   N11   A    
Cr1   O17   S    
C52   C57   S    
C18   H46   S    
C73   C74   A    
C6    C11   A    
C35   H8    S    
N11   N12   A    
C21   C91   S    
Cr5   O8    S    
C15   C17   A    
C83   C90   A    
C45   C89   A    
C13   C20   S    
C26   C31   S    
C79   C97   S    
Cr3   O15   S    
C33   H3    S    
C50   C55   A    
C13   N1    A    
C41   H10   S    
C93   O3    A    
C40   O12   A    
Cr1   O1    S    
C42   H14   S    
C90   C96   S    
C6    C7    A    
Cr5   O11   S    
C65   C72   A    
C48   N6    A    
C4    C64   S    
C33   C38   A    
C82   C90   A    
C14   N8    A    
C53   H19   S    
C43   C48   S    
N9    N10   A    
C19   C20   A    
C2    C3    T    
C58   C59   A    
Cr1   O23   S    
C94   O7    A    
C57   C58   A    
C15   H45   S    
C47   N4    A    
C82   H30   S    
C28   O18   A    
C38   C93   S    
Cr5   O27   S    
C73   C80   A    
Cr3   O22   S    
C51   C55   A    
C65   H20   S    
C61   C62   A    
Cr3   O21   S    
C69   C70   S    
C5    C92   S    
C10   C11   A    
C6    C16   S    
C79   C80   A    
C2    C89   S    
C59   C60   A    
Cr2   O12   S    
C27   H6    S    
Cr6   O3    S    
C49   C50   A    
C52   O22   A    
N4    N5    A    
C8    H34   S    
C97   O20   D    
C61   H22   S    
C40   O21   A    
N2    N3    A    
Cr4   O24   S    
Cr3   O16   S    
C95   O8    A    
C88   H41   S    
Cr2   O23   S    
C81   C85   A    
C45   H4    S    
C25   H5    S    
C7    H42   S    
C47   N7    A    
