data_mof_unit_57370.cif
_audit_creation_date              2012-12-10T17:47:12-0500
_audit_creation_method            fapswitch 2.2
_symmetry_space_group_name_H-M    P1
_symmetry_Int_Tables_number       1
_space_group_crystal_system       triclinic
_cell_length_a                    11.705429
_cell_length_b                    14.736122
_cell_length_c                    14.753612
_cell_angle_alpha                 64.91026
_cell_angle_beta                  103.393385
_cell_angle_gamma                 103.065091
_cell_volume                      2218.35387563

loop_
_atom_site_label
_atom_site_type_symbol
_atom_type_description
_atom_site_fract_x
_atom_site_fract_y
_atom_site_fract_z
_atom_type_partial_charge
C1    C     C_R   0.481838 0.119851 0.312250 0.795628
C2    C     C_R   0.520052 0.880033 0.687749 0.792672
C3    C     C_R   0.504767 0.321376 0.004064 0.128079
C4    C     C_R   0.580143 0.678978 0.000117 0.089190
C5    C     C_R   0.547055 0.467247 0.053429 0.007896
C6    C     C_R   0.544621 0.533817 0.950306 0.025469
C7    C     C_R   0.535151 0.492297 0.877770 -0.278400
C8    C     C_R   0.582391 0.508604 0.128028 -0.251898
C9    C     C_R   0.516144 0.387858 0.903805 0.224052
C10   C     C_R   0.600838 0.613412 0.102764 0.233018
C11   C     C_R   0.713617 0.295866 0.650919 -0.339660
C12   C     C_R   0.297317 0.712086 0.336475 -0.365340
C13   C     C_R   0.674124 0.208452 0.631107 0.448303
C14   C     C_R   0.331583 0.795517 0.363269 0.463006
C15   C     C_R   0.511620 0.282883 0.513370 -0.047403
C16   C     C_R   0.484343 0.714788 0.489719 -0.040461
C17   C     C_R   0.544931 0.372362 0.533994 -0.054904
C18   C     C_R   0.453866 0.627738 0.465056 -0.044443
C19   C     C_R   0.650666 0.378458 0.602474 0.089883
C20   C     C_R   0.354521 0.626066 0.389189 0.058316
C21   C     C_R   0.478830 0.455989 0.487994 0.016793
C22   C     C_R   0.519178 0.543672 0.511917 0.046762
C23   C     C_R   0.284100 0.000086 0.499879 0.828719
C24   C     C_R   0.715896 0.999924 0.500082 0.824978
C25   C     C_R   0.626401 0.546645 0.578483 -0.298838
C26   C     C_R   0.374910 0.455445 0.417343 -0.262847
C27   C     C_R   0.692375 0.466645 0.622144 0.251505
C28   C     C_R   0.315240 0.539135 0.366437 0.273342
C29   C     C_1   0.162376 0.000107 0.499821 -0.191928
C30   C     C_1   0.837591 0.999898 0.500027 -0.190903
C31   C     C_1   0.059870 0.000026 0.499829 -0.005622
C32   C     C_1   0.940062 0.999933 0.499932 -0.003381
C33   C     C_R   0.482059 0.187677 0.204933 -0.047619
C34   C     C_R   0.537823 0.811713 0.795419 -0.048359
C35   C     C_R   0.481582 0.215802 0.031024 -0.179949
C36   C     C_R   0.583597 0.783506 0.972732 -0.200662
C37   C     C_R   0.471620 0.149656 0.130716 -0.216381
C38   C     C_R   0.562229 0.848787 0.871634 -0.202272
C39   C     C_R   0.501374 0.292420 0.178071 -0.232576
C40   C     C_R   0.531465 0.707836 0.821674 -0.234154
C41   C     C_R   0.518743 0.360823 0.079297 0.054699
C42   C     C_R   0.553450 0.639827 0.923324 0.066892
Cu1   Cu    Cu3+1 0.469550 0.918260 0.475690 0.955327
Cu2   Cu    Cu3+1 0.530450 0.081740 0.524310 0.956909
H1    H     H_    0.664597 0.612143 0.595821 0.135583
H2    H     H_    0.338128 0.391424 0.397261 0.154660
H3    H     H_    0.505432 0.681283 0.761234 0.150473
H4    H     H_    0.500556 0.319110 0.235514 0.147464
H5    H     H_    0.563132 0.928089 0.853287 0.160403
H6    H     H_    0.456946 0.068836 0.149769 0.151427
H7    H     H_    0.472386 0.183657 0.975491 0.171662
H8    H     H_    0.600513 0.815578 0.029181 0.152715
H9    H     H_    0.554537 0.720095 0.549642 0.135065
H10   H     H_    0.435668 0.273439 0.459386 0.139576
H11   H     H_    0.793817 0.298595 0.704319 0.189506
H12   H     H_    0.226163 0.716201 0.273969 0.153095
N1    N     N_R   0.576230 0.204580 0.560790 -0.191136
N2    N     N_R   0.423770 0.795420 0.439210 -0.190529
O1    O     O_R   0.459870 0.022090 0.338120 -0.566164
O2    O     O_R   0.540130 0.977910 0.661880 -0.548360
O3    O     O_R   0.511290 0.160150 0.379180 -0.594092
O4    O     O_R   0.488710 0.839850 0.620820 -0.598031
O5    O     O_R   0.311490 0.930960 0.479480 -0.545755
O6    O     O_R   0.688510 0.069040 0.520520 -0.567189
O7    O     O_R   0.362910 0.069020 0.520540 -0.582646
O8    O     O_R   0.637090 0.930980 0.479460 -0.580740
N3    N     N_2   0.510624 0.350144 0.828434 -0.443051
H13   H     H_    0.576762 0.386578 0.784380 0.265046
C43   C     C_3   0.394997 0.344447 0.767833 -0.689948
H14   H     H_    0.396984 0.308942 0.715281 0.236343
H15   H     H_    0.370498 0.421598 0.722380 0.229128
H16   H     H_    0.326929 0.297409 0.817092 0.233380
N4    N     N_2   0.641499 0.654687 0.178815 -0.441708
H17   H     H_    0.716699 0.707978 0.167454 0.244310
C44   C     C_3   0.632326 0.591227 0.283868 -0.675307
H18   H     H_    0.646701 0.639592 0.327389 0.237188
H19   H     H_    0.700819 0.539872 0.316743 0.219701
H20   H     H_    0.542414 0.546780 0.290278 0.244624
H21   H     H_    0.545803 0.539031 0.800054 0.142410
H22   H     H_    0.602616 0.460061 0.206489 0.157330
N5    N     N_2   0.801270 0.475423 0.687380 -0.444348
H23   H     H_    0.799863 0.514095 0.731218 0.249826
C45   C     C_3   0.904667 0.512509 0.636841 -0.700979
H24   H     H_    0.986000 0.511658 0.693483 0.230429
H25   H     H_    0.900734 0.591453 0.580166 0.227026
H26   H     H_    0.910342 0.463578 0.598298 0.234854
N6    N     N_2   0.214075 0.532492 0.293013 -0.437736
H27   H     H_    0.142254 0.562043 0.292998 0.246823
C46   C     C_3   0.241258 0.559411 0.193196 -0.681413
H28   H     H_    0.158648 0.546650 0.142460 0.227774
H29   H     H_    0.304729 0.511665 0.196815 0.238207
H30   H     H_    0.280302 0.640516 0.160970 0.228727
N7    N     N_2   0.271615 0.881404 0.309734 -0.377251
H31   H     H_    0.284538 0.917640 0.235056 0.224373
C47   C     C_3   0.147430 0.863681 0.319731 -0.686121
H32   H     H_    0.094293 0.817259 0.277438 0.197354
H33   H     H_    0.113697 0.937400 0.288142 0.227595
H34   H     H_    0.135631 0.824446 0.400707 0.243886
N8    N     N_2   0.739440 0.125516 0.680562 -0.374141
H35   H     H_    0.815425 0.137925 0.650397 0.244027
C48   C     C_3   0.761996 0.087195 0.790114 -0.728053
H36   H     H_    0.837915 0.135683 0.816047 0.211030
H37   H     H_    0.784765 0.009415 0.820746 0.237699
H38   H     H_    0.682377 0.084700 0.820458 0.230543

loop_
_geom_bond_atom_site_label_1
_geom_bond_atom_site_label_2
_ccdc_geom_bond_type
C40   H3    S    
C21   C26   A    
C4    C36   A    
C48   H36   S    
N4    C44   S    
N4    H17   S    
C47   H32   S    
Cu1   Cu2   S    
N5    H23   S    
C47   H34   S    
Cu1   O5    S    
C39   C41   A    
C38   H5    S    
Cu2   O6    S    
C11   C19   A    
C33   C39   A    
C34   C40   A    
C23   C29   S    
C35   C37   A    
C1    O1    A    
C5    C6    A    
C10   N4    S    
C2    O2    A    
C13   N1    A    
C7    C9    A    
C43   H15   S    
C16   H9    S    
Cu1   N2    S    
C31   C32   S    
C22   C25   A    
C46   H29   S    
C19   C27   A    
C14   N7    S    
C36   H8    S    
Cu1   O1    S    
C2    C34   S    
C23   O5    A    
C24   O6    A    
C34   C38   A    
C21   C22   A    
C15   N1    A    
Cu2   O7    S    
N5    C45   S    
C24   C30   S    
C14   N2    A    
C1    C33   S    
N3    H13   S    
C15   H10   S    
C27   N5    S    
C20   C28   A    
C33   C37   A    
N3    C43   S    
C13   N8    S    
C43   H16   S    
C44   H18   S    
C9    N3    S    
C3    C9    A    
C45   H24   S    
C3    C35   A    
Cu2   N1    S    
C12   C20   A    
C28   N6    S    
N7    H31   S    
C16   N2    A    
C46   H30   S    
C44   H19   S    
C12   H12   S    
C16   C18   A    
C45   H25   S    
C12   C14   A    
C48   H38   S    
N6    C46   S    
C35   H7    S    
C4    C10   A    
C25   H1    S    
C11   H11   S    
C7    H21   S    
C48   H37   S    
C15   C17   A    
C5    C41   A    
C3    C41   A    
N8    C48   S    
C18   C22   A    
C1    O3    A    
C5    C8    A    
C47   H33   S    
C6    C7    A    
C24   O8    A    
Cu2   O3    S    
C25   C27   A    
C26   C28   A    
N8    H35   S    
C23   O7    A    
C36   C38   A    
C29   C31   T    
C30   C32   T    
C37   H6    S    
C11   C13   A    
N7    C47   S    
C4    C42   A    
Cu2   O2    S    
Cu1   O8    S    
C40   C42   A    
C17   C19   A    
C18   C20   A    
C43   H14   S    
C44   H20   S    
C17   C21   A    
C26   H2    S    
C45   H26   S    
N6    H27   S    
C8    C10   A    
C6    C42   A    
C8    H22   S    
C46   H28   S    
C2    O4    A    
Cu1   O4    S    
C39   H4    S    
