data_mof_unit_31329.cif
_audit_creation_date              2012-12-11T14:21:12-0500
_audit_creation_method            fapswitch 2.2
_symmetry_space_group_name_H-M    P1
_symmetry_Int_Tables_number       1
_space_group_crystal_system       triclinic
_cell_length_a                    11.562332
_cell_length_b                    11.64882
_cell_length_c                    19.535449
_cell_angle_alpha                 90.904372
_cell_angle_beta                  90.371431
_cell_angle_gamma                 60.718238
_cell_volume                      2294.69389616

loop_
_atom_site_label
_atom_site_type_symbol
_atom_type_description
_atom_site_fract_x
_atom_site_fract_y
_atom_site_fract_z
_atom_type_partial_charge
C1    C     C_R   0.640447 0.116469 0.599155 0.544565
C2    C     C_1   0.641056 0.704725 0.667973 0.002086
C3    C     C_1   0.125833 0.199540 0.859282 0.005627
C4    C     C_1   0.171645 0.170390 0.727630 -0.029867
C5    C     C_1   0.149686 0.182805 0.798910 -0.029509
C6    C     C_1   0.195870 0.160655 0.667299 0.004618
C7    C     C_1   0.678859 0.191075 0.860862 0.007764
C8    C     C_1   0.659212 0.166423 0.729008 -0.030359
C9    C     C_1   0.666079 0.180379 0.800358 -0.029487
C10   C     C_1   0.653622 0.148724 0.668557 0.004481
C11   C     C_R   0.686456 0.604586 0.203783 -0.007044
C12   C     C_R   0.612094 0.746721 0.598631 0.555996
C13   C     C_R   0.568708 0.629625 0.237671 0.013897
C14   C     C_R   0.521713 0.723391 0.289829 0.024182
C15   C     C_R   0.732421 0.720945 0.293551 -0.138428
C16   C     C_R   0.767277 0.651693 0.231944 -0.140001
C17   C     C_R   0.489653 0.573656 0.217051 -0.078938
C18   C     C_R   0.359519 0.627585 0.238404 -0.133739
C19   C     C_R   0.313319 0.722913 0.288911 -0.160009
C20   C     C_R   0.389342 0.776965 0.310258 -0.094420
C21   C     C_R   0.610351 0.754424 0.323680 -0.003201
C22   C     C_R   0.109858 0.215934 0.203212 0.022217
C23   C     C_R   0.241886 0.144737 0.598145 0.543977
C24   C     C_R   0.099136 0.318980 0.248332 0.026367
C25   C     C_R   0.092416 0.305825 0.319708 0.028608
C26   C     C_R   0.137352 0.084491 0.305009 -0.151827
C27   C     C_R   0.125283 0.097956 0.233561 -0.006201
C28   C     C_R   0.104282 0.431331 0.226942 -0.079924
C29   C     C_R   0.097596 0.524312 0.274183 -0.156505
C30   C     C_R   0.063654 0.522158 0.341783 -0.126748
C31   C     C_R   0.055810 0.414579 0.364173 -0.073099
C32   C     C_R   0.141251 0.180620 0.346253 -0.025119
C33   C     C_R   0.662492 0.168940 0.187278 0.018500
C34   C     C_R   0.644143 0.113203 0.401675 0.528161
C35   C     C_R   0.754827 0.055797 0.220745 0.013698
C36   C     C_R   0.768611 0.060953 0.291798 0.001747
C37   C     C_R   0.549135 0.256656 0.295697 0.007939
C38   C     C_R   0.550937 0.258021 0.223004 0.100177
C39   C     C_R   0.835256 0.937802 0.184611 -0.078681
C40   C     C_R   0.938388 0.833744 0.217552 -0.150622
C41   C     C_R   0.963637 0.848498 0.286127 -0.155753
C42   C     C_R   0.886778 0.965009 0.321079 -0.090839
C43   C     C_R   0.660059 0.153240 0.331250 -0.021164
C44   C     C_R   0.080687 0.231977 0.928572 0.555298
C45   C     C_R   0.583874 0.798443 0.394757 0.552488
C46   C     C_R   0.684263 0.603656 0.929485 0.554913
C47   C     C_R   0.708772 0.206969 0.930238 0.551665
C48   C     C_R   0.072659 0.242537 0.129262 0.543599
C49   C     C_R   0.707345 0.555117 0.133689 0.535186
C50   C     C_R   0.704589 0.207153 0.124082 0.555427
C51   C     C_R   0.233608 0.144002 0.405348 0.531294
C52   C     C_1   0.670668 0.645689 0.860162 0.003591
C53   C     C_1   0.654716 0.684094 0.728417 -0.030628
C54   C     C_1   0.663583 0.666331 0.799737 -0.029864
Cr1   Cr    Cr6+3 0.404720 0.198220 0.499960 1.003644
Cr2   Cr    Cr6+3 0.698290 0.897110 0.500380 1.016666
Cr3   Cr    Cr6+3 0.396970 0.904720 0.499610 1.007529
Cr4   Cr    Cr6+3 0.926180 0.151990 0.028120 1.005809
Cr5   Cr    Cr6+3 0.921330 0.451820 0.027470 1.032587
Cr6   Cr    Cr6+3 0.626260 0.446870 0.028710 1.049232
H1    H     H_    0.800231 0.747902 0.317675 0.161960
H2    H     H_    0.124114 0.594615 0.257802 0.103810
H3    H     H_    0.052556 0.598244 0.377870 0.107552
H4    H     H_    0.036923 0.409334 0.417996 0.128137
H5    H     H_    0.817263 0.925427 0.131217 0.142901
H6    H     H_    0.998690 0.744645 0.188573 0.108013
H7    H     H_    0.037391 0.770048 0.315093 0.094717
H8    H     H_    0.916671 0.975268 0.372367 0.137233
H9    H     H_    0.526287 0.490788 0.183034 0.197316
H10   H     H_    0.856076 0.636113 0.206084 0.147516
H11   H     H_    0.295572 0.594812 0.216150 0.152254
H12   H     H_    0.218076 0.759290 0.311056 0.096837
H13   H     H_    0.345403 0.858804 0.344681 0.162644
H14   H     H_    0.145974 0.997994 0.328862 0.105644
H15   H     H_    0.126812 0.445854 0.175841 0.199041
O1    O     O_R   0.267740 0.231960 0.575440 -0.506622
O2    O     O_R   0.685970 0.784660 0.430010 -0.501028
O3    O     O_R   0.502530 0.767000 0.423990 -0.527182
O4    O     O_R   0.288330 0.026350 0.429250 -0.535882
O5    O     O_3   0.499990 0.000020 0.499980 -0.269556
O6    O     O_R   0.821500 0.119340 0.952830 -0.505502
O7    O     O_R   0.037130 0.162530 0.957360 -0.492176
O8    O     O_R   0.056440 0.344740 0.951340 -0.494665
O9    O     O_R   0.797900 0.560360 0.957470 -0.490950
O10   O     O_R   0.596130 0.579390 0.952730 -0.498731
O11   O     O_R   0.639060 0.321160 0.958670 -0.483657
O12   O     O_R   0.527280 0.186640 0.570530 -0.492986
O13   O     O_R   0.821240 0.124200 0.104370 -0.547776
O14   O     O_R   0.036890 0.167040 0.097840 -0.515627
O15   O     O_R   0.056180 0.349610 0.102880 -0.523416
O16   O     O_R   0.797660 0.564870 0.097950 -0.506440
O17   O     O_R   0.595880 0.584250 0.104270 -0.518988
O18   O     O_R   0.638830 0.325670 0.099150 -0.490032
O19   O     O_3   0.824590 0.350230 0.028100 -0.283774
O20   O     O_R   0.728090 0.003450 0.576380 -0.505928
O21   O     O_R   0.682970 0.789190 0.570490 -0.489575
O22   O     O_R   0.499290 0.771880 0.575530 -0.501642
O23   O     O_R   0.285330 0.030870 0.569730 -0.495458
O24   O     O_R   0.270980 0.227080 0.423890 -0.528764
O25   O     O_R   0.530280 0.182120 0.430050 -0.511164
O26   O     O_R   0.731330 0.998570 0.424830 -0.531415
C55   C     C_3   0.431917 0.367901 0.332992 -0.238491
C56   C     C_3   0.474100 0.447171 0.380239 -0.409379
H16   H     H_    0.535064 0.480060 0.351782 0.174167
H17   H     H_    0.384611 0.535019 0.400614 0.140878
H18   H     H_    0.533249 0.389030 0.424308 0.166584
H19   H     H_    0.359757 0.436637 0.296798 0.174435
H20   H     H_    0.372441 0.333076 0.360455 0.213501
Br1   Br    Br    0.395281 0.342626 0.167248 -0.625584
C57   C     C_3   0.137521 0.980461 0.192570 -0.253325
C58   C     C_3   0.264484 0.914178 0.149435 -0.387744
H21   H     H_    0.262732 0.978084 0.107621 0.173704
H22   H     H_    0.352315 0.890293 0.181766 0.174781
H23   H     H_    0.275769 0.821716 0.126107 0.152881
H24   H     H_    0.137642 0.907293 0.226773 0.141854
H25   H     H_    0.048646 0.003964 0.161796 0.203539

loop_
_geom_bond_atom_site_label_1
_geom_bond_atom_site_label_2
_ccdc_geom_bond_type
C25   C31   A    
Cr2   O20   S    
C22   C48   S    
C26   C32   A    
C41   C42   A    
Cr3   O4    S    
C36   C42   A    
C35   C36   A    
C23   O1    A    
C44   O8    A    
C2    C12   S    
C41   H7    S    
C53   C54   S    
C17   H9    S    
C26   C27   A    
C29   C30   A    
C14   C21   A    
C28   C29   A    
Cr5   O8    S    
Cr2   O26   S    
C44   O7    A    
Cr4   O7    S    
C30   C31   A    
C6    C23   S    
C15   C16   A    
C46   C52   S    
Cr2   O21   S    
C18   C19   A    
C1    O12   A    
C57   C58   S    
C33   C35   A    
C56   H17   S    
C19   C20   A    
C27   C57   S    
C8    C9    S    
Cr1   O25   S    
C34   O25   A    
C55   H20   S    
C45   O3    A    
Cr5   O19   S    
C58   H23   S    
C50   O13   A    
C46   O10   A    
Cr6   O18   S    
C25   C32   A    
C48   O15   A    
C30   H3    S    
C42   H8    S    
C39   H5    S    
Cr3   O5    S    
C19   H12   S    
C49   O16   A    
Cr3   O3    S    
C52   C54   T    
C21   C45   S    
Cr6   O17   S    
C51   O24   A    
C3    C44   S    
C34   O26   A    
C34   C43   S    
C47   O11   A    
C14   C20   A    
C16   H10   S    
C24   C25   A    
C4    C6    T    
Cr4   O6    S    
C39   C40   A    
Cr6   O11   S    
C33   C50   S    
C40   H6    S    
Cr2   O2    S    
Cr5   O15   S    
C7    C47   S    
C37   C43   A    
C35   C39   A    
C32   C51   S    
C37   C38   A    
C11   C49   S    
C11   C16   A    
C1    O20   A    
Cr3   O22   S    
C17   C18   A    
C15   H1    S    
C55   H19   S    
C58   H22   S    
Cr5   O16   S    
Cr5   O9    S    
C38   Br1   S    
C12   O22   A    
C46   O9    A    
Cr1   O1    S    
C40   C41   A    
C22   C27   A    
C22   C24   A    
C49   O17   A    
C57   H25   S    
C18   H11   S    
C7    C9    T    
C29   H2    S    
C58   H21   S    
C31   H4    S    
C1    C10   S    
C24   C28   A    
C4    C5    S    
C3    C5    T    
C2    C53   T    
Cr4   O13   S    
Cr6   O10   S    
C50   O18   A    
C33   C38   A    
Cr2   O5    S    
C13   C17   A    
C48   O14   A    
Cr4   O19   S    
Cr1   O5    S    
C11   C13   A    
C37   C55   S    
Cr3   O23   S    
C26   H14   S    
C20   H13   S    
C56   H18   S    
C47   O6    A    
Cr1   O12   S    
C55   C56   S    
Cr4   O14   S    
C51   O4    A    
C15   C21   A    
C23   O23   A    
C8    C10   T    
Cr1   O24   S    
C56   H16   S    
C12   O21   A    
C36   C43   A    
C45   O2    A    
C13   C14   A    
C28   H15   S    
C57   H24   S    
Cr6   O19   S    
