data_mof_unit_39299.cif
_audit_creation_date              2012-12-10T19:31:29-0500
_audit_creation_method            fapswitch 2.2
_symmetry_space_group_name_H-M    P1
_symmetry_Int_Tables_number       1
_space_group_crystal_system       triclinic
_cell_length_a                    19.049184
_cell_length_b                    15.728923
_cell_length_c                    14.942327
_cell_angle_alpha                 90.228107
_cell_angle_beta                  89.458604
_cell_angle_gamma                 89.983778
_cell_volume                      4476.83148086

loop_
_atom_site_label
_atom_site_type_symbol
_atom_type_description
_atom_site_fract_x
_atom_site_fract_y
_atom_site_fract_z
_atom_type_partial_charge
C1    C     C_R   0.499895 0.337695 0.499825 0.872156
C2    C     C_3   0.566528 0.973526 0.509999 -0.152454
C3    C     C_3   0.499578 0.083756 0.499695 -0.080629
C4    C     C_3   0.500837 0.916796 0.500542 -0.086575
C5    C     C_1   0.499426 0.174225 0.499394 0.094849
C6    C     C_1   0.500855 0.826171 0.500764 0.105817
C7    C     C_3   0.566348 0.499326 0.969700 -0.147087
C8    C     C_3   0.433613 0.498533 0.030246 -0.146773
C9    C     C_3   0.533087 0.568733 0.029787 0.368350
C10   C     C_3   0.466876 0.429146 0.970114 0.369420
C11   C     C_3   0.533548 0.429431 0.028847 0.398325
C12   C     C_R   0.500123 0.662401 0.500181 0.901278
C13   C     C_3   0.466412 0.568435 0.971132 0.398202
C14   C     C_3   0.499802 0.498858 0.090252 -0.158580
C15   C     C_3   0.500166 0.499055 0.909716 -0.158556
C16   C     C_R   0.364932 0.496859 0.500521 0.883920
C17   C     C_R   0.635083 0.496918 0.499455 0.878947
C18   C     C_1   0.499920 0.499426 0.189990 0.210450
C19   C     C_1   0.500063 0.499585 0.809999 0.212423
C20   C     C_R   0.257249 0.440295 0.575795 0.482531
C21   C     C_R   0.742956 0.441153 0.423374 0.480017
C22   C     C_R   0.185567 0.423164 0.573807 -0.265223
C23   C     C_3   0.460013 0.973081 0.568500 0.389537
C24   C     C_R   0.814622 0.423924 0.425240 -0.264237
C25   C     C_R   0.146670 0.441227 0.497236 0.021074
C26   C     C_R   0.853402 0.441226 0.502242 0.022074
C27   C     C_R   0.179729 0.476957 0.422147 -0.161084
C28   C     C_R   0.820217 0.476264 0.577914 -0.158664
C29   C     C_R   0.250644 0.496664 0.424477 -0.265527
C30   C     C_R   0.749293 0.496023 0.575775 -0.264814
C31   C     C_R   0.289646 0.479975 0.501459 -0.147801
C32   C     C_R   0.710407 0.480090 0.498380 -0.145705
C33   C     C_R   0.929258 0.429300 0.501090 0.311830
C34   C     C_3   0.540431 0.027659 0.431732 0.386353
C35   C     C_R   0.070829 0.429292 0.498281 0.311811
C36   C     C_3   0.314254 0.333521 0.646558 0.065912
C37   C     C_3   0.359906 0.311838 0.726248 -0.685398
C38   C     C_3   0.686107 0.335304 0.350094 0.077130
C39   C     C_3   0.640080 0.314944 0.270238 -0.686857
C40   C     C_3   0.402552 0.690361 0.003289 0.144738
C41   C     C_3   0.388642 0.779106 0.967380 -0.846164
C42   C     C_3   0.597272 0.307506 0.996077 0.143202
C43   C     C_3   0.609500 0.217923 0.030742 -0.875327
C44   C     C_3   0.574663 0.005946 0.717567 0.116435
C45   C     C_3   0.526171 0.028917 0.578034 0.354264
C46   C     C_3   0.571901 0.042905 0.811801 -0.844472
C47   C     C_3   0.425489 0.995678 0.282952 0.115363
C48   C     C_3   0.429233 0.960070 0.188188 -0.840354
C49   C     C_3   0.384509 0.001210 0.687055 0.136681
C50   C     C_3   0.363703 0.967084 0.778641 -0.849271
C51   C     C_3   0.615842 0.001576 0.312605 0.139253
C52   C     C_3   0.638820 0.038298 0.222979 -0.874620
C53   C     C_3   0.594396 0.693290 0.000450 0.116892
C54   C     C_3   0.599077 0.783856 0.036072 -0.832211
C55   C     C_3   0.405736 0.304443 0.999474 0.113480
C56   C     C_3   0.474281 0.971791 0.422144 0.360102
C57   C     C_3   0.401675 0.213713 0.964134 -0.854298
C58   C     C_1   0.499583 0.249233 0.499468 -0.193342
C59   C     C_1   0.500564 0.751057 0.500587 -0.166295
C60   C     C_3   0.433932 0.027169 0.490210 -0.153650
H1    H     H_    0.160643 0.395279 0.632186 0.164671
H2    H     H_    0.375245 0.243741 0.723222 0.183275
H3    H     H_    0.408134 0.351420 0.725440 0.278508
H4    H     H_    0.655572 0.320821 0.412233 0.136228
H5    H     H_    0.733342 0.293617 0.346646 0.132729
H6    H     H_    0.669164 0.328358 0.207120 0.259122
H7    H     H_    0.624921 0.246788 0.271393 0.214619
H8    H     H_    0.591745 0.354320 0.272653 0.272557
H9    H     H_    0.437190 0.696854 0.062531 0.172386
H10   H     H_    0.351663 0.662308 0.024853 0.170407
H11   H     H_    0.352215 0.775701 0.909872 0.271083
H12   H     H_    0.839635 0.396617 0.366378 0.164652
H13   H     H_    0.364629 0.819310 0.020717 0.207260
H14   H     H_    0.438666 0.808804 0.944975 0.255417
H15   H     H_    0.648745 0.334761 0.975677 0.170351
H16   H     H_    0.563168 0.302538 0.936164 0.176481
H17   H     H_    0.559121 0.189794 0.054080 0.260502
H18   H     H_    0.631742 0.177430 0.976433 0.214817
H19   H     H_    0.646890 0.219248 0.087251 0.258319
H20   H     H_    0.629985 0.989037 0.701603 0.140517
H21   H     H_    0.542201 0.947041 0.717153 0.167586
H22   H     H_    0.517089 0.060626 0.829767 0.254064
H23   H     H_    0.150429 0.492102 0.362524 0.161992
H24   H     H_    0.590958 0.995119 0.860409 0.204488
H25   H     H_    0.605607 0.100378 0.815821 0.261099
H26   H     H_    0.457231 0.055154 0.284527 0.164308
H27   H     H_    0.369889 0.011458 0.298625 0.141230
H28   H     H_    0.396410 0.901934 0.182988 0.261831
H29   H     H_    0.409692 0.008115 0.140178 0.202944
H30   H     H_    0.484383 0.943832 0.170368 0.254371
H31   H     H_    0.336009 0.019597 0.651225 0.165874
H32   H     H_    0.417300 0.058941 0.697690 0.167185
H33   H     H_    0.411306 0.948061 0.815993 0.257545
H34   H     H_    0.849419 0.490823 0.637893 0.160971
H35   H     H_    0.335410 0.017038 0.817396 0.206266
H36   H     H_    0.328850 0.910962 0.771130 0.268936
H37   H     H_    0.582338 0.945069 0.298970 0.177514
H38   H     H_    0.663397 0.980985 0.349145 0.170578
H39   H     H_    0.674587 0.093098 0.233608 0.258054
H40   H     H_    0.666832 0.988961 0.183036 0.216251
H41   H     H_    0.592227 0.059985 0.185165 0.259960
H42   H     H_    0.669758 0.991937 0.536508 0.208287
H43   H     H_    0.637597 0.898333 0.572694 0.178077
H44   H     H_    0.330657 0.009055 0.463691 0.211625
H45   H     H_    0.274922 0.525435 0.366149 0.179529
H46   H     H_    0.362947 0.102668 0.427702 0.174746
H47   H     H_    0.562398 0.694559 0.938452 0.163437
H48   H     H_    0.648284 0.671444 0.983171 0.142268
H49   H     H_    0.633017 0.785917 0.096079 0.264500
H50   H     H_    0.621833 0.826026 0.983905 0.200446
H51   H     H_    0.545934 0.807504 0.054609 0.253914
H52   H     H_    0.351692 0.325880 0.016520 0.141821
H53   H     H_    0.437582 0.303594 0.061610 0.166745
H54   H     H_    0.454782 0.191067 0.944096 0.259321
H55   H     H_    0.380409 0.171213 0.017000 0.205486
H56   H     H_    0.724921 0.524230 0.634594 0.175246
H57   H     H_    0.366698 0.210727 0.905199 0.253680
H58   H     H_    0.671262 0.511407 0.989324 0.215362
H59   H     H_    0.643495 0.547851 0.889834 0.173531
H60   H     H_    0.328730 0.486180 0.010588 0.215422
H61   H     H_    0.356544 0.449766 0.110045 0.173939
H62   H     H_    0.345050 0.319947 0.584281 0.125997
H63   H     H_    0.267005 0.291838 0.648595 0.129251
H64   H     H_    0.330456 0.323893 0.789528 0.259126
N1    N     N_R   0.034543 0.428277 0.420742 -0.181435
N2    N     N_3   0.361742 0.499463 0.064308 -0.464674
N3    N     N_R   0.965545 0.427963 0.578619 -0.180444
N4    N     N_R   0.964896 0.428067 0.422143 -0.175684
N5    N     N_R   0.035198 0.427746 0.577216 -0.174934
N6    N     N_1   0.500020 0.500000 0.268010 -0.100645
N7    N     N_1   0.499980 0.500000 0.731990 -0.100015
N8    N     N_3   0.637604 0.940786 0.519118 -0.461692
N9    N     N_3   0.362898 0.060093 0.481174 -0.471043
N10   N     N_3   0.638213 0.498208 0.935620 -0.464836
O1    O     O_R   0.500000 0.376780 0.574460 -0.612310
O2    O     O_3   0.705564 0.421915 0.347042 -0.591588
O3    O     O_3   0.432838 0.640233 0.934560 -0.604538
O4    O     O_3   0.567115 0.357456 0.065081 -0.622847
O5    O     O_3   0.551114 0.067937 0.656813 -0.602578
O6    O     O_3   0.449344 0.933272 0.343086 -0.599994
O7    O     O_3   0.420095 0.936839 0.638652 -0.602376
O8    O     O_3   0.580201 0.065040 0.362117 -0.618657
O9    O     O_3   0.565874 0.640634 0.067854 -0.599968
O10   O     O_3   0.434098 0.357222 0.932059 -0.616087
O11   O     O_R   0.500000 0.623220 0.425540 -0.598812
O12   O     O_R   0.500010 0.376780 0.425520 -0.623070
O13   O     O_R   0.499990 0.623220 0.574480 -0.606860
O14   O     O_R   0.398130 0.499990 0.574490 -0.554838
O15   O     O_R   0.601870 0.500010 0.425510 -0.556799
O16   O     O_R   0.398140 0.499990 0.425550 -0.630003
O17   O     O_R   0.601860 0.500010 0.574450 -0.629502
O18   O     O_3   0.294820 0.420112 0.651571 -0.587414
Zn1   Zn    Zn3+2 0.499990 0.500000 0.599450 1.000495
Zn2   Zn    Zn3+2 0.500010 0.500000 0.400550 0.997594

loop_
_geom_bond_atom_site_label_1
_geom_bond_atom_site_label_2
_ccdc_geom_bond_type
C51   H37   S    
C34   C56   S    
C8    C13   S    
C23   C45   S    
C55   H52   S    
C42   O4    S    
C39   H8    S    
C14   C18   S    
C36   H62   S    
C33   N3    A    
O15   Zn2   S    
C42   H16   S    
C37   H2    S    
C9    O9    S    
C57   H55   S    
C30   H56   S    
C53   C54   S    
C16   C31   S    
C15   C19   S    
C42   H15   S    
C40   H10   S    
C5    C58   T    
C12   O13   A    
C36   C37   S    
C11   O4    S    
H42   N8    S    
C10   C15   S    
C38   C39   S    
C56   O6    S    
C11   C14   S    
H60   N2    S    
C50   H35   S    
C27   C29   A    
C43   H19   S    
C45   O5    S    
C54   H50   S    
C28   H34   S    
C35   N1    A    
C9    C13   S    
C41   H14   S    
C46   H22   S    
C12   C59   S    
H46   N9    S    
C28   C30   A    
C22   C25   A    
C49   O7    S    
C47   O6    S    
N1    N4    A    
C2    N8    S    
C48   H28   S    
C38   O2    S    
H43   N8    S    
C35   N5    A    
C21   O2    S    
H58   N10   S    
C41   H11   S    
C46   H25   S    
C3    C60   S    
C2    C34   S    
C51   H38   S    
C7    C15   S    
C48   H30   S    
C4    C56   S    
C29   H45   S    
C1    O12   A    
C17   O17   A    
C49   H31   S    
C37   H3    S    
C44   C46   S    
C7    C11   S    
C38   H4    S    
C2    C45   S    
C19   N7    T    
C23   C60   S    
C21   C32   A    
C52   H41   S    
H59   N10   S    
H44   N9    S    
C51   C52   S    
C47   H26   S    
C44   H20   S    
C36   H63   S    
C7    N10   S    
C4    C6    S    
C44   H21   S    
C40   H9    S    
C4    C23   S    
C36   O18   S    
C55   H53   S    
C3    C34   S    
C3    C45   S    
C33   N4    A    
C56   C60   S    
C54   H49   S    
C43   H18   S    
C47   H27   S    
C12   O11   A    
C2    C4    S    
C9    C14   S    
N3    N5    A    
C37   H64   S    
C53   H47   S    
C26   C33   S    
C47   C48   S    
O12   Zn2   S    
C38   H5    S    
N7    Zn1   S    
C40   O3    S    
N6    Zn2   S    
C10   O10   S    
C25   C35   S    
C46   H24   S    
O11   Zn2   S    
C8    N2    S    
C40   C41   S    
C20   C22   A    
C44   O5    S    
C48   H29   S    
C55   C57   S    
C39   H6    S    
C18   N6    T    
C25   C27   A    
C42   C43   S    
C49   H32   S    
C24   H12   S    
C57   H57   S    
C51   O8    S    
C7    C9    S    
C34   O8    S    
C8    C14   S    
C55   O10   S    
C39   H7    S    
C6    C59   T    
C17   O15   A    
C24   C26   A    
C3    C5    S    
C50   H33   S    
C57   H54   S    
C43   H17   S    
C52   H39   S    
C26   C28   A    
O1    Zn1   S    
C16   O14   A    
C13   C15   S    
H61   N2    S    
C29   C31   A    
C1    C58   S    
C22   H1    S    
C30   C32   A    
C53   H48   S    
C50   H36   S    
C27   H23   S    
C52   H40   S    
C54   H51   S    
O17   Zn1   S    
O13   Zn1   S    
C10   C11   S    
C41   H13   S    
C20   O18   S    
C8    C10   S    
C49   C50   S    
O16   Zn2   S    
C21   C24   A    
C17   C32   S    
C23   O7    S    
C16   O16   A    
C53   O9    S    
O14   Zn1   S    
C1    O1    A    
C60   N9    S    
C13   O3    S    
C20   C31   A    
