data_mof_unit_21791.cif
_audit_creation_date              2013-03-05T15:40:09-0500
_audit_creation_method            fapswitch 2.2
_symmetry_space_group_name_H-M    P1
_symmetry_Int_Tables_number       1
_space_group_crystal_system       triclinic
_cell_length_a                    27.996709
_cell_length_b                    18.840135
_cell_length_c                    16.877994
_cell_angle_alpha                 89.337782
_cell_angle_beta                  62.135527
_cell_angle_gamma                 89.577606
_cell_volume                      7869.75690775

loop_
_atom_site_label
_atom_site_type_symbol
_atom_site_description
_atom_site_fract_x
_atom_site_fract_y
_atom_site_fract_z
_atom_type_partial_charge
O1    O     O_R   0.255040 0.869590 0.478480 -0.509539
O2    O     O_R   0.744960 0.130410 0.521520 -0.505738
O3    O     O_R   0.744960 0.869590 0.521520 -0.508687
O4    O     O_R   0.255040 0.130410 0.478480 -0.500390
O5    O     O_R   0.755040 0.369590 0.478480 -0.511092
O6    O     O_R   0.244960 0.630410 0.521520 -0.512830
O7    O     O_R   0.244960 0.369590 0.521520 -0.509568
O8    O     O_R   0.755040 0.630410 0.478480 -0.502439
O9    O     O_R   0.182050 0.796550 0.624440 -0.579497
O10   O     O_R   0.817950 0.203450 0.375560 -0.577091
O11   O     O_R   0.817950 0.796550 0.375560 -0.596068
O12   O     O_R   0.182050 0.203450 0.624440 -0.595662
O13   O     O_R   0.682050 0.296550 0.624440 -0.590759
O14   O     O_R   0.317950 0.703450 0.375560 -0.591140
O15   O     O_R   0.317950 0.296550 0.375560 -0.598846
O16   O     O_R   0.682050 0.703450 0.624440 -0.594837
Cu1   Cu    Cu3+1 0.209920 0.785290 0.495070 1.058213
Cu2   Cu    Cu3+1 0.790080 0.214710 0.504930 1.057860
Cu3   Cu    Cu3+1 0.790080 0.785290 0.504930 1.096928
Cu4   Cu    Cu3+1 0.209920 0.214710 0.495070 1.082370
Cu5   Cu    Cu3+1 0.709920 0.285290 0.495070 1.047686
Cu6   Cu    Cu3+1 0.290080 0.714710 0.504930 1.055207
Cu7   Cu    Cu3+1 0.290080 0.285290 0.504930 1.081876
Cu8   Cu    Cu3+1 0.709920 0.714710 0.495070 1.074027
C1    C     C_R   0.295086 0.728337 0.329532 0.791639
C2    C     C_R   0.705054 0.271919 0.670401 0.788860
C3    C     C_R   0.703297 0.731354 0.670964 0.802246
C4    C     C_R   0.293606 0.275330 0.330773 0.801069
C5    C     C_R   0.795051 0.228283 0.329530 0.821349
C6    C     C_R   0.204970 0.771759 0.670405 0.822363
C7    C     C_R   0.203190 0.231556 0.670934 0.802041
C8    C     C_R   0.793679 0.775159 0.330666 0.801612
O17   O     O_R   0.250530 0.763330 0.367210 -0.587167
O18   O     O_R   0.749470 0.236670 0.632790 -0.590848
O19   O     O_R   0.749470 0.763330 0.632790 -0.543818
O20   O     O_R   0.250530 0.236670 0.367210 -0.551706
O21   O     O_R   0.750530 0.263330 0.367210 -0.575802
O22   O     O_R   0.249470 0.736670 0.632790 -0.571711
O23   O     O_R   0.249470 0.263330 0.632790 -0.543232
O24   O     O_R   0.750530 0.736670 0.367210 -0.553972
O25   O     O_R   0.177260 0.690030 0.513710 -0.609132
O26   O     O_R   0.822740 0.309970 0.486290 -0.605832
O27   O     O_R   0.822740 0.690030 0.486290 -0.593354
O28   O     O_R   0.177260 0.309970 0.513710 -0.609369
O29   O     O_R   0.677260 0.190030 0.513710 -0.617038
O30   O     O_R   0.322740 0.809970 0.486290 -0.610677
O31   O     O_R   0.322740 0.190030 0.486290 -0.602480
O32   O     O_R   0.677260 0.809970 0.513710 -0.618710
C9    C     C_R   0.199928 0.630844 0.516255 0.826304
C10   C     C_R   0.800036 0.369161 0.483829 0.828041
C11   C     C_R   0.803835 0.632158 0.470979 0.828975
C12   C     C_R   0.196144 0.367848 0.529029 0.795782
C13   C     C_R   0.696360 0.131733 0.528111 0.828257
C14   C     C_R   0.303547 0.868322 0.472419 0.831246
C15   C     C_R   0.303750 0.131956 0.471642 0.833659
C16   C     C_R   0.696188 0.868002 0.528773 0.798127
H1    H     H_    0.532623 0.757094 0.536187 0.152692
H2    H     H_    0.465375 0.242950 0.471354 0.154564
H3    H     H_    0.461903 0.756637 0.489604 0.153015
H4    H     H_    0.535985 0.243387 0.518200 0.153579
H5    H     H_    0.001831 0.275710 0.630448 0.150052
H6    H     H_    0.996922 0.725276 0.373056 0.157963
H7    H     H_    0.917049 0.278049 0.621445 0.151038
H8    H     H_    0.081071 0.723571 0.383777 0.173825
C17   C     C_R   0.068791 0.618310 0.443052 0.092222
C18   C     C_R   0.930288 0.382279 0.559312 0.098573
C19   C     C_R   0.971472 0.620466 0.431051 0.090201
C20   C     C_R   0.027890 0.379883 0.570658 0.096962
C21   C     C_R   0.541578 0.128767 0.523145 0.085253
C22   C     C_R   0.456554 0.871262 0.484002 0.092786
C23   C     C_R   0.458419 0.128356 0.474303 0.092678
C24   C     C_R   0.539819 0.871662 0.532600 0.090140
C25   C     C_R   0.054968 0.677520 0.406589 -0.087494
C26   C     C_R   0.943684 0.323538 0.597107 -0.159310
C27   C     C_R   0.006767 0.678627 0.400746 -0.133431
C28   C     C_R   0.992164 0.322164 0.602195 -0.162715
C29   C     C_R   0.520387 0.193016 0.510147 -0.153232
C30   C     C_R   0.477524 0.807016 0.497577 -0.134629
C31   C     C_R   0.480313 0.192767 0.483015 -0.141620
C32   C     C_R   0.517663 0.807271 0.524557 -0.137933
C33   C     C_R   0.985345 0.560349 0.466368 0.037188
C34   C     C_R   0.014061 0.439932 0.535173 0.035767
C35   C     C_R   0.033996 0.559492 0.472977 0.029318
C36   C     C_R   0.965344 0.440841 0.528716 0.037164
C37   C     C_R   0.477837 0.064117 0.490708 0.038152
C38   C     C_R   0.520211 0.935910 0.516524 0.038196
C39   C     C_R   0.521146 0.064285 0.511678 0.039093
C40   C     C_R   0.476875 0.935745 0.495618 0.042644
C41   C     C_R   0.455040 0.999842 0.483613 -0.014735
C42   C     C_R   0.543164 0.000178 0.523156 -0.014930
C43   C     C_R   0.951074 0.500827 0.493717 -0.011783
C44   C     C_R   0.048413 0.499383 0.507575 -0.014442
C45   C     C_R   0.386385 0.934511 0.461884 0.018843
C46   C     C_R   0.612673 0.065488 0.542420 0.012701
C47   C     C_R   0.612023 0.935027 0.545960 0.006853
C48   C     C_R   0.387135 0.064963 0.458097 0.013447
C49   C     C_R   0.870304 0.439443 0.507492 0.009868
C50   C     C_R   0.129299 0.560713 0.493408 -0.002179
C51   C     C_R   0.113143 0.436434 0.543484 0.010011
C52   C     C_R   0.886616 0.563603 0.457074 0.014390
C53   C     C_R   0.336222 0.934678 0.457726 -0.208401
C54   C     C_R   0.663533 0.065350 0.544083 -0.210591
C55   C     C_R   0.663207 0.934593 0.545798 -0.203530
C56   C     C_R   0.336620 0.065380 0.455806 -0.205694
C57   C     C_R   0.827146 0.436886 0.484237 -0.216966
C58   C     C_R   0.172718 0.563150 0.516024 -0.218736
C59   C     C_R   0.164593 0.434853 0.541687 -0.197581
C60   C     C_R   0.835332 0.565146 0.458402 -0.200605
C61   C     C_R   0.313910 0.000207 0.449442 0.251578
C62   C     C_R   0.686316 0.999796 0.551044 0.255786
C63   C     C_R   0.810407 0.500490 0.459242 0.253858
C64   C     C_R   0.189613 0.499500 0.540600 0.260230
C65   C     C_R   0.409272 0.999747 0.467929 0.075157
C66   C     C_R   0.589471 0.000256 0.537289 0.074320
C67   C     C_R   0.902764 0.501161 0.485619 0.079137
C68   C     C_R   0.096856 0.498967 0.515301 0.075503
C69   C     C_R   0.581989 0.872406 0.554695 -0.171268
C70   C     C_R   0.416961 0.127584 0.450539 -0.167499
C71   C     C_R   0.415384 0.871575 0.459509 -0.168497
C72   C     C_R   0.583366 0.128414 0.546208 -0.181568
C73   C     C_R   0.077034 0.378315 0.574250 -0.179534
C74   C     C_R   0.922621 0.621792 0.426647 -0.155011
C75   C     C_R   0.882688 0.382747 0.550984 -0.174183
C76   C     C_R   0.116577 0.617654 0.450699 -0.143038
H9    H     H_    0.589230 0.823479 0.580938 0.176532
H10   H     H_    0.410445 0.176455 0.423324 0.170532
H11   H     H_    0.409107 0.821926 0.435165 0.176453
H12   H     H_    0.590281 0.178025 0.569892 0.179819
H13   H     H_    0.085416 0.332681 0.605247 0.161986
H14   H     H_    0.914385 0.667356 0.395365 0.162958
H15   H     H_    0.855107 0.339189 0.581596 0.168130
H16   H     H_    0.144065 0.661254 0.419943 0.186498
C77   C     C_R   0.221748 0.767149 0.951823 -0.243919
C78   C     C_R   0.779905 0.233805 0.046044 -0.242115
C79   C     C_R   0.789665 0.754578 0.036208 -0.196505
C80   C     C_R   0.227654 0.221495 0.945390 -0.188929
C81   C     C_R   0.721820 0.269203 0.952384 -0.243056
C82   C     C_R   0.279487 0.734272 0.046839 -0.242059
C83   C     C_R   0.287505 0.258302 0.038097 -0.193498
C84   C     C_R   0.729630 0.717258 0.943869 -0.182878
C85   C     C_R   0.274670 0.793354 0.921349 0.236499
C86   C     C_R   0.774327 0.305599 0.026962 0.214635
C87   C     C_R   0.746458 0.705052 0.073578 0.210567
C88   C     C_R   0.278724 0.255622 0.900161 0.231162
C89   C     C_R   0.727354 0.197428 0.971562 0.217038
C90   C     C_R   0.226822 0.707542 0.076728 0.246354
C91   C     C_R   0.243719 0.209607 0.075757 0.212383
C92   C     C_R   0.780669 0.751397 0.898394 0.233116
C93   C     C_R   0.303537 0.777161 0.968885 0.228058
C94   C     C_R   0.745350 0.323237 0.980063 0.225184
C95   C     C_R   0.711432 0.698102 0.035475 0.244057
C96   C     C_R   0.302428 0.284571 0.950053 0.234974
C97   C     C_R   0.756389 0.179827 0.018309 0.220580
C98   C     C_R   0.197777 0.724103 0.029665 0.227769
C99   C     C_R   0.208838 0.203230 0.037340 0.230508
C100  C     C_R   0.804528 0.780481 0.948006 0.234216
C101  C     C_R   0.145126 0.829664 0.943590 -0.098442
C102  C     C_R   0.856061 0.171616 0.055564 -0.092914
C103  C     C_R   0.868543 0.810945 0.050461 -0.095082
C104  C     C_R   0.156144 0.150358 0.927419 -0.092786
C105  C     C_R   0.645237 0.330601 0.943381 -0.095014
C106  C     C_R   0.355717 0.671496 0.055714 -0.089797
C107  C     C_R   0.367517 0.312256 0.051009 -0.099251
C108  C     C_R   0.657111 0.648035 0.926249 -0.082775
H17   H     H_    0.131782 0.847500 0.011538 0.167552
H18   H     H_    0.870144 0.154698 0.987067 0.171455
H19   H     H_    0.893861 0.811477 0.979216 0.193070
H20   H     H_    0.152379 0.114073 0.979597 0.195121
H21   H     H_    0.631429 0.347984 0.011631 0.172146
H22   H     H_    0.369230 0.653870 0.987634 0.171256
H23   H     H_    0.392427 0.312920 0.979638 0.193861
H24   H     H_    0.653456 0.610882 0.977520 0.205370
C109  C     C_R   0.118059 0.851985 0.895318 -0.073959
C110  C     C_R   0.882440 0.148534 0.104453 -0.081921
C111  C     C_R   0.888116 0.844839 0.102832 -0.091637
C112  C     C_R   0.121938 0.140531 0.888926 -0.085398
C113  C     C_R   0.618109 0.352331 0.895155 -0.076917
C114  C     C_R   0.382297 0.648466 0.104444 -0.081502
C115  C     C_R   0.387915 0.345046 0.102918 -0.093842
C116  C     C_R   0.622296 0.639784 0.888635 -0.091207
C117  C     C_R   0.136508 0.829707 0.807286 -0.201893
C118  C     C_R   0.863635 0.170428 0.192709 -0.196954
C119  C     C_R   0.864723 0.830443 0.194036 -0.207859
C120  C     C_R   0.134864 0.171751 0.806542 -0.213077
C121  C     C_R   0.636553 0.329812 0.807234 -0.206058
C122  C     C_R   0.363606 0.670396 0.192678 -0.202694
C123  C     C_R   0.364910 0.330120 0.193966 -0.213216
C124  C     C_R   0.634941 0.671763 0.806773 -0.206664
H25   H     H_    0.116220 0.847653 0.769525 0.189911
H26   H     H_    0.883548 0.151952 0.230845 0.190616
H27   H     H_    0.882568 0.851243 0.233730 0.190043
H28   H     H_    0.112654 0.157793 0.770872 0.185939
H29   H     H_    0.616059 0.347256 0.769599 0.187726
H30   H     H_    0.383556 0.651900 0.230749 0.188614
H31   H     H_    0.383379 0.349858 0.233236 0.188799
H32   H     H_    0.612181 0.658916 0.771665 0.188336
C125  C     C_R   0.182562 0.787473 0.765951 -0.086512
C126  C     C_R   0.817674 0.212899 0.233754 -0.082664
C127  C     C_R   0.816795 0.792714 0.235156 -0.083485
C128  C     C_R   0.178626 0.217385 0.767471 -0.092304
C129  C     C_R   0.682824 0.287955 0.765893 -0.073553
C130  C     C_R   0.317708 0.712939 0.233812 -0.078889
C131  C     C_R   0.316532 0.293366 0.235505 -0.084174
C132  C     C_R   0.679101 0.716694 0.767438 -0.091840
C133  C     C_R   0.209501 0.765185 0.814403 -0.077844
C134  C     C_R   0.791126 0.235620 0.184713 -0.087774
C135  C     C_R   0.790060 0.775533 0.185349 -0.098990
C136  C     C_R   0.202729 0.241678 0.818666 -0.090006
C137  C     C_R   0.710077 0.266518 0.814276 -0.097159
C138  C     C_R   0.291203 0.735885 0.184893 -0.082150
C139  C     C_R   0.289063 0.277828 0.186449 -0.097547
C140  C     C_R   0.703968 0.739602 0.818156 -0.088656
H33   H     H_    0.245567 0.732667 0.782939 0.177292
H34   H     H_    0.754727 0.267518 0.216202 0.169628
H35   H     H_    0.748436 0.759668 0.221735 0.189050
H36   H     H_    0.229026 0.286907 0.793893 0.200680
H37   H     H_    0.746662 0.234992 0.782578 0.164365
H38   H     H_    0.255213 0.768556 0.216208 0.176270
H39   H     H_    0.247213 0.263136 0.223380 0.191285
H40   H     H_    0.730670 0.784440 0.793414 0.202350
C141  C     C_R   0.191096 0.786557 0.903058 0.196303
C142  C     C_R   0.810086 0.214642 0.095684 0.195358
C143  C     C_R   0.816776 0.779751 0.090621 0.160381
C144  C     C_R   0.194915 0.204945 0.897272 0.156913
C145  C     C_R   0.691474 0.288114 0.902975 0.199061
C146  C     C_R   0.309931 0.714891 0.095961 0.195090
C147  C     C_R   0.315354 0.282205 0.091812 0.160662
C148  C     C_R   0.696337 0.702013 0.896215 0.152876
O33   O     O_R   0.051640 0.926880 0.885090 -0.585673
O34   O     O_R   0.948360 0.073120 0.114910 -0.577069
O35   O     O_R   0.948360 0.926880 0.114910 -0.590953
O36   O     O_R   0.051640 0.073120 0.885090 -0.593545
O37   O     O_R   0.551640 0.426880 0.885090 -0.588133
O38   O     O_R   0.448360 0.573120 0.114910 -0.579097
O39   O     O_R   0.448360 0.426880 0.114910 -0.593392
O40   O     O_R   0.551640 0.573120 0.885090 -0.590188
Cu9   Cu    Cu3+1 0.495240 0.500000 0.924150 1.056940
Cu10  Cu    Cu3+1 0.504760 0.500000 0.075850 1.052831
Cu11  Cu    Cu3+1 0.995240 0.000000 0.924150 1.061488
Cu12  Cu    Cu3+1 0.004760 0.000000 0.075850 1.052138
C149  C     C_R   0.929289 0.900051 0.064871 0.812407
C150  C     C_R   0.075600 0.093208 0.930884 0.805812
C151  C     C_R   0.073574 0.903233 0.933483 0.783098
C152  C     C_R   0.926602 0.096933 0.066416 0.817992
C153  C     C_R   0.429275 0.400045 0.064868 0.806195
C154  C     C_R   0.575665 0.593044 0.930820 0.813721
C155  C     C_R   0.573541 0.403272 0.933468 0.784053
C156  C     C_R   0.426526 0.596874 0.066445 0.817408
O41   O     O_R   0.940620 0.926560 0.986760 -0.544592
O42   O     O_R   0.059380 0.073440 0.013240 -0.555964
O43   O     O_R   0.059380 0.926560 0.013240 -0.587218
O44   O     O_R   0.940620 0.073440 0.986760 -0.572466
O45   O     O_R   0.440620 0.426560 0.986760 -0.548814
O46   O     O_R   0.559380 0.573440 0.013240 -0.552587
O47   O     O_R   0.559380 0.426560 0.013240 -0.583560
O48   O     O_R   0.440620 0.573440 0.986760 -0.573200
N1    N     N_R   0.268839 0.000589 0.430792 0.149287
O49   O     O_R   0.277250 0.005034 0.348311 -0.294357
O50   O     O_R   0.219520 0.999933 0.496018 -0.315967
N2    N     N_R   0.732489 0.999431 0.566769 0.151054
O51   O     O_R   0.781215 0.999995 0.499767 -0.320377
O52   O     O_R   0.725670 0.996440 0.648429 -0.302214
N3    N     N_R   0.769244 0.499703 0.431103 0.153246
O53   O     O_R   0.718420 0.498309 0.490537 -0.315917
O54   O     O_R   0.782294 0.512003 0.347443 -0.278398
N4    N     N_R   0.231096 0.500243 0.568011 0.152702
O55   O     O_R   0.218429 0.488067 0.651541 -0.323282
O56   O     O_R   0.281812 0.501666 0.508079 -0.319539
N5    N     N_R   0.144991 0.694378 0.058548 0.156599
O57   O     O_R   0.107478 0.701669 0.140944 -0.304980
O58   O     O_R   0.133862 0.661140 0.002035 -0.313731
N6    N     N_R   0.758953 0.107311 0.042889 0.161130
O59   O     O_R   0.790005 0.062405 0.982455 -0.254406
O60   O     O_R   0.736271 0.088631 0.127045 -0.333122
N7    N     N_R   0.841124 0.838703 0.909307 0.139317
O61   O     O_R   0.827831 0.901368 0.944791 -0.269354
O62   O     O_R   0.887668 0.829514 0.838843 -0.298241
N8    N     N_R   0.153686 0.183256 0.094179 0.137792
O63   O     O_R   0.114854 0.226690 0.104696 -0.322954
O64   O     O_R   0.141852 0.120747 0.132012 -0.290463
N9    N     N_R   0.742885 0.395749 0.955238 0.157419
O65   O     O_R   0.764501 0.413974 0.871008 -0.341813
O66   O     O_R   0.713239 0.441381 0.015898 -0.276746
N10   N     N_R   0.356190 0.807116 0.940465 0.156241
O67   O     O_R   0.366802 0.841075 0.997086 -0.309101
O68   O     O_R   0.394300 0.798423 0.858852 -0.289888
N11   N     N_R   0.338804 0.343133 0.911999 0.138736
O69   O     O_R   0.325672 0.405249 0.949148 -0.312148
O70   O     O_R   0.385122 0.334718 0.840816 -0.303830
N12   N     N_R   0.656737 0.676467 0.092489 0.133381
O71   O     O_R   0.617130 0.719550 0.106237 -0.332354
O72   O     O_R   0.646108 0.613097 0.128004 -0.265981
N13   N     N_R   0.297725 0.840490 0.845421 0.163286
O73   O     O_R   0.334607 0.817456 0.768550 -0.312113
O74   O     O_R   0.276468 0.902887 0.849782 -0.322930
N14   N     N_R   0.800726 0.360286 0.050598 0.159192
O75   O     O_R   0.772733 0.411550 0.103088 -0.232113
O76   O     O_R   0.852357 0.356417 0.024534 -0.318518
N15   N     N_R   0.739825 0.658636 0.146298 0.155018
O77   O     O_R   0.780741 0.621621 0.140514 -0.263914
O78   O     O_R   0.694469 0.656565 0.220458 -0.279717
N16   N     N_R   0.308377 0.257776 0.803966 0.136094
O79   O     O_R   0.318951 0.199062 0.758924 -0.330370
O80   O     O_R   0.322990 0.318025 0.760856 -0.282465
N17   N     N_R   0.700898 0.142679 0.948087 0.156958
O81   O     O_R   0.649349 0.146844 0.973514 -0.323297
O82   O     O_R   0.728661 0.090364 0.897502 -0.250840
N18   N     N_R   0.204250 0.659363 0.151520 0.164488
O83   O     O_R   0.225222 0.596470 0.144880 -0.317144
O84   O     O_R   0.168793 0.682050 0.229655 -0.367010
N19   N     N_R   0.236426 0.163225 0.148844 0.145353
O85   O     O_R   0.276730 0.124871 0.143182 -0.291194
O86   O     O_R   0.191166 0.162548 0.223218 -0.280586
N20   N     N_R   0.810133 0.753389 0.802160 0.136662
O87   O     O_R   0.819817 0.694702 0.757246 -0.329188
O88   O     O_R   0.825322 0.813507 0.758889 -0.271366

loop_
_geom_bond_atom_site_label_1
_geom_bond_atom_site_label_2
_geom_bond_distance
_ccdc_geom_bond_type
C126  C134  1.408181 A    
Cu2   Cu5   2.670656 S    
C59   C64   1.405157 A    
Cu10  O46   1.963760 S    
C74   H14   1.081324 S    
N10   O67   1.301230 A    
O35   C149  1.299703 A    
C99   N8    1.435853 S    
C38   C40   1.413073 A    
Cu11  O41   1.963760 S    
C86   N14   1.436412 S    
Cu6   O22   1.959869 S    
C83   C96   1.425964 A    
C6    O22   1.284704 A    
N3    O54   1.300925 A    
C82   C146  1.481947 S    
O37   Cu9   1.959981 S    
Cu4   O28   1.968752 S    
C102  C110  1.404301 A    
Cu11  Cu12  2.695283 S    
N18   O84   1.300111 A    
N6    O59   1.300830 A    
N11   O70   1.301994 A    
O3    Cu3   1.961282 S    
C36   C43   1.408641 A    
C49   C67   1.416424 A    
C91   C99   1.408520 A    
C136  H36   1.075286 S    
C51   C73   1.415297 A    
C49   C57   1.435589 A    
C134  H34   1.083585 S    
C87   C95   1.409115 A    
C128  C136  1.403638 A    
C25   C27   1.398275 A    
C52   C67   1.415315 A    
C107  C147  1.410895 A    
O25   C9    1.289160 A    
C7    C128  1.464322 S    
C115  C153  1.460860 S    
C29   C31   1.396012 A    
C41   C65   1.424431 A    
C52   C60   1.425540 A    
O40   C154  1.297986 A    
C149  O41   1.297807 A    
C38   C42   1.404780 A    
C45   C53   1.438535 A    
C51   C68   1.415634 A    
C140  H40   1.075266 S    
C3    O19   1.293467 A    
N20   O87   1.301349 A    
C153  O45   1.297719 A    
C62   N2    1.435985 S    
C109  C151  1.464581 S    
C90   C98   1.408501 A    
C13   C54   1.503023 S    
O12   Cu4   1.954656 S    
O13   Cu5   1.958880 S    
C44   C68   1.421823 A    
H2    C31   1.083677 S    
N14   O75   1.300567 A    
C104  C144  1.408133 A    
C34   C36   1.418102 A    
N5    O58   1.301338 A    
H6    C27   1.083594 S    
C105  C113  1.404469 A    
C8    O24   1.292934 A    
C111  C119  1.386594 A    
Cu9   O45   1.963760 S    
C112  C120  1.387172 A    
C16   C55   1.500788 S    
O2    C13   1.312408 A    
C20   C73   1.405315 A    
C9    C58   1.491348 S    
H7    C26   1.083621 S    
C79   C143  1.520356 S    
C50   C58   1.435422 A    
C60   C63   1.404935 A    
C137  H37   1.083628 S    
Cu3   O19   1.952865 S    
O10   Cu2   1.958880 S    
C103  H19   1.073121 S    
C104  H20   1.074419 S    
O34   C152  1.302220 A    
C92   N20   1.437585 S    
C114  C122  1.394597 A    
O5    Cu5   1.971100 S    
C40   C41   1.404380 A    
C46   C54   1.437229 A    
Cu12  O43   1.965086 S    
C118  H26   1.083370 S    
C53   C61   1.414281 A    
C135  C143  1.414942 A    
Cu9   O48   1.965083 S    
C21   C29   1.403646 A    
O32   C16   1.296812 A    
C117  C125  1.392535 A    
C110  C118  1.394309 A    
C23   C31   1.403337 A    
C34   C44   1.407666 A    
C47   C69   1.419645 A    
C50   C76   1.419095 A    
C122  C130  1.392623 A    
C26   C28   1.399513 A    
C55   C62   1.415369 A    
O7    C12   1.312867 A    
C8    C127  1.463712 S    
Cu2   O26   1.974405 S    
C30   C32   1.395965 A    
C78   C97   1.412709 A    
C18   C26   1.404820 A    
O40   Cu9   1.965624 S    
C76   H16   1.078189 S    
N1    O49   1.300612 A    
C17   C76   1.402759 A    
C81   C145  1.481595 S    
C46   C72   1.421681 A    
C120  C128  1.386478 A    
C10   C57   1.491155 S    
H8    C25   1.083350 S    
O33   Cu11  1.959981 S    
C110  C152  1.463090 S    
C105  H21   1.083615 S    
O28   C12   1.295448 A    
O16   C3    1.302912 A    
C42   C66   1.423644 A    
O29   C13   1.287630 A    
Cu9   Cu10  2.695283 S    
C101  C141  1.399406 A    
C138  C146  1.399756 A    
H1    C32   1.083668 S    
C131  C139  1.402411 A    
H3    C30   1.083669 S    
C129  C137  1.407969 A    
C106  C146  1.398731 A    
C47   C55   1.431673 A    
Cu5   O29   1.974405 S    
C82   C93   1.411630 A    
N16   O80   1.301822 A    
C84   C148  1.519301 S    
C151  O43   1.293918 A    
C77   C98   1.411873 A    
Cu8   O32   1.968752 S    
C2    C129  1.465293 S    
C101  H17   1.083638 S    
C80   C99   1.424964 A    
O37   C155  1.302331 A    
C15   C56   1.500781 S    
C124  C132  1.386039 A    
C79   C100  1.426396 A    
O35   Cu12  1.965623 S    
C94   N9    1.434935 S    
C140  C148  1.414361 A    
N13   O73   1.300762 A    
N15   O78   1.301742 A    
H5    C28   1.083559 S    
C80   C144  1.517510 S    
Cu4   Cu7   2.688984 S    
N4    O56   1.302835 A    
O9    C6    1.297802 A    
O26   C10   1.289377 A    
O11   C8    1.300267 A    
C19   C33   1.408279 A    
N19   O86   1.301748 A    
O12   C7    1.301855 A    
C107  C115  1.400287 A    
O39   Cu10  1.965623 S    
C81   C94   1.413193 A    
C108  H24   1.074021 S    
C19   C27   1.403302 A    
C112  C150  1.457082 S    
C89   N17   1.436843 S    
Cu11  O44   1.965083 S    
C4    C131  1.462455 S    
C122  H30   1.083371 S    
N2    O51   1.302985 A    
C108  C116  1.400073 A    
C33   C35   1.417613 A    
N9    O66   1.300668 A    
C139  H39   1.075205 S    
O1    Cu1   1.971100 S    
Cu10  O47   1.965086 S    
C95   N12   1.435159 S    
C20   C34   1.408242 A    
O14   Cu6   1.958880 S    
Cu7   O31   1.968753 S    
N10   O68   1.300555 A    
C24   C32   1.403040 A    
C134  C142  1.400331 A    
O7    Cu7   1.961282 S    
O8    Cu8   1.961284 S    
O13   C2    1.298533 A    
N17   O82   1.300900 A    
C106  C114  1.406252 A    
C90   N18   1.432840 S    
N6    O60   1.301239 A    
C5    C126  1.466063 S    
C91   N19   1.438495 S    
C18   C75   1.403801 A    
C45   C71   1.422378 A    
C69   H9    1.076450 S    
C1    O17   1.284978 A    
C71   H11   1.073997 S    
Cu12  O42   1.963760 S    
C125  C133  1.406357 A    
N7    O61   1.300990 A    
C87   N15   1.438807 S    
N3    O53   1.302804 A    
O11   Cu3   1.954656 S    
Cu1   O17   1.959868 S    
O36   C150  1.298364 A    
C81   C89   1.411041 A    
C115  C123  1.386667 A    
C47   C66   1.414603 A    
N20   O88   1.301822 A    
O6    Cu6   1.971098 S    
C123  C131  1.385793 A    
C113  C121  1.394176 A    
C83   C147  1.519215 S    
N12   O71   1.301092 A    
O38   Cu10  1.959977 S    
C121  C129  1.392702 A    
C116  C124  1.387084 A    
O38   C156  1.303047 A    
C117  H25   1.083382 S    
C12   C59   1.494302 S    
O36   Cu11  1.965624 S    
C77   C141  1.481952 S    
C120  H28   1.083599 S    
C107  H23   1.073346 S    
C21   C39   1.399909 A    
N14   O76   1.301172 A    
C57   C63   1.413636 A    
C133  H33   1.083545 S    
N5    O57   1.301124 A    
C137  C145  1.400033 A    
Cu3   O27   1.968753 S    
C150  O42   1.295199 A    
C37   C41   1.405095 A    
C154  O46   1.295048 A    
N15   O77   1.301285 A    
C78   C86   1.411217 A    
C85   N13   1.434038 S    
N11   O69   1.301145 A    
C106  H22   1.083667 S    
O30   C14   1.286499 A    
C135  H35   1.075377 S    
C45   C65   1.416759 A    
C84   C95   1.426122 A    
C14   C53   1.502954 S    
Cu6   O30   1.974405 S    
O4    C15   1.314278 A    
O5    C10   1.304347 A    
C54   C62   1.414591 A    
C97   N6    1.434251 S    
C136  C144  1.413027 A    
C102  H18   1.083593 S    
C88   N16   1.437322 S    
C75   H15   1.078554 S    
C73   H13   1.081364 S    
C24   C38   1.400692 A    
C72   H12   1.074498 S    
C51   C59   1.426603 A    
C21   C72   1.394927 A    
C77   C85   1.412842 A    
Cu1   Cu6   2.670656 S    
C86   C94   1.409018 A    
Cu3   Cu8   2.688984 S    
C80   C88   1.422120 A    
O10   C5    1.298535 A    
O27   C11   1.295596 A    
O15   C4    1.299350 A    
C113  C155  1.462411 S    
C43   C67   1.421511 A    
O14   C1    1.298107 A    
Cu4   O20   1.952864 S    
Cu5   O21   1.959868 S    
C4    O20   1.293233 A    
C49   C75   1.419271 A    
N17   O81   1.301286 A    
C39   C42   1.404092 A    
C5    O21   1.284783 A    
C92   C100  1.409399 A    
C88   C96   1.409003 A    
C101  C109  1.406882 A    
C155  O47   1.294053 A    
N19   O85   1.301269 A    
C22   C30   1.403937 A    
O34   Cu12  1.959977 S    
C118  C126  1.392941 A    
C22   C40   1.399277 A    
C84   C92   1.421822 A    
C46   C66   1.416575 A    
C96   N11   1.433787 S    
C85   C93   1.409524 A    
C58   C64   1.413281 A    
C35   C44   1.408788 A    
C83   C91   1.422372 A    
C48   C70   1.420173 A    
N7    O62   1.301991 A    
C82   C90   1.411334 A    
C56   C61   1.414854 A    
O33   C151  1.303502 A    
C103  C143  1.410793 A    
C17   C35   1.405383 A    
C17   C25   1.404741 A    
C100  N7    1.433194 S    
C23   C37   1.400097 A    
C2    O18   1.284515 A    
C11   C60   1.493795 S    
C24   C69   1.394646 A    
C98   N5    1.437962 S    
N12   O72   1.302020 A    
C89   C97   1.408111 A    
O15   Cu7   1.954656 S    
O16   Cu8   1.954656 S    
C139  C147  1.413778 A    
C104  C112  1.400168 A    
C132  C140  1.404908 A    
C130  C138  1.406758 A    
C105  C145  1.397740 A    
C37   C39   1.413033 A    
H4    C29   1.083668 S    
C3    C132  1.465543 S    
N2    O52   1.300625 A    
C1    C130  1.465272 S    
C78   C142  1.482049 S    
N9    O65   1.301051 A    
C119  C127  1.385481 A    
N1    O50   1.302939 A    
O1    C14   1.313400 A    
O3    C16   1.313249 A    
C50   C68   1.416605 A    
C22   C71   1.394536 A    
C127  C135  1.403460 A    
C108  C148  1.407612 A    
C20   C28   1.404028 A    
C33   C43   1.407513 A    
Cu2   O18   1.959869 S    
O8    C11   1.312342 A    
C63   N3    1.437322 S    
C114  C156  1.464159 S    
O9    Cu1   1.958880 S    
N8    O64   1.301928 A    
C19   C74   1.403995 A    
C64   N4    1.437242 S    
N18   O83   1.301025 A    
O31   C15   1.295595 A    
C111  C149  1.460533 S    
N16   O79   1.301334 A    
C152  O44   1.294382 A    
C23   C70   1.394206 A    
C123  H31   1.083450 S    
N8    O63   1.301121 A    
C121  H29   1.083401 S    
O2    Cu2   1.971098 S    
C119  H27   1.083446 S    
C156  O48   1.294046 A    
O4    Cu4   1.961284 S    
C138  H38   1.083526 S    
C48   C56   1.432713 A    
N13   O74   1.300877 A    
Cu7   O23   1.952865 S    
C133  C141  1.398840 A    
C79   C87   1.421815 A    
Cu8   O24   1.952864 S    
C93   N10   1.437581 S    
C7    O23   1.294001 A    
C52   C74   1.414577 A    
C109  C117  1.394424 A    
O6    C9    1.304604 A    
C61   N1    1.436139 S    
C48   C65   1.414744 A    
Cu1   O25   1.974405 S    
N4    O55   1.300894 A    
C18   C36   1.405796 A    
C6    C125  1.464384 S    
C124  H32   1.083640 S    
C102  C142  1.398203 A    
C103  C111  1.400117 A    
C70   H10   1.076141 S    
O39   C153  1.300064 A    
C116  C154  1.456116 S    
