data_mof_unit_26116.cif
_audit_creation_date              2012-12-10T18:21:18-0500
_audit_creation_method            fapswitch 2.2
_symmetry_space_group_name_H-M    P1
_symmetry_Int_Tables_number       1
_space_group_crystal_system       triclinic
_cell_length_a                    14.9897
_cell_length_b                    14.002712
_cell_length_c                    10.678859
_cell_angle_alpha                 89.773216
_cell_angle_beta                  89.384998
_cell_angle_gamma                 90.089905
_cell_volume                      2241.30502499

loop_
_atom_site_label
_atom_site_type_symbol
_atom_type_description
_atom_site_fract_x
_atom_site_fract_y
_atom_site_fract_z
_atom_type_partial_charge
C1    C     C_R   0.326672 0.499750 0.503895 0.920841
C2    C     C_3   0.589318 0.455323 0.930267 -0.188770
C3    C     C_R   0.814535 0.569580 0.429430 -0.244388
C4    C     C_R   0.768462 0.499423 0.496673 -0.054666
C5    C     C_R   0.812630 0.426886 0.559348 -0.174011
C6    C     C_R   0.904559 0.425591 0.559359 0.019327
C7    C     C_R   0.952768 0.496345 0.492494 0.110260
C8    C     C_R   0.907574 0.567692 0.422641 0.060335
C9    C     C_R   0.948448 0.353883 0.624903 -0.252368
C10   C     C_R   0.040539 0.353730 0.630676 0.683968
C11   C     C_R   0.090464 0.427514 0.572273 -0.043373
C12   C     C_R   0.497702 0.500504 0.257996 0.920489
C13   C     C_R   0.045880 0.495965 0.497008 -0.093159
C14   C     C_R   0.094133 0.564509 0.427138 -0.011732
C15   C     C_R   0.049839 0.632480 0.354361 -0.088664
C16   C     C_R   0.956743 0.635341 0.350763 -0.068477
C17   C     C_R   0.183515 0.434201 0.584700 -0.188209
C18   C     C_R   0.230692 0.498622 0.506403 -0.258512
C19   C     C_R   0.186479 0.563123 0.428812 0.586561
C20   C     C_R   0.546124 0.798422 0.408713 0.015601
C21   C     C_R   0.545736 0.202257 0.408337 -0.031692
C22   C     C_R   0.453932 0.797795 0.591185 0.040146
C23   C     C_R   0.454791 0.201448 0.591983 -0.006073
C24   C     C_R   0.453135 0.898433 0.593669 -0.008200
C25   C     C_R   0.453557 0.100805 0.594047 0.002047
C26   C     C_R   0.673190 0.500025 0.499171 0.860207
C27   C     C_R   0.500123 0.949363 0.499978 0.085763
C28   C     C_R   0.500174 0.050594 0.500019 0.096023
C29   C     C_R   0.547045 0.899112 0.406254 0.013509
C30   C     C_R   0.546900 0.101569 0.406112 0.013090
C31   C     C_R   0.406722 0.949101 0.687138 -0.142940
C32   C     C_R   0.407030 0.049440 0.687421 -0.160385
C33   C     C_R   0.593418 0.050877 0.312744 -0.174701
C34   C     C_R   0.593547 0.950510 0.312872 -0.156579
C35   C     C_R   0.498885 0.499991 0.742541 0.944032
C36   C     C_3   0.480626 0.606432 0.071312 -0.358858
C37   C     C_3   0.422697 0.431078 0.072680 -0.364470
C38   C     C_3   0.489206 0.606574 0.927827 1.031213
C39   C     C_3   0.415649 0.443108 0.929315 1.036235
C40   C     C_3   0.588339 0.467845 0.075087 -0.485291
C41   C     C_3   0.495046 0.502029 0.122099 -0.278705
C42   C     C_3   0.499207 0.500495 0.879357 -0.377384
H1    H     H_    0.535689 0.652022 0.107607 0.208096
H2    H     H_    0.447085 0.357459 0.092110 0.178767
H3    H     H_    0.088136 0.683557 0.299277 0.242098
H4    H     H_    0.581989 0.758394 0.337789 0.128159
H5    H     H_    0.581290 0.242807 0.337088 0.132392
H6    H     H_    0.417759 0.757327 0.661799 0.197625
H7    H     H_    0.419791 0.241246 0.663738 0.174980
H8    H     H_    0.370289 0.911153 0.760062 0.182345
H9    H     H_    0.370808 0.086847 0.760534 0.181701
H10   H     H_    0.629721 0.088823 0.239696 0.155710
H11   H     H_    0.629964 0.913115 0.239941 0.160203
H12   H     H_    0.639110 0.521169 0.104894 0.221501
H13   H     H_    0.607657 0.400085 0.122785 0.185767
H14   H     H_    0.776414 0.624465 0.383169 0.134217
H15   H     H_    0.775189 0.372854 0.610872 0.194266
H16   H     H_    0.911274 0.297506 0.671992 0.198913
N1    N     N_R   0.500070 0.750030 0.500050 -0.111254
N2    N     N_R   0.500070 0.249970 0.500050 -0.108220
O1    O     O_R   0.367860 0.580280 0.500020 -0.541157
O2    O     O_R   0.367860 0.419720 0.500020 -0.665840
O3    O     O_R   0.500000 0.580270 0.314790 -0.608964
O4    O     O_R   0.500000 0.419730 0.314790 -0.640256
O5    O     O_R   0.632160 0.580270 0.499960 -0.633033
O6    O     O_R   0.632160 0.419730 0.499960 -0.612170
O7    O     O_R   0.500030 0.580270 0.685200 -0.566639
O8    O     O_R   0.500030 0.419730 0.685200 -0.585414
Zn1   Zn    Zn3+2 0.500020 0.607200 0.499990 1.040252
Zn2   Zn    Zn3+2 0.500020 0.392800 0.499990 0.984292
F1    F     F_    0.079730 0.278133 0.687841 -0.626187
C43   C     C_2   0.230133 0.383497 0.687958 0.683433
H17   H     H_    0.292444 0.346650 0.671904 0.073041
O9    O     O_2   0.199510 0.384892 0.794375 -0.405928
F2    F     F_    0.233824 0.624737 0.354688 -0.659164
C44   C     C_2   0.913798 0.707523 0.268171 0.452216
H18   H     H_    0.845805 0.699063 0.236984 0.059690
O10   O     O_2   0.955126 0.777655 0.231417 -0.524468
C45   C     C_2   0.393903 0.651934 0.115208 0.581875
H19   H     H_    0.330247 0.624778 0.083732 0.133820
O11   O     O_2   0.394861 0.721568 0.183656 -0.510415
C46   C     C_2   0.332684 0.436075 0.138505 0.545656
H20   H     H_    0.320773 0.485687 0.214478 0.041683
O12   O     O_2   0.272853 0.381606 0.109074 -0.450512
F3    F     F_    0.415607 0.650544 0.874009 -0.642560
F4    F     F_    0.338179 0.491580 0.898427 -0.619842
F5    F     F_    0.562899 0.661290 0.893709 -0.678595
F6    F     F_    0.409686 0.353235 0.875815 -0.681531
C47   C     C_2   0.672161 0.504189 0.874801 0.582821
H21   H     H_    0.667950 0.548069 0.791167 0.086638
O13   O     O_2   0.745753 0.490077 0.919359 -0.550213
C48   C     C_2   0.595856 0.348807 0.900010 0.524357
H22   H     H_    0.558362 0.297050 0.955168 0.090187
O14   O     O_2   0.642650 0.319426 0.813985 -0.562373

loop_
_geom_bond_atom_site_label_1
_geom_bond_atom_site_label_2
_ccdc_geom_bond_type
C22   H6    S    
C27   C29   A    
C24   C27   A    
C1    O2    A    
C6    C9    A    
C7    C8    A    
C33   H10   S    
C1    C18   S    
C34   H11   S    
C44   O10   D    
C38   C42   S    
C5    C6    A    
C12   O4    A    
C23   H7    S    
C15   C16   A    
O2    Zn2   S    
C18   C19   A    
C35   C42   S    
C11   C17   A    
O3    Zn1   S    
O4    Zn2   S    
C47   O13   D    
C9    C10   A    
C10   F1    S    
C25   C32   A    
C8    C16   A    
C13   C14   A    
C36   C41   S    
C39   F6    S    
C17   C18   A    
C39   C42   S    
C20   C29   A    
C23   N2    A    
C38   F3    S    
C26   O6    A    
C44   H18   S    
C21   N2    A    
C43   O9    D    
C3    C8    A    
C10   C11   A    
C22   N1    A    
C45   O11   D    
C12   O3    A    
C43   H17   S    
C29   C34   A    
O7    Zn1   S    
C2    C47   S    
C32   H9    S    
C12   C41   S    
C3    H14   S    
C31   C32   A    
N2    Zn2   S    
C40   H13   S    
C48   O14   D    
C33   C34   A    
C20   N1    A    
C2    C48   S    
N1    Zn1   S    
C40   C41   S    
C46   O12   D    
C22   C24   A    
C37   C46   S    
C15   H3    S    
C31   H8    S    
C3    C4    A    
O1    Zn1   S    
C9    H16   S    
C30   C33   A    
C16   C44   S    
C26   O5    A    
C14   C19   A    
C4    C5    A    
C36   C45   S    
C1    O1    A    
C4    C26   S    
C6    C7    A    
C21   C30   A    
C40   H12   S    
C5    H15   S    
C38   F5    S    
C37   H2    S    
C19   F2    S    
C24   C31   A    
C37   C39   S    
C36   C38   S    
C11   C13   A    
O6    Zn2   S    
C35   O8    A    
C2    C42   S    
O5    Zn1   S    
C28   C30   A    
C48   H22   S    
C23   C25   A    
C37   C41   S    
C35   O7    A    
C25   C28   A    
C45   H19   S    
C2    C40   S    
C7    C13   A    
C17   C43   S    
O8    Zn2   S    
C46   H20   S    
C27   C28   A    
C14   C15   A    
C36   H1    S    
C39   F4    S    
C47   H21   S    
C20   H4    S    
C21   H5    S    
