data_mof_unit_20779.cif
_audit_creation_date              2012-12-10T17:47:18-0500
_audit_creation_method            fapswitch 2.2
_symmetry_space_group_name_H-M    P1
_symmetry_Int_Tables_number       1
_space_group_crystal_system       triclinic
_cell_length_a                    11.705341
_cell_length_b                    14.761852
_cell_length_c                    14.813673
_cell_angle_alpha                 64.633954
_cell_angle_beta                  104.379094
_cell_angle_gamma                 103.328667
_cell_volume                      2217.8039526

loop_
_atom_site_label
_atom_site_type_symbol
_atom_type_description
_atom_site_fract_x
_atom_site_fract_y
_atom_site_fract_z
_atom_type_partial_charge
C1    C     C_R   0.479396 0.119705 0.312312 0.800512
C2    C     C_R   0.520604 0.880295 0.687688 0.800514
C3    C     C_R   0.374230 0.328323 0.009607 0.038690
C4    C     C_R   0.625770 0.671677 0.990393 0.038690
C5    C     C_R   0.514716 0.465115 0.050960 -0.004391
C6    C     C_R   0.485285 0.534885 0.949040 -0.004390
C7    C     C_R   0.413859 0.495943 0.876312 -0.078995
C8    C     C_R   0.586142 0.504057 0.123688 -0.078995
C9    C     C_R   0.352096 0.396633 0.907225 -0.100626
C10   C     C_R   0.647905 0.603367 0.092775 -0.100626
C11   C     C_R   0.726269 0.305022 0.637840 -0.004308
C12   C     C_R   0.273731 0.694978 0.362160 -0.004310
C13   C     C_R   0.683002 0.214707 0.622249 0.153409
C14   C     C_R   0.316998 0.785293 0.377751 0.153410
C15   C     C_R   0.508369 0.281290 0.516573 0.042072
C16   C     C_R   0.491631 0.718710 0.483427 0.042071
C17   C     C_R   0.543323 0.371047 0.536789 -0.041417
C18   C     C_R   0.456678 0.628953 0.463211 -0.041417
C19   C     C_R   0.646207 0.374677 0.610190 0.062885
C20   C     C_R   0.353793 0.625323 0.389810 0.062884
C21   C     C_R   0.482091 0.457907 0.485178 0.052494
C22   C     C_R   0.517909 0.542092 0.514822 0.052494
C23   C     C_R   0.284016 0.999809 0.499807 0.825009
C24   C     C_R   0.715984 0.000190 0.500193 0.825009
C25   C     C_R   0.606905 0.533286 0.600514 -0.192197
C26   C     C_R   0.393095 0.466714 0.399486 -0.192198
C27   C     C_R   0.665673 0.448164 0.652247 0.141651
C28   C     C_R   0.334327 0.551835 0.347753 0.141652
C29   C     C_1   0.162135 0.999408 0.499689 -0.161722
C30   C     C_1   0.837865 0.000591 0.500311 -0.161722
C31   C     C_1   0.059772 0.999693 0.499844 0.011476
C32   C     C_1   0.940227 0.000306 0.500156 0.011476
C33   C     C_R   0.451003 0.186613 0.205125 -0.073048
C34   C     C_R   0.548997 0.813387 0.794875 -0.073049
C35   C     C_R   0.312679 0.227107 0.046638 -0.022958
C36   C     C_R   0.687320 0.772894 0.953363 -0.022959
C37   C     C_R   0.351516 0.158653 0.143731 -0.219376
C38   C     C_R   0.648482 0.841348 0.856269 -0.219375
C39   C     C_R   0.512825 0.283908 0.168795 -0.214342
C40   C     C_R   0.487175 0.716092 0.831205 -0.214343
C41   C     C_R   0.467469 0.359855 0.077297 0.068418
C42   C     C_R   0.532531 0.640145 0.922703 0.068419
Cu1   Cu    Cu3+1 0.469550 0.918260 0.475690 0.963264
Cu2   Cu    Cu3+1 0.530450 0.081740 0.524310 0.963264
H1    H     H_    0.628122 0.589605 0.632438 0.149507
H2    H     H_    0.371878 0.410395 0.367562 0.149506
H3    H     H_    0.402059 0.702125 0.786959 0.155070
H4    H     H_    0.597941 0.297874 0.213040 0.155069
H5    H     H_    0.697824 0.916435 0.827634 0.177684
H6    H     H_    0.302174 0.083566 0.172367 0.177685
H7    H     H_    0.572936 0.729520 0.533343 0.133744
H8    H     H_    0.427063 0.270480 0.466657 0.133744
N1    N     N_R   0.576230 0.204580 0.560790 -0.215481
N2    N     N_R   0.423770 0.795420 0.439210 -0.215481
O1    O     O_R   0.459870 0.022090 0.338120 -0.582128
O2    O     O_R   0.540130 0.977910 0.661880 -0.582128
O3    O     O_R   0.511290 0.160150 0.379180 -0.567075
O4    O     O_R   0.488710 0.839850 0.620820 -0.567075
O5    O     O_R   0.311490 0.930960 0.479480 -0.573219
O6    O     O_R   0.688510 0.069040 0.520520 -0.573218
O7    O     O_R   0.362910 0.069020 0.520540 -0.582794
O8    O     O_R   0.637090 0.930980 0.479460 -0.582795
C43   C     C_1   0.276888 0.363714 0.829329 0.256405
N3    N     N_1   0.217812 0.338600 0.766474 -0.276973
C44   C     C_1   0.723114 0.636285 0.170671 0.256405
N4    N     N_1   0.782191 0.661399 0.233527 -0.276973
C45   C     C_1   0.203136 0.191432 0.993048 0.251081
N5    N     N_1   0.115186 0.162073 0.951142 -0.252947
C46   C     C_1   0.796860 0.808570 0.006954 0.251080
N6    N     N_1   0.884809 0.837931 0.048860 -0.252945
C47   C     C_1   0.411502 0.551593 0.768054 0.216526
N7    N     N_1   0.407836 0.595055 0.681595 -0.286749
C48   C     C_1   0.588498 0.448406 0.231946 0.216527
N8    N     N_1   0.592164 0.404944 0.318405 -0.286748
C49   C     C_3   0.737276 0.432512 0.757740 -0.440084
C50   C     C_3   0.663020 0.433158 0.829059 -0.783306
H9    H     H_    0.645756 0.511014 0.808244 0.248387
H10   H     H_    0.577174 0.382101 0.826770 0.261678
H11   H     H_    0.712679 0.406476 0.907987 0.240929
H12   H     H_    0.770027 0.358052 0.795076 0.215730
H13   H     H_    0.815303 0.492960 0.751818 0.202721
C51   C     C_3   0.262723 0.567487 0.242261 -0.440084
C52   C     C_3   0.336979 0.566842 0.170941 -0.783308
H14   H     H_    0.422824 0.617900 0.173229 0.261678
H15   H     H_    0.354245 0.488987 0.191756 0.248388
H16   H     H_    0.287320 0.593523 0.092013 0.240929
H17   H     H_    0.184696 0.507039 0.248183 0.202721
H18   H     H_    0.229972 0.641947 0.204925 0.215731
C53   C     C_1   0.245412 0.866411 0.328174 0.305815
N9    N     N_1   0.185426 0.929736 0.288234 -0.309937
C54   C     C_1   0.754588 0.133589 0.671825 0.305815
N10   N     N_1   0.814574 0.070264 0.711766 -0.309936
C55   C     C_3   0.860778 0.334402 0.664080 -0.432078
C56   C     C_3   0.925061 0.348347 0.579728 -0.760171
H19   H     H_    0.918969 0.275948 0.571799 0.253273
H20   H     H_    0.886127 0.404642 0.506312 0.252996
H21   H     H_    0.020798 0.376785 0.597551 0.255507
H22   H     H_    0.883369 0.408072 0.671662 0.214358
H23   H     H_    0.897831 0.276391 0.737018 0.225028
C57   C     C_3   0.139222 0.665597 0.335921 -0.432082
C58   C     C_3   0.074940 0.651654 0.420272 -0.760159
H24   H     H_    0.113880 0.595363 0.493691 0.252997
H25   H     H_    0.081026 0.724056 0.428196 0.253272
H26   H     H_    0.979203 0.623208 0.402453 0.255504
H27   H     H_    0.102168 0.723607 0.262982 0.225028
H28   H     H_    0.116631 0.591927 0.328340 0.214359

loop_
_geom_bond_atom_site_label_1
_geom_bond_atom_site_label_2
_ccdc_geom_bond_type
C40   H3    S    
C21   C26   A    
C4    C36   A    
C55   C56   S    
C25   H1    S    
C48   N8    T    
C16   H7    S    
Cu1   Cu2   S    
C9    C43   S    
C1    C33   S    
C39   C41   A    
C38   H5    S    
C23   O5    A    
C11   C19   A    
C57   H27   S    
C33   C39   A    
C34   C40   A    
C15   N1    A    
C35   C37   A    
C50   H10   S    
C7    C47   S    
C5    C6    A    
C51   H17   S    
C7    C9    A    
C8    C48   S    
Cu1   O4    S    
Cu2   N1    S    
C31   C32   S    
C22   C25   A    
C50   H11   S    
C3    C35   A    
C19   C27   A    
C49   H12   S    
C55   H23   S    
Cu1   O5    S    
C2    C34   S    
C40   C42   A    
C58   H25   S    
C34   C38   A    
C21   C22   A    
C13   C54   S    
C46   N6    T    
C27   C49   S    
C13   N1    A    
C28   C51   S    
C45   N5    T    
C58   H24   S    
C50   H9    S    
C54   N10   T    
C49   H13   S    
C20   C28   A    
C56   H21   S    
C33   C37   A    
C49   C50   S    
C14   C53   S    
C3    C9    A    
C1    O3    A    
Cu2   O2    S    
Cu1   N2    S    
C52   H14   S    
C35   C45   S    
Cu2   O3    S    
C24   O6    A    
C12   C20   A    
C16   C18   A    
C15   H8    S    
C56   H20   S    
Cu1   O1    S    
C14   N2    A    
C12   C14   A    
C44   N4    T    
C58   H26   S    
C4    C10   A    
C23   C29   S    
C36   C46   S    
C10   C44   S    
C15   C17   A    
C5    C41   A    
C3    C41   A    
C24   O8    A    
C52   H15   S    
C18   C22   A    
C57   H28   S    
C5    C8    A    
C2    O4    A    
C6    C7    A    
Cu2   O7    S    
C25   C27   A    
C26   C28   A    
C16   N2    A    
C36   C38   A    
C1    O1    A    
C47   N7    T    
C29   C31   T    
C2    O2    A    
C30   C32   T    
C37   H6    S    
C11   C13   A    
C11   C55   S    
C4    C42   A    
Cu2   O6    S    
C51   H18   S    
C57   C58   S    
C17   C19   A    
C18   C20   A    
C56   H19   S    
C24   C30   S    
C12   C57   S    
C26   H2    S    
C43   N3    T    
C23   O7    A    
C52   H16   S    
C8    C10   A    
C51   C52   S    
C6    C42   A    
C53   N9    T    
C55   H22   S    
Cu1   O8    S    
C39   H4    S    
C17   C21   A    
