data_mof_unit_33084.cif
_audit_creation_date              2012-12-10T16:57:46-0500
_audit_creation_method            fapswitch 2.2
_symmetry_space_group_name_H-M    P1
_symmetry_Int_Tables_number       1
_space_group_crystal_system       triclinic
_cell_length_a                    7.739232
_cell_length_b                    8.57785
_cell_length_c                    19.262157
_cell_angle_alpha                 90.582607
_cell_angle_beta                  87.449501
_cell_angle_gamma                 93.423584
_cell_volume                      1275.15423878

loop_
_atom_site_label
_atom_site_type_symbol
_atom_type_description
_atom_site_fract_x
_atom_site_fract_y
_atom_site_fract_z
_atom_type_partial_charge
C1    C     C_R   0.545682 0.794718 0.498184 0.975728
C2    C     C_R   0.633520 0.541282 0.178244 -0.141442
C3    C     C_R   0.522413 0.483031 0.855045 -0.004542
C4    C     C_R   0.477926 0.516514 0.144944 -0.004605
C5    C     C_R   0.680646 0.508684 0.816440 -0.065532
C6    C     C_R   0.319613 0.491102 0.183519 -0.065373
C7    C     C_R   0.678821 0.511263 0.743395 -0.064986
C8    C     C_R   0.321279 0.488837 0.256575 -0.065067
C9    C     C_R   0.517779 0.493523 0.710334 -0.129825
C10   C     C_R   0.482287 0.506525 0.289668 -0.129671
C11   C     C_R   0.486926 0.509475 0.069652 0.327204
C12   C     C_R   0.454318 0.205282 0.501816 0.975600
C13   C     C_R   0.513515 0.489972 0.930341 0.327396
C14   C     C_2   0.847454 0.527437 0.852033 0.905892
C15   C     C_2   0.152893 0.472399 0.147868 0.905891
C16   C     C_2   0.845668 0.520089 0.702748 0.936066
C17   C     C_2   0.154341 0.480436 0.297179 0.934770
C18   C     C_2   0.569864 0.958042 0.497157 -0.346460
C19   C     C_2   0.430136 0.041958 0.502843 -0.346449
C20   C     C_R   0.505343 0.499275 0.634534 0.879433
C21   C     C_R   0.494667 0.500768 0.365468 0.879431
C22   C     C_R   0.364005 0.466509 0.750442 -0.134949
C23   C     C_R   0.636148 0.533312 0.249586 -0.134731
C24   C     C_R   0.366764 0.458299 0.821776 -0.141591
H1    H     H_    0.240329 0.450083 0.726730 0.189284
H2    H     H_    0.933142 0.339813 0.133056 0.351682
H3    H     H_    0.022986 0.401935 0.647162 0.341427
H4    H     H_    0.977527 0.598958 0.352886 0.341328
H5    H     H_    0.759805 0.549720 0.273326 0.189097
H6    H     H_    0.245551 0.437052 0.851392 0.186620
H7    H     H_    0.754787 0.562381 0.148649 0.186480
H8    H     H_    0.701970 0.008723 0.491739 0.191073
H9    H     H_    0.298030 0.991277 0.508262 0.191104
H10   H     H_    0.013049 0.379851 0.449677 0.224142
H11   H     H_    0.986955 0.620184 0.550303 0.224344
H12   H     H_    0.067376 0.659948 0.866650 0.351690
N1    N     N_R   0.602309 0.606005 0.964251 -0.122501
N2    N     N_R   0.398129 0.393440 0.035743 -0.122526
N3    N     N_R   0.590107 0.615067 0.033021 -0.124580
N4    N     N_R   0.410336 0.384375 0.966972 -0.124636
N5    N     N_2   0.950330 0.457950 0.481240 -0.178614
N6    N     N_2   0.049670 0.542050 0.518760 -0.178687
O1    O     O_R   0.389250 0.738570 0.504600 -0.602264
O2    O     O_R   0.961755 0.656396 0.837281 -0.749195
O3    O     O_2   0.117352 0.568368 0.105017 -0.597165
O4    O     O_R   0.038678 0.343320 0.162470 -0.748590
O5    O     O_2   0.921750 0.646698 0.691009 -0.592859
O6    O     O_R   0.912937 0.382305 0.676965 -0.787852
O7    O     O_2   0.077276 0.354047 0.308524 -0.592610
O8    O     O_R   0.087987 0.618349 0.323300 -0.787319
O9    O     O_R   0.610750 0.261430 0.495400 -0.602348
O10   O     O_R   0.678400 0.711620 0.492580 -0.630355
O11   O     O_R   0.321600 0.288380 0.507420 -0.630386
O12   O     O_R   0.355380 0.513500 0.607880 -0.621584
O13   O     O_R   0.644620 0.486500 0.392120 -0.621489
O14   O     O_R   0.644530 0.486550 0.595850 -0.606033
O15   O     O_R   0.355470 0.513450 0.404150 -0.605813
O16   O     O_2   0.883027 0.431605 0.894946 -0.597062
Zn1   Zn    Zn3+2 0.306930 0.517990 0.508030 0.992017
Zn2   Zn    Zn3+2 0.693070 0.482010 0.491970 0.991997

loop_
_geom_bond_atom_site_label_1
_geom_bond_atom_site_label_2
_ccdc_geom_bond_type
C17   O8    S    
H3    O6    S    
C11   N2    A    
C2    C4    A    
C21   O15   A    
C10   C23   A    
C5    C7    A    
N5    N6    D    
C9    C20   S    
C13   N1    A    
C8    C17   S    
C3    C13   S    
O1    Zn1   S    
C20   O14   A    
C16   O6    S    
C1    C18   S    
N1    N3    A    
O13   Zn2   S    
C4    C11   S    
N2    N4    A    
C20   O12   A    
C5    C14   S    
H10   N5    S    
C14   O16   D    
C23   H5    S    
C16   O5    D    
C14   O2    S    
C7    C16   S    
O14   Zn2   S    
C24   H6    S    
O12   Zn1   S    
C10   C21   S    
O11   Zn1   S    
C11   N3    A    
C1    O10   A    
C22   C24   A    
C9    C22   A    
H12   O2    S    
O15   Zn1   S    
H2    O4    S    
C7    C9    A    
C12   O9    A    
C18   H8    S    
C12   C19   S    
C4    C6    A    
C18   C19   D    
C19   H9    S    
N6    Zn1   S    
C17   O7    D    
C2    C23   A    
C21   O13   A    
H11   N6    S    
C15   O3    D    
C13   N4    A    
C6    C8    A    
O9    Zn2   S    
O10   Zn2   S    
C15   O4    S    
C6    C15   S    
H4    O8    S    
C1    O1    A    
C8    C10   A    
C12   O11   A    
N5    Zn2   S    
C3    C24   A    
C2    H7    S    
C3    C5    A    
C22   H1    S    
