data_mof_unit_47618.cif
_audit_creation_date              2012-12-10T17:47:12-0500
_audit_creation_method            fapswitch 2.2
_symmetry_space_group_name_H-M    P1
_symmetry_Int_Tables_number       1
_space_group_crystal_system       triclinic
_cell_length_a                    11.698062
_cell_length_b                    14.713016
_cell_length_c                    14.648022
_cell_angle_alpha                 65.388899
_cell_angle_beta                  102.767408
_cell_angle_gamma                 102.583099
_cell_volume                      2212.80334495

loop_
_atom_site_label
_atom_site_type_symbol
_atom_type_description
_atom_site_fract_x
_atom_site_fract_y
_atom_site_fract_z
_atom_type_partial_charge
C1    C     C_R   0.480768 0.119490 0.312169 0.807311
C2    C     C_R   0.519204 0.880530 0.687815 0.807324
C3    C     C_R   0.474240 0.321513 0.001052 0.141777
C4    C     C_R   0.521454 0.678692 0.998537 0.141685
C5    C     C_R   0.497251 0.466406 0.051473 0.081990
C6    C     C_R   0.498803 0.533757 0.948309 0.081951
C7    C     C_R   0.483992 0.492280 0.874169 -0.224186
C8    C     C_R   0.510456 0.507929 0.125398 -0.223546
C9    C     C_R   0.473473 0.389301 0.900116 -0.225070
C10   C     C_R   0.520757 0.610909 0.099330 -0.225334
C11   C     C_R   0.681421 0.276328 0.679361 -0.315652
C12   C     C_R   0.317586 0.723337 0.321160 -0.315710
C13   C     C_R   0.656622 0.198648 0.644478 0.075624
C14   C     C_R   0.343031 0.801262 0.355732 0.075764
C15   C     C_R   0.520036 0.287241 0.507095 0.024527
C16   C     C_R   0.479734 0.712638 0.492975 0.024361
C17   C     C_R   0.543402 0.370939 0.536877 -0.048383
C18   C     C_R   0.455605 0.628660 0.463577 -0.048436
C19   C     C_R   0.623993 0.362757 0.627303 0.148234
C20   C     C_R   0.374688 0.636737 0.373347 0.148420
C21   C     C_R   0.487949 0.460470 0.481475 0.027110
C22   C     C_R   0.510673 0.538960 0.519161 0.026916
C23   C     C_R   0.284201 0.000364 0.500097 0.824917
C24   C     C_R   0.715799 0.999636 0.499903 0.824820
C25   C     C_R   0.586611 0.525020 0.611916 -0.221844
C26   C     C_R   0.411422 0.474177 0.389024 -0.221996
C27   C     C_R   0.643978 0.439753 0.665034 0.174495
C28   C     C_R   0.353992 0.559427 0.335976 0.174249
C29   C     C_1   0.162699 0.000904 0.500252 -0.179821
C30   C     C_1   0.837302 0.999096 0.499750 -0.179845
C31   C     C_1   0.060052 0.000458 0.500128 0.002868
C32   C     C_1   0.939949 0.999541 0.499874 0.002865
C33   C     C_R   0.473337 0.186750 0.204282 -0.099187
C34   C     C_R   0.525785 0.813377 0.795654 -0.098988
C35   C     C_R   0.464901 0.215865 0.027313 0.184544
C36   C     C_R   0.530874 0.784354 0.972152 0.184593
C37   C     C_R   0.465347 0.149779 0.129115 -0.190325
C38   C     C_R   0.531853 0.850390 0.870469 -0.190384
C39   C     C_R   0.479368 0.290087 0.177828 -0.254197
C40   C     C_R   0.520263 0.710070 0.822344 -0.253805
C41   C     C_R   0.483644 0.359855 0.077455 0.051907
C42   C     C_R   0.513360 0.640316 0.922389 0.052108
Cu1   Cu    Cu3+1 0.469550 0.918260 0.475690 0.941629
Cu2   Cu    Cu3+1 0.530450 0.081740 0.524310 0.941528
H1    H     H_    0.463905 0.363640 0.839147 0.171286
H2    H     H_    0.529063 0.636585 0.160115 0.171438
H3    H     H_    0.602454 0.579488 0.646112 0.127846
H4    H     H_    0.394863 0.419431 0.355126 0.127768
H5    H     H_    0.522249 0.686485 0.762624 0.150300
H6    H     H_    0.480334 0.313667 0.238127 0.151218
H7    H     H_    0.536167 0.930807 0.849408 0.157052
H8    H     H_    0.460699 0.069356 0.149986 0.156902
H9    H     H_    0.478595 0.536695 0.794036 0.144127
H10   H     H_    0.513882 0.463637 0.205398 0.143461
H11   H     H_    0.545435 0.716139 0.555984 0.121647
H12   H     H_    0.454775 0.283829 0.443819 0.121588
H13   H     H_    0.300385 0.868200 0.314101 0.129347
H14   H     H_    0.699393 0.131778 0.686087 0.129386
H15   H     H_    0.744383 0.266994 0.747787 0.153587
H16   H     H_    0.254343 0.732590 0.252900 0.153531
N1    N     N_R   0.576230 0.204580 0.560790 -0.177234
N2    N     N_R   0.423770 0.795420 0.439210 -0.177198
O1    O     O_R   0.459870 0.022090 0.338120 -0.592750
O2    O     O_R   0.540130 0.977910 0.661880 -0.592884
O3    O     O_R   0.511290 0.160150 0.379180 -0.589130
O4    O     O_R   0.488710 0.839850 0.620820 -0.588797
O5    O     O_R   0.311490 0.930960 0.479480 -0.572544
O6    O     O_R   0.688510 0.069040 0.520520 -0.572501
O7    O     O_R   0.362910 0.069020 0.520540 -0.574931
O8    O     O_R   0.637090 0.930980 0.479460 -0.574939
C43   C     C_3   0.456338 0.171986 0.948961 -0.903445
H17   H     H_    0.451085 0.088410 0.983639 0.232188
H18   H     H_    0.375492 0.190805 0.892518 0.237972
H19   H     H_    0.535788 0.202928 0.909836 0.232231
C44   C     C_3   0.537848 0.828282 0.050184 -0.903499
H20   H     H_    0.543403 0.911876 0.015409 0.232212
H21   H     H_    0.457600 0.797551 0.088264 0.231999
H22   H     H_    0.617956 0.809270 0.107520 0.238093
C45   C     C_3   0.724872 0.432140 0.763250 -0.882401
H23   H     H_    0.728505 0.498162 0.782708 0.237590
H24   H     H_    0.692693 0.363563 0.826760 0.231706
H25   H     H_    0.816329 0.428361 0.756718 0.237325
C46   C     C_3   0.272213 0.566664 0.238229 -0.883011
H26   H     H_    0.268113 0.500451 0.218947 0.237597
H27   H     H_    0.181013 0.570522 0.245332 0.237628
H28   H     H_    0.303890 0.635077 0.174325 0.231433

loop_
_geom_bond_atom_site_label_1
_geom_bond_atom_site_label_2
_ccdc_geom_bond_type
C21   C26   A    
C4    C36   A    
C9    H1    S    
C39   H6    S    
C23   O7    A    
Cu1   Cu2   S    
Cu1   O1    S    
C39   C41   A    
Cu2   O2    S    
C11   C19   A    
C33   C39   A    
C34   C40   A    
C23   C29   S    
C35   C37   A    
C27   C45   S    
C5    C6    A    
C40   H5    S    
C14   N2    A    
C7    C9    A    
C23   O5    A    
C46   H26   S    
C22   C25   A    
C10   H2    S    
C1    O3    A    
C19   C27   A    
C25   H3    S    
C26   H4    S    
C2    C34   S    
C40   C42   A    
C35   C43   S    
C34   C38   A    
C21   C22   A    
C28   C46   S    
Cu2   O3    S    
C16   N2    A    
C11   H15   S    
C1    O1    A    
C2    O2    A    
C1    C33   S    
C8    H10   S    
C45   H24   S    
C37   H8    S    
C38   H7    S    
C20   C28   A    
C33   C37   A    
C44   H20   S    
Cu1   O5    S    
C3    C9    A    
C36   C44   S    
C45   H25   S    
C31   C32   S    
C3    C35   A    
C12   C20   A    
C15   N1    A    
Cu2   O7    S    
C44   H21   S    
C8    C10   A    
C46   H27   S    
C12   C14   A    
Cu1   O8    S    
Cu2   O6    S    
C5    C8    A    
C7    H9    S    
C4    C10   A    
C43   H18   S    
C15   C17   A    
C14   H13   S    
C5    C41   A    
C3    C41   A    
C18   C22   A    
C2    O4    A    
C43   H19   S    
C6    C7    A    
C13   H14   S    
Cu2   N1    S    
C25   C27   A    
C26   C28   A    
C15   H12   S    
C36   C38   A    
C16   H11   S    
C43   H17   S    
C29   C31   T    
C30   C32   T    
C11   C13   A    
C24   O8    A    
C4    C42   A    
Cu1   O4    S    
C17   C19   A    
C18   C20   A    
C44   H22   S    
C24   C30   S    
C24   O6    A    
C45   H23   S    
C12   H16   S    
C46   H28   S    
C13   N1    A    
C16   C18   A    
C6    C42   A    
Cu1   N2    S    
C17   C21   A    
