data_mof_unit_66204.cif
_audit_creation_date              2012-12-10T18:05:24-0500
_audit_creation_method            fapswitch 2.2
_symmetry_space_group_name_H-M    P1
_symmetry_Int_Tables_number       1
_space_group_crystal_system       triclinic
_cell_length_a                    30.778002
_cell_length_b                    30.70265
_cell_length_c                    23.498185
_cell_angle_alpha                 90.058846
_cell_angle_beta                  130.678382
_cell_angle_gamma                 89.991994
_cell_volume                      16839.8153418

loop_
_atom_site_label
_atom_site_type_symbol
_atom_type_description
_atom_site_fract_x
_atom_site_fract_y
_atom_site_fract_z
_atom_type_partial_charge
C1    C     C_R   0.808629 0.809334 0.498889 0.807914
C2    C     C_R   0.191348 0.809334 0.501062 0.807941
C3    C     C_R   0.308789 0.309228 0.499040 0.837347
C4    C     C_R   0.691333 0.309334 0.501028 0.808187
C5    C     C_R   0.442766 0.748460 0.885423 0.092587
C6    C     C_R   0.557466 0.748444 0.114567 0.092521
C7    C     C_R   0.942766 0.248468 0.885423 0.092388
C8    C     C_R   0.057459 0.248448 0.114567 0.092656
C9    C     C_1   0.483265 0.748722 0.966198 0.046623
C10   C     C_1   0.517016 0.748715 0.033793 0.046734
C11   C     C_1   0.983263 0.248731 0.966198 0.046354
C12   C     C_1   0.017012 0.248723 0.033793 0.046221
C13   C     C_R   0.895140 0.852811 0.562432 -0.019636
C14   C     C_R   0.104849 0.852764 0.437449 -0.019638
C15   C     C_R   0.399684 0.342731 0.550523 0.053292
C16   C     C_R   0.605030 0.353015 0.437285 -0.019832
C17   C     C_R   0.840019 0.843135 0.496638 -0.164136
C18   C     C_R   0.159945 0.843144 0.503278 -0.164009
C19   C     C_R   0.340271 0.341797 0.494727 -0.226969
C20   C     C_R   0.659945 0.343149 0.503251 -0.163050
C21   C     C_R   0.813966 0.870628 0.433281 0.393923
C22   C     C_R   0.185992 0.870718 0.566643 0.393812
C23   C     C_R   0.313508 0.371526 0.433982 0.385451
C24   C     C_R   0.685899 0.370510 0.566831 0.393808
C25   C     C_R   0.847024 0.903336 0.435883 -0.170867
C26   C     C_R   0.152943 0.903440 0.564021 -0.170781
C27   C     C_R   0.347019 0.403908 0.436628 -0.190112
C28   C     C_R   0.652869 0.403245 0.564223 -0.170928
C29   C     C_R   0.904891 0.909301 0.500276 -0.207665
C30   C     C_R   0.095084 0.909335 0.499609 -0.207572
C31   C     C_R   0.406147 0.407341 0.498508 -0.138621
C32   C     C_R   0.595123 0.409358 0.499618 -0.206239
C33   C     C_R   0.926957 0.885636 0.564813 0.023357
C34   C     C_R   0.073030 0.885598 0.435060 0.023026
C35   C     C_R   0.431861 0.374934 0.553054 -0.037228
C36   C     C_R   0.573229 0.385854 0.434922 0.023066
C37   C     C_3   0.982062 0.860940 0.617399 0.118359
C38   C     C_3   0.017915 0.860857 0.382417 0.118377
C39   C     C_3   0.476361 0.374627 0.637114 0.154289
C40   C     C_3   0.518018 0.361308 0.381661 0.118529
C41   C     C_3   0.946687 0.824175 0.614089 0.582124
C42   C     C_3   0.053285 0.824088 0.385710 0.582122
C43   C     C_3   0.440182 0.338427 0.634275 0.555895
C44   C     C_3   0.553368 0.324532 0.384927 0.581697
C45   C     C_R   0.677665 0.749789 0.355503 0.811535
C46   C     C_R   0.322357 0.749810 0.644493 0.811364
C47   C     C_R   0.177668 0.249792 0.355503 0.811573
C48   C     C_R   0.822358 0.249809 0.644493 0.811505
C49   C     C_R   0.047832 0.724201 0.153689 -0.152961
C50   C     C_R   0.951911 0.724192 0.846279 -0.152815
C51   C     C_R   0.547712 0.224241 0.153748 -0.152807
C52   C     C_R   0.450386 0.222747 0.846364 -0.150135
C53   C     C_R   0.087140 0.723696 0.232141 -0.160585
C54   C     C_R   0.912682 0.723699 0.767829 -0.160767
C55   C     C_R   0.587073 0.223731 0.232195 -0.160246
C56   C     C_R   0.411271 0.222319 0.767910 -0.164831
C57   C     C_R   0.135841 0.750713 0.272439 -0.031431
C58   C     C_R   0.864061 0.750750 0.727568 -0.031630
C59   C     C_R   0.635791 0.250730 0.272442 -0.030766
C60   C     C_R   0.364092 0.250822 0.727567 -0.032030
C61   C     C_R   0.144102 0.778422 0.232526 -0.192022
C62   C     C_R   0.855799 0.778482 0.767523 -0.192073
C63   C     C_R   0.644012 0.278430 0.232481 -0.192792
C64   C     C_R   0.357169 0.279934 0.767443 -0.184861
C65   C     C_R   0.104748 0.778854 0.154108 -0.154242
C66   C     C_R   0.895077 0.778901 0.845948 -0.154195
C67   C     C_R   0.604601 0.278868 0.154062 -0.155211
C68   C     C_R   0.396349 0.280301 0.845875 -0.153937
C69   C     C_R   0.056641 0.751685 0.114547 0.137724
C70   C     C_R   0.943104 0.751695 0.885466 0.137722
C71   C     C_R   0.556480 0.251713 0.114555 0.138134
C72   C     C_R   0.442931 0.251656 0.885473 0.138187
C73   C     C_1   0.016581 0.751795 0.033824 -0.050670
C74   C     C_1   0.983112 0.751801 0.966190 -0.050737
C75   C     C_1   0.516380 0.251804 0.033832 -0.051150
C76   C     C_1   0.482901 0.251785 0.966198 -0.051881
C77   C     C_R   0.603226 0.650533 0.442539 -0.066390
C78   C     C_R   0.396655 0.650273 0.557925 -0.067045
C79   C     C_R   0.103231 0.150524 0.442533 -0.066123
C80   C     C_R   0.896799 0.150582 0.557581 -0.066357
C81   C     C_R   0.660215 0.657641 0.504273 -0.161243
C82   C     C_R   0.339847 0.657634 0.495880 -0.160873
C83   C     C_R   0.160216 0.157639 0.504274 -0.160985
C84   C     C_R   0.839820 0.157627 0.495816 -0.161261
C85   C     C_R   0.685905 0.630598 0.568300 0.396900
C86   C     C_R   0.314311 0.630823 0.431549 0.396938
C87   C     C_R   0.185904 0.130603 0.568308 0.396979
C88   C     C_R   0.814126 0.130484 0.431799 0.396996
C89   C     C_R   0.691221 0.690764 0.500752 0.814652
C90   C     C_R   0.308829 0.690766 0.499355 0.814568
C91   C     C_R   0.191221 0.190764 0.500752 0.814436
C92   C     C_R   0.808803 0.190764 0.499299 0.814481
C93   C     C_R   0.652425 0.598115 0.566094 -0.167023
C94   C     C_R   0.347768 0.598327 0.433747 -0.166590
C95   C     C_R   0.152423 0.098121 0.566102 -0.166415
C96   C     C_R   0.847599 0.097988 0.434026 -0.166346
C97   C     C_R   0.594382 0.591829 0.501370 -0.171704
C98   C     C_R   0.405642 0.591805 0.498744 -0.170692
C99   C     C_R   0.094383 0.091829 0.501371 -0.171957
C100  C     C_R   0.905642 0.091789 0.498753 -0.171926
C101  C     C_R   0.571984 0.618709 0.440517 -0.022854
C102  C     C_R   0.427879 0.618448 0.559898 -0.021578
C103  C     C_R   0.071990 0.118702 0.440512 -0.022918
C104  C     C_R   0.928039 0.118746 0.559613 -0.022923
C105  C     C_3   0.519371 0.629460 0.361955 0.227391
C106  C     C_3   0.480297 0.628923 0.638793 0.227446
C107  C     C_3   0.019375 0.129454 0.361954 0.227301
C108  C     C_3   0.980675 0.129636 0.638135 0.227308
C109  C     C_3   0.555555 0.666011 0.364797 -0.002883
C110  C     C_3   0.444146 0.665483 0.636014 -0.003367
C111  C     C_3   0.055559 0.166006 0.364795 -0.002969
C112  C     C_3   0.944497 0.166198 0.635296 -0.002933
C113  C     C_R   0.440156 0.559240 0.499927 0.853089
C114  C     C_R   0.559856 0.559249 0.500121 0.853536
C115  C     C_R   0.940160 0.059240 0.499929 0.854003
C116  C     C_R   0.059856 0.059250 0.500121 0.853930
C117  C     C_R   0.940233 0.940651 0.500089 0.817995
C118  C     C_R   0.059750 0.940659 0.499861 0.817998
C119  C     C_R   0.439954 0.440975 0.499981 0.833397
C120  C     C_R   0.559764 0.440669 0.499860 0.820707
C121  C     C_R   0.822346 0.750198 0.644528 0.776625
C122  C     C_R   0.177630 0.750179 0.355476 0.776706
C123  C     C_R   0.322382 0.250242 0.644526 0.793287
C124  C     C_R   0.677621 0.250185 0.355478 0.776878
C125  C     C_R   0.450225 0.777254 0.846268 -0.247319
C126  C     C_R   0.549983 0.777221 0.153783 -0.247266
C127  C     C_R   0.950207 0.277277 0.846267 -0.248046
C128  C     C_R   0.050024 0.277267 0.153785 -0.247970
C129  C     C_R   0.411159 0.777720 0.767933 -0.184641
C130  C     C_R   0.588977 0.777676 0.232116 -0.184291
C131  C     C_R   0.911142 0.277740 0.767932 -0.184449
C132  C     C_R   0.089019 0.277720 0.232119 -0.185685
C133  C     C_R   0.363946 0.749320 0.727516 -0.053872
C134  C     C_R   0.636143 0.749280 0.272478 -0.054256
C135  C     C_R   0.863948 0.249321 0.727516 -0.053946
C136  C     C_R   0.136141 0.249281 0.272478 -0.054524
C137  C     C_R   0.356768 0.720276 0.767106 -0.285086
C138  C     C_R   0.643342 0.720246 0.232830 -0.285294
C139  C     C_R   0.856790 0.220260 0.767108 -0.284869
C140  C     C_R   0.143290 0.220204 0.232827 -0.287465
C141  C     C_R   0.396041 0.719635 0.846147 0.436944
C142  C     C_R   0.604139 0.719619 0.153782 0.437552
C143  C     C_R   0.896062 0.219624 0.846149 0.437353
C144  C     C_R   0.104084 0.219576 0.153780 0.437334
Cu1   Cu    Cu3+1 0.780910 0.719080 0.500000 1.005196
Cu2   Cu    Cu3+1 0.219090 0.719080 0.500000 1.005046
Cu3   Cu    Cu3+1 0.280910 0.219080 0.500000 0.998398
Cu4   Cu    Cu3+1 0.719090 0.219080 0.500000 1.006337
Cu5   Cu    Cu3+1 0.719070 0.780890 0.500010 0.963093
Cu6   Cu    Cu3+1 0.280930 0.780890 0.499990 0.963156
Cu7   Cu    Cu3+1 0.219070 0.280890 0.500010 0.963163
Cu8   Cu    Cu3+1 0.780930 0.280890 0.499990 0.962194
Cu9   Cu    Cu3+1 0.462710 0.500000 0.425470 0.981420
Cu10  Cu    Cu3+1 0.537290 0.500000 0.574530 0.981156
Cu11  Cu    Cu3+1 0.962710 0.000000 0.425470 0.982736
Cu12  Cu    Cu3+1 0.037290 0.000000 0.574530 0.982586
H1    H     H_    0.486304 0.799475 0.876405 0.161438
H2    H     H_    0.513939 0.799438 0.123694 0.161388
H3    H     H_    0.986272 0.299511 0.876402 0.161082
H4    H     H_    0.014017 0.299519 0.123699 0.161051
H5    H     H_    0.010666 0.703077 0.123576 0.141568
H6    H     H_    0.989016 0.703042 0.876358 0.141666
H7    H     H_    0.510540 0.203125 0.123678 0.141582
H8    H     H_    0.486355 0.200462 0.876505 0.142329
H9    H     H_    0.079394 0.702130 0.261139 0.164146
H10   H     H_    0.920426 0.702111 0.738800 0.164219
H11   H     H_    0.579355 0.202172 0.261230 0.164118
H12   H     H_    0.417905 0.199582 0.738945 0.166621
H13   H     H_    0.181017 0.799726 0.261804 0.161177
H14   H     H_    0.818943 0.799810 0.738271 0.161101
H15   H     H_    0.680937 0.299721 0.261723 0.160788
H16   H     H_    0.321463 0.302412 0.738124 0.157614
H17   H     H_    0.111932 0.800292 0.124341 0.139741
H18   H     H_    0.887900 0.800360 0.875751 0.139727
H19   H     H_    0.611754 0.300296 0.124252 0.138756
H20   H     H_    0.390233 0.302858 0.875617 0.138198
H21   H     H_    0.672078 0.577839 0.615131 0.187155
H22   H     H_    0.328227 0.578236 0.384466 0.187635
H23   H     H_    0.172072 0.077850 0.615144 0.187444
H24   H     H_    0.827946 0.077643 0.384985 0.187497
H25   H     H_    0.505822 0.602689 0.321463 0.147503
H26   H     H_    0.493427 0.602009 0.678796 0.147639
H27   H     H_    0.005826 0.102683 0.321464 0.147620
H28   H     H_    0.994259 0.102941 0.678665 0.147592
H29   H     H_    0.417945 0.800370 0.739085 0.171019
H30   H     H_    0.582172 0.800317 0.261007 0.170961
H31   H     H_    0.917914 0.300402 0.739081 0.170749
H32   H     H_    0.082254 0.300397 0.261012 0.170896
H33   H     H_    0.542422 0.700039 0.363466 0.165329
H34   H     H_    0.457598 0.699504 0.638014 0.165191
H35   H     H_    0.042434 0.200035 0.363477 0.165142
H36   H     H_    0.957608 0.200222 0.636572 0.165207
H37   H     H_    0.320700 0.698071 0.736723 0.156826
H38   H     H_    0.679377 0.698048 0.263172 0.156770
H39   H     H_    0.820736 0.198041 0.736726 0.157240
H40   H     H_    0.179287 0.197969 0.263168 0.156357
H41   H     H_    0.827785 0.923055 0.386370 0.188498
H42   H     H_    0.172177 0.923218 0.613546 0.188532
H43   H     H_    0.326283 0.427204 0.391111 0.185529
H44   H     H_    0.672017 0.422850 0.613897 0.187844
H45   H     H_    0.002237 0.852496 0.593037 0.099137
H46   H     H_    0.997715 0.852443 0.406741 0.099151
H47   H     H_    0.519073 0.363480 0.658010 0.091665
H48   H     H_    0.497488 0.352795 0.405509 0.099945
O1    O     O_R   0.821190 0.768980 0.500000 -0.527868
O2    O     O_R   0.178810 0.768980 0.500000 -0.527979
O3    O     O_R   0.321190 0.268980 0.500000 -0.556588
O4    O     O_R   0.678810 0.268980 0.500000 -0.527690
O5    O     O_R   0.486270 0.545120 0.562900 -0.568060
O6    O     O_R   0.513730 0.545120 0.437100 -0.568077
O7    O     O_R   0.986270 0.045120 0.562900 -0.568185
O8    O     O_R   0.013730 0.045120 0.437100 -0.568116
O9    O     O_R   0.923420 0.954920 0.437060 -0.597011
O10   O     O_R   0.076580 0.954920 0.562940 -0.597030
O11   O     O_R   0.423420 0.454920 0.437060 -0.604658
O12   O     O_R   0.576580 0.454920 0.562940 -0.596601
O13   O     O_R   0.986330 0.954940 0.562940 -0.589656
O14   O     O_R   0.013670 0.954940 0.437060 -0.589704
O15   O     O_R   0.486330 0.454940 0.562940 -0.577265
O16   O     O_R   0.513670 0.454940 0.437060 -0.590333
O17   O     O_R   0.768960 0.821170 0.500020 -0.593518
O18   O     O_R   0.231040 0.821170 0.499980 -0.593467
O19   O     O_R   0.268960 0.321170 0.500020 -0.584070
O20   O     O_R   0.731040 0.321170 0.499980 -0.593948
O21   O     O_R   0.721730 0.723890 0.391250 -0.586237
O22   O     O_R   0.278270 0.723890 0.608750 -0.586170
O23   O     O_R   0.221730 0.223890 0.391250 -0.587195
O24   O     O_R   0.778270 0.223890 0.608750 -0.585929
O25   O     O_R   0.669500 0.776090 0.391270 -0.592271
O26   O     O_R   0.330500 0.776090 0.608730 -0.592397
O27   O     O_R   0.169500 0.276090 0.391270 -0.593655
O28   O     O_R   0.830500 0.276090 0.608730 -0.592378
O29   O     O_R   0.731010 0.678810 0.499990 -0.579435
O30   O     O_R   0.268990 0.678810 0.500010 -0.579324
O31   O     O_R   0.231010 0.178810 0.499990 -0.579163
O32   O     O_R   0.768990 0.178810 0.500010 -0.579246
O33   O     O_R   0.678790 0.731000 0.500010 -0.582362
O34   O     O_R   0.321210 0.731000 0.499990 -0.582443
O35   O     O_R   0.178790 0.231000 0.500010 -0.583229
O36   O     O_R   0.821210 0.231000 0.499990 -0.582521
O37   O     O_R   0.830470 0.723890 0.608750 -0.578142
O38   O     O_R   0.169530 0.723890 0.391250 -0.578089
O39   O     O_R   0.330470 0.223890 0.608750 -0.577947
O40   O     O_R   0.669530 0.223890 0.391250 -0.578115
O41   O     O_R   0.778250 0.776080 0.608760 -0.592821
O42   O     O_R   0.221750 0.776080 0.391240 -0.592767
O43   O     O_R   0.278250 0.276080 0.608760 -0.591282
O44   O     O_R   0.721750 0.276080 0.391240 -0.593081
O45   O     O_R   0.423360 0.545090 0.437020 -0.585924
O46   O     O_R   0.576640 0.545090 0.562980 -0.585824
O47   O     O_R   0.923360 0.045090 0.437020 -0.584664
O48   O     O_R   0.076640 0.045090 0.562980 -0.584720
N1    N     N_2   0.961037 0.813396 0.685294 -0.401955
H49   H     H_    0.002910 0.803649 0.726819 0.264991
C145  C     C_3   0.938187 0.839506 0.711964 -0.627278
H50   H     H_    0.953125 0.826132 0.766028 0.224487
H51   H     H_    0.890642 0.838302 0.671208 0.212709
H52   H     H_    0.952932 0.873765 0.720915 0.260690
N2    N     N_2   0.038972 0.813246 0.314515 -0.402031
H53   H     H_    0.997105 0.803441 0.272962 0.264954
C146  C     C_3   0.061824 0.839360 0.287897 -0.627322
H54   H     H_    0.046898 0.825947 0.233818 0.224580
H55   H     H_    0.109370 0.838217 0.328664 0.212714
H56   H     H_    0.047068 0.873603 0.278993 0.260759
N3    N     N_2   0.415134 0.347500 0.668874 -0.425963
H57   H     H_    0.440306 0.338385 0.724393 0.249860
C147  C     C_3   0.381387 0.386353 0.650896 -0.577411
H58   H     H_    0.346585 0.378212 0.651549 0.210904
H59   H     H_    0.361687 0.399643 0.594900 0.238761
H60   H     H_    0.408626 0.411892 0.693879 0.249456
N4    N     N_2   0.539395 0.313964 0.313857 -0.402262
H61   H     H_    0.497517 0.304314 0.271949 0.264693
C148  C     C_3   0.562704 0.340182 0.287956 -0.628224
H62   H     H_    0.547971 0.326984 0.233856 0.224565
H63   H     H_    0.610240 0.338874 0.329015 0.213032
H64   H     H_    0.548127 0.374461 0.279341 0.260661
O49   O     O_3   0.742193 0.634842 0.633738 -0.717135
H65   H     H_    0.759800 0.660551 0.630431 0.317576
O50   O     O_3   0.258200 0.635303 0.365838 -0.716850
H66   H     H_    0.240570 0.660932 0.369318 0.317399
O51   O     O_3   0.242188 0.134855 0.633752 -0.717116
H67   H     H_    0.259795 0.160559 0.630434 0.316847
O52   O     O_3   0.757846 0.134650 0.366346 -0.716799
H68   H     H_    0.740251 0.160391 0.369623 0.317586
O53   O     O_3   0.474242 0.645211 0.357435 -0.701236
H69   H     H_    0.489721 0.667588 0.397089 0.327304
O54   O     O_3   0.525806 0.644657 0.644130 -0.701732
H70   H     H_    0.510697 0.667183 0.604880 0.327358
O55   O     O_3   0.974249 0.145206 0.357443 -0.701380
H71   H     H_    0.989733 0.167582 0.397097 0.327178
O56   O     O_3   0.025766 0.145377 0.642567 -0.701469
H72   H     H_    0.010251 0.167679 0.602880 0.327207
N5    N     N_2   0.567676 0.658318 0.315368 -0.431356
H73   H     H_    0.581876 0.627356 0.317735 0.259283
C149  C     C_3   0.524743 0.674502 0.239830 -0.638120
H74   H     H_    0.539721 0.669998 0.208147 0.236214
H75   H     H_    0.517431 0.709836 0.240777 0.237334
H76   H     H_    0.483905 0.656439 0.210795 0.231666
N6    N     N_2   0.431526 0.657618 0.684859 -0.431252
H77   H     H_    0.416947 0.626687 0.681778 0.259681
C150  C     C_3   0.474367 0.673429 0.760757 -0.638299
H78   H     H_    0.459046 0.668817 0.792001 0.236158
H79   H     H_    0.482101 0.708753 0.760556 0.237690
H80   H     H_    0.515054 0.655185 0.789760 0.231389
N7    N     N_2   0.067677 0.158314 0.315362 -0.431092
H81   H     H_    0.081847 0.127345 0.317698 0.259406
C151  C     C_3   0.024759 0.174526 0.239842 -0.637576
H82   H     H_    0.039722 0.170007 0.208144 0.236477
H83   H     H_    0.017495 0.209866 0.240828 0.237191
H84   H     H_    0.983899 0.156494 0.210800 0.231609
N8    N     N_2   0.932435 0.158610 0.684793 -0.431318
H85   H     H_    0.918208 0.127661 0.682430 0.259486
C152  C     C_3   0.975451 0.174865 0.760337 -0.637935
H86   H     H_    0.960537 0.170428 0.792097 0.236412
H87   H     H_    0.982806 0.210188 0.759409 0.237239
H88   H     H_    0.016253 0.156800 0.789281 0.231622
O57   O     O_3   0.389619 0.691348 0.885903 -0.725723
H89   H     H_    0.354826 0.673404 0.850013 0.322781
O58   O     O_3   0.610583 0.691346 0.113964 -0.725775
H90   H     H_    0.645335 0.673401 0.149816 0.322745
O59   O     O_3   0.889655 0.191323 0.885907 -0.725238
H91   H     H_    0.854873 0.173368 0.850018 0.323267
O60   O     O_3   0.110479 0.191261 0.113959 -0.725735
H92   H     H_    0.145201 0.173287 0.149810 0.322643
O61   O     O_3   0.758159 0.865628 0.367046 -0.716751
H93   H     H_    0.740820 0.839500 0.369795 0.317729
O62   O     O_3   0.241783 0.865784 0.632904 -0.716763
H94   H     H_    0.259113 0.839631 0.630179 0.317746
O63   O     O_3   0.255642 0.370814 0.372230 -0.713356
H95   H     H_    0.238158 0.343955 0.372720 0.320301
O64   O     O_3   0.741562 0.365355 0.633256 -0.717485
H96   H     H_    0.758903 0.339267 0.630388 0.317574
O65   O     O_3   0.019458 0.881127 0.687903 -0.722869
H97   H     H_    0.042059 0.902392 0.684734 0.347672
O66   O     O_3   0.980547 0.880973 0.311938 -0.722893
H98   H     H_    0.957982 0.902273 0.315138 0.347647
O67   O     O_3   0.477387 0.413805 0.668727 -0.720637
H99   H     H_    0.515145 0.427476 0.693461 0.337169
O68   O     O_3   0.481025 0.381693 0.311386 -0.723736
H100  H     H_    0.458390 0.402952 0.314519 0.347480
O69   O     O_3   0.944055 0.786873 0.577360 -0.729312
H101  H     H_    0.983069 0.774043 0.610757 0.313377
O70   O     O_3   0.055864 0.786820 0.422355 -0.729373
H102  H     H_    0.016839 0.773967 0.388909 0.313345
O71   O     O_3   0.467301 0.297656 0.656151 -0.740814
H103  H     H_    0.501206 0.299999 0.710407 0.308233
O72   O     O_3   0.555518 0.287121 0.420970 -0.728324
H104  H     H_    0.516430 0.274384 0.387116 0.312669

loop_
_geom_bond_atom_site_label_1
_geom_bond_atom_site_label_2
_ccdc_geom_bond_type
C99   C103  A    
Cu2   O30   S    
C111  H35   S    
C129  H29   S    
C47   C136  S    
C48   C135  S    
C77   C101  A    
O56   H72   S    
C136  C140  A    
C132  H32   S    
C145  H51   S    
O67   H99   S    
C68   H20   S    
O65   H97   S    
C133  C137  A    
C44   O72   S    
C45   O25   A    
C55   C59   A    
C108  O56   S    
C95   C99   A    
N4    H61   S    
C29   C33   A    
C100  C104  A    
C148  H64   S    
C1    O17   A    
C94   H22   S    
Cu9   O16   S    
Cu2   Cu6   S    
C70   C74   S    
Cu5   O33   S    
C24   O64   S    
C117  O13   A    
N1    H49   S    
C124  O40   A    
C16   C44   S    
C122  O42   A    
C49   C69   A    
C130  C134  A    
C100  C115  S    
C51   C71   A    
C139  H39   S    
C4    O4    A    
C137  H37   S    
C25   C29   A    
C62   H14   S    
C90   O34   A    
C27   C31   A    
C106  O54   S    
C28   C32   A    
C99   C116  S    
C62   C66   A    
C98   C102  A    
Cu1   O21   S    
C110  H34   S    
C17   C21   A    
C135  C139  A    
C75   C76   T    
C13   C33   A    
C52   C72   A    
C78   C82   A    
Cu3   O39   S    
C16   C20   A    
C80   C112  S    
C45   O21   A    
C96   H24   S    
C117  O9    A    
C129  C133  A    
C85   O49   S    
C61   H13   S    
C38   O66   S    
Cu9   O11   S    
N1    C145  S    
C150  H80   S    
C59   C124  S    
C93   H21   S    
Cu1   O29   S    
Cu9   O45   S    
C84   C88   A    
N2    C146  S    
C57   C61   A    
C83   C91   S    
C59   C63   A    
Cu6   O26   S    
C60   C64   A    
C3    O3    A    
C50   C70   A    
C66   C70   A    
C109  N5    S    
C49   C53   A    
C51   C55   A    
C127  C131  A    
O66   H98   S    
C4    C20   S    
C61   C65   A    
O59   H91   S    
C38   H46   S    
Cu11  Cu12  S    
C126  C130  A    
C66   H18   S    
C103  C107  S    
Cu4   O32   S    
Cu10  O15   S    
C37   O65   S    
C131  H31   S    
C50   H6    S    
Cu3   Cu7   S    
Cu4   O24   S    
Cu1   O1    S    
C149  H75   S    
C121  O37   A    
C64   C68   A    
C146  H54   S    
C48   O24   A    
C147  H60   S    
C152  H87   S    
C115  O47   A    
C41   N1    S    
C113  O45   A    
Cu11  O14   S    
C89   O29   A    
C139  C143  A    
C8    C128  A    
Cu7   O27   S    
C40   H48   S    
N7    C151  S    
C87   C95   A    
C2    O2    A    
C24   C28   A    
C9    C10   T    
C49   H5    S    
C8    C12   S    
O60   H92   S    
O49   H65   S    
Cu12  O7    S    
C79   C103  A    
C30   C34   A    
C27   H43   S    
Cu10  O12   S    
Cu3   O23   S    
C30   C118  S    
C105  O53   S    
C124  O44   A    
C60   C123  S    
C77   C109  S    
C5    C9    S    
N5    H73   S    
C125  C129  A    
N6    C150  S    
C132  C136  A    
Cu2   O38   S    
O55   H71   S    
C3    C19   S    
N3    C147  S    
C43   O71   S    
C26   C30   A    
C112  N8    S    
N8    C152  S    
C93   C97   A    
Cu6   O42   S    
C105  C109  S    
C92   O36   A    
C3    O19   A    
C18   C22   A    
C107  C111  S    
Cu4   Cu8   S    
C53   C57   A    
C14   C34   A    
C146  H56   S    
C147  H58   S    
C1    C17   S    
C13   C17   A    
C151  H84   S    
Cu5   O25   S    
Cu11  O47   S    
C15   C43   S    
C149  H74   S    
C144  O60   S    
C16   C36   A    
C23   O63   S    
C96   C100  A    
C148  H63   S    
Cu7   O19   S    
C37   C41   S    
C26   H42   S    
Cu10  O46   S    
C40   C44   S    
C47   O23   A    
C39   O67   S    
C5    C125  A    
O52   H68   S    
Cu4   O40   S    
C84   C92   S    
C7    C127  A    
C97   C114  S    
C81   C85   A    
N2    H53   S    
Cu8   O28   S    
C58   C62   A    
C150  H79   S    
C83   C87   A    
C88   C96   A    
C39   H47   S    
C78   C102  A    
C46   O26   A    
C73   C74   T    
C55   H11   S    
C80   C84   A    
C13   C41   S    
C15   C19   A    
C50   C54   A    
C80   C104  A    
Cu11  O8    S    
C43   N3    S    
Cu7   O43   S    
C125  H1    S    
C94   C98   A    
C22   O62   S    
C2    O18   A    
C111  N7    S    
C21   C25   A    
C57   C122  S    
C67   H19   S    
C118  O14   A    
O50   H66   S    
C69   C73   S    
Cu12  O13   S    
C6    C142  A    
C41   O69   S    
C72   C76   S    
C81   C89   S    
C121  O41   A    
C145  H52   S    
Cu6   O18   S    
C54   H10   S    
C123  O39   A    
C138  H38   S    
C151  H82   S    
C143  O59   S    
C89   O33   A    
C6    C126  A    
C138  C142  A    
O72   H104  S    
C108  H28   S    
C98   C113  S    
Cu2   O22   S    
C82   C86   A    
C33   C37   S    
C56   C60   A    
C64   H16   S    
C35   C39   S    
O64   H96   S    
O53   H69   S    
C112  H36   S    
C63   H15   S    
O68   H100  S    
C77   C81   A    
C120  O16   A    
C110  N6    S    
C118  O10   A    
C31   C119  S    
C52   H8    S    
C44   N4    S    
C53   H9    S    
C51   H7    S    
Cu8   O20   S    
C31   C35   A    
C32   C36   A    
C104  C108  S    
C137  C141  A    
C58   C121  S    
Cu5   O41   S    
C150  H78   S    
C140  C144  A    
C6    C10   S    
Cu12  O48   S    
C115  O7    A    
Cu7   O35   S    
C82   C90   S    
O62   H94   S    
C116  O8    A    
C46   C133  S    
C79   C83   A    
C147  H59   S    
C40   O68   S    
C152  H86   S    
Cu9   O6    S    
C65   C69   A    
C92   O32   A    
C67   C71   A    
O61   H93   S    
Cu8   O44   S    
Cu4   O4    S    
C113  O5    A    
O58   H90   S    
C108  C112  S    
N7    H81   S    
C22   C26   A    
C37   H45   S    
Cu1   Cu5   S    
Cu3   O31   S    
C71   C75   S    
O70   H102  S    
C119  O11   A    
C91   O31   A    
C2    C18   S    
O63   H95   S    
C14   C18   A    
C19   C23   A    
Cu2   O2    S    
C122  O38   A    
O69   H101  S    
C7    C11   S    
C45   C134  S    
C28   H44   S    
C142  O58   S    
C38   C42   S    
Cu10  O5    S    
C131  C135  A    
C47   O27   A    
C114  O46   A    
C141  O57   S    
C90   O30   A    
Cu11  O9    S    
C106  H26   S    
C86   C94   A    
C20   C24   A    
C109  H33   S    
Cu6   O34   S    
C23   C27   A    
C1    O1    A    
N3    H57   S    
C68   C72   A    
C14   C42   S    
C119  O15   A    
Cu5   O17   S    
C32   C120  S    
C128  C132  A    
C15   C35   A    
C149  H76   S    
C126  H2    S    
C101  C105  S    
C63   C67   A    
C36   C40   S    
C146  H55   S    
N6    H77   S    
C152  H88   S    
C39   C43   S    
C42   O70   S    
C116  O48   A    
N8    H85   S    
O51   H67   S    
C4    O20   A    
C29   C117  S    
C107  H27   S    
C151  H83   S    
C48   O28   A    
C87   O51   S    
C42   N2    S    
C5    C141  A    
C85   C93   A    
Cu8   O36   S    
C56   H12   S    
C148  H62   S    
C46   O22   A    
Cu1   O37   S    
C78   C110  S    
C86   O50   S    
Cu3   O3    S    
C140  H40   S    
C95   H23   S    
O54   H70   S    
Cu12  O10   S    
C145  H50   S    
C88   O52   S    
C127  H3    S    
C128  H4    S    
C54   C58   A    
N4    C148  S    
C65   H17   S    
C34   C38   S    
C7    C143  A    
C134  C138  A    
C11   C12   T    
C130  H30   S    
C120  O12   A    
C79   C111  S    
C105  H25   S    
C114  O6    A    
O71   H103  S    
N5    C149  S    
C123  O43   A    
C102  C106  S    
O57   H89   S    
C25   H41   S    
C8    C144  A    
C52   C56   A    
C106  C110  S    
C91   O35   A    
Cu9   Cu10  S    
C97   C101  A    
C107  O55   S    
C21   O61   S    
