data_mof_unit_19610.cif
_audit_creation_date              2013-03-05T15:51:56-0500
_audit_creation_method            fapswitch 2.2
_symmetry_space_group_name_H-M    P1
_symmetry_Int_Tables_number       1
_space_group_crystal_system       triclinic
_cell_length_a                    9.575212
_cell_length_b                    10.823146
_cell_length_c                    17.368655
_cell_angle_alpha                 92.706939
_cell_angle_beta                  85.960389
_cell_angle_gamma                 90.558051
_cell_volume                      1793.46921833

loop_
_atom_site_label
_atom_site_type_symbol
_atom_site_description
_atom_site_fract_x
_atom_site_fract_y
_atom_site_fract_z
_atom_type_partial_charge
O1    O     O_R   0.381190 0.680360 0.500010 -0.588142
O2    O     O_R   0.618760 0.680340 0.500000 -0.554302
C1    C     C_R   0.500928 0.737376 0.494863 0.803252
O3    O     O_R   0.367440 0.500030 0.613600 -0.570059
O4    O     O_R   0.605010 0.500010 0.613590 -0.595059
C2    C     C_R   0.481732 0.501572 0.649822 0.804731
Cu1   Cu    Cu3+1 0.359340 0.500010 0.500010 0.961918
Cu2   Cu    Cu3+1 0.640660 0.499990 0.499990 0.970403
O5    O     O_R   0.381240 0.319660 0.500000 -0.581158
O6    O     O_R   0.618810 0.319640 0.499990 -0.608004
O7    O     O_R   0.394990 0.499990 0.386410 -0.606796
O8    O     O_R   0.632560 0.499970 0.386400 -0.592863
C3    C     C_R   0.497517 0.263027 0.506969 0.809690
C4    C     C_R   0.518233 0.497562 0.350184 0.772615
C5    C     C_R   0.472444 0.505893 0.734245 -0.029841
C6    C     C_R   0.594930 0.520247 0.773632 -0.197678
C7    C     C_R   0.587814 0.524280 0.853696 -0.139791
C8    C     C_R   0.458069 0.512394 0.895639 0.186548
C9    C     C_R   0.335223 0.501401 0.856579 -0.162277
C10   C     C_R   0.342220 0.497661 0.776188 -0.168866
C11   C     C_R   0.411452 0.462474 0.146825 -0.136727
C12   C     C_R   0.404615 0.471884 0.226834 -0.193483
C13   C     C_R   0.657481 0.493790 0.223519 -0.185729
C14   C     C_R   0.664158 0.484952 0.143120 -0.163529
C15   C     C_R   0.541052 0.471874 0.104413 0.188241
C16   C     C_2   0.447880 0.512844 0.980196 -0.219431
C17   C     C_2   0.550517 0.468973 0.019783 -0.221950
C18   C     C_R   0.527288 0.488842 0.265793 -0.026697
H1    H     H_    0.696520 0.529209 0.742716 0.154657
H2    H     H_    0.303036 0.465119 0.258024 0.164388
H3    H     H_    0.753731 0.505291 0.252396 0.163486
H4    H     H_    0.646211 0.433432 0.989869 0.147365
H5    H     H_    0.234190 0.493706 0.888303 0.127924
H6    H     H_    0.315238 0.446833 0.118590 0.127224
H7    H     H_    0.246136 0.487634 0.747038 0.169392
H8    H     H_    0.352247 0.548533 0.010095 0.148630
H9    H     H_    0.683818 0.538316 0.882362 0.126511
H10   H     H_    0.765087 0.490781 0.111075 0.127233
H11   H     H_    0.717122 0.891548 0.520098 0.203099
C19   C     C_R   0.264937 0.882808 0.440176 -0.229517
H12   H     H_    0.277546 0.795943 0.407056 0.203865
C20   C     C_R   0.136371 0.943183 0.441540 0.459565
C21   C     C_R   0.115348 0.051095 0.487958 -0.265715
H13   H     H_    0.011348 0.089518 0.498258 0.190765
C22   C     C_R   0.227807 0.107977 0.523116 0.132447
C23   C     C_R   0.365071 0.060346 0.506980 0.041651
C24   C     C_R   0.377082 0.936693 0.478925 -0.014218
C25   C     C_R   0.500927 0.872106 0.491103 -0.081255
C26   C     C_R   0.620480 0.938222 0.511202 -0.123106
H14   H     H_    0.714431 0.115324 0.527938 0.176596
C27   C     C_R   0.617528 0.065955 0.518878 -0.180247
C28   C     C_R   0.491088 0.128918 0.515546 -0.089539
H15   H     H_    0.860639 0.635863 0.590078 0.122719
C29   C     C_R   0.867473 0.337922 0.395500 -0.165251
H16   H     H_    0.757896 0.328680 0.391318 0.201124
C30   C     C_R   0.945692 0.259868 0.343860 -0.149788
H17   H     H_    0.893913 0.198493 0.303679 0.187204
C31   C     C_R   0.089487 0.259175 0.344314 -0.202944
H18   H     H_    0.150222 0.196820 0.304772 0.172759
C32   C     C_R   0.155943 0.337162 0.396095 -0.161824
H19   H     H_    0.266289 0.327230 0.392654 0.199703
C33   C     C_R   0.080615 0.420327 0.448642 0.233631
C34   C     C_R   0.930915 0.420504 0.448539 0.215084
N1    N     N_R   0.852190 0.498790 0.499250 -0.193317
C35   C     C_R   0.920525 0.574403 0.549686 0.021952
H20   H     H_    0.119643 0.636559 0.589591 0.130403
C36   C     C_R   0.068634 0.574868 0.549372 -0.007552
N2    N     N_R   0.148060 0.498710 0.499220 -0.194114
S1    S     S_3+6 0.999621 0.877694 0.390233 -0.035334
O9    O     O_2   0.933418 0.774241 0.434760 -0.324008
O10   O     O_2   0.890953 0.973399 0.379370 -0.321369
O11   O     O_3   0.065130 0.820780 0.303519 -0.542281
H21   H     H_    0.985740 0.776516 0.280728 0.372776
I1    I     I_    0.172649 0.228494 0.620915 -0.395796

loop_
_geom_bond_atom_site_label_1
_geom_bond_atom_site_label_2
_geom_bond_distance
_ccdc_geom_bond_type
C19   C24   1.413760 A    
C9    C10   1.391858 A    
C8    C16   1.464794 S    
Cu1   Cu2   2.693675 S    
C22   C23   1.421065 A    
Cu1   O7    1.978545 S    
C16   C17   1.341332 D    
O4    C2    1.297848 A    
O7    C4    1.297534 A    
C29   C34   1.416700 A    
C31   C32   1.387321 A    
C5    C6    1.402540 A    
C23   C28   1.423499 A    
C1    C25   1.462740 S    
C30   H17   1.082889 S    
C32   C33   1.416227 A    
C8    C9    1.400040 A    
S1    O10   1.502775 D    
O5    C3    1.291993 A    
Cu1   N2    2.023971 S    
C29   H16   1.060270 S    
C10   H7    1.083076 S    
C6    C7    1.386097 A    
C35   C36   1.417754 A    
C14   H10   1.083534 S    
C13   C14   1.392179 A    
H15   C35   1.081736 S    
C19   C20   1.397542 A    
H20   C36   1.081668 S    
C2    C5    1.461295 S    
C12   C18   1.402631 A    
C11   C12   1.385537 A    
O3    Cu1   1.979870 S    
H14   C27   1.083592 S    
C5    C10   1.403372 A    
C29   C30   1.387502 A    
C36   N2    1.366611 A    
C14   C15   1.400327 A    
O3    C2    1.299763 A    
C9    H5    1.083554 S    
C11   H6    1.081978 S    
C26   C27   1.382979 A    
C31   H18   1.083024 S    
C20   S1    1.760042 S    
C27   C28   1.401132 A    
C22   I1    2.131525 S    
O1    C1    1.296260 A    
C13   H3    1.083251 S    
S1    O11   1.681669 S    
C21   H13   1.082838 S    
C33   C34   1.433554 A    
C3    C28   1.466349 S    
C24   C25   1.416002 A    
Cu2   O8    1.979869 S    
C7    C8    1.403168 A    
C7    H9    1.081964 S    
C13   C18   1.403392 A    
C21   C22   1.398466 A    
Cu2   N1    2.024744 S    
C16   H8    1.085507 S    
C19   H12   1.081989 S    
H11   C26   1.082583 S    
O8    C4    1.299859 A    
C20   C21   1.395480 A    
Cu1   O5    1.965206 S    
C11   C15   1.403128 A    
C23   C24   1.405436 A    
C25   C26   1.400399 A    
C12   H2    1.083038 S    
C17   H4    1.085559 S    
O1    Cu1   1.961108 S    
O2    Cu2   1.965206 S    
O11   H21   0.990699 S    
O6    C3    1.308556 A    
O4    Cu2   1.978545 S    
C15   C17   1.465183 S    
C33   N2    1.381063 A    
N1    C35   1.366703 A    
O2    C1    1.301906 A    
C6    H1    1.083265 S    
C30   C31   1.377544 A    
S1    O9    1.500845 D    
C34   N1    1.382151 A    
Cu2   O6    1.961108 S    
C32   H19   1.060291 S    
C4    C18   1.460838 S    
