data_mof_unit_15856.cif
_audit_creation_date              2012-12-10T20:01:43-0500
_audit_creation_method            fapswitch 2.2
_symmetry_space_group_name_H-M    P1
_symmetry_Int_Tables_number       1
_space_group_crystal_system       triclinic
_cell_length_a                    14.211129
_cell_length_b                    14.946114
_cell_length_c                    16.856405
_cell_angle_alpha                 89.263784
_cell_angle_beta                  96.423783
_cell_angle_gamma                 90.618411
_cell_volume                      3557.38966592

loop_
_atom_site_label
_atom_site_type_symbol
_atom_type_description
_atom_site_fract_x
_atom_site_fract_y
_atom_site_fract_z
_atom_type_partial_charge
C1    C     C_R   0.499163 0.327935 0.499304 0.932699
C2    C     C_R   0.585347 0.908284 0.540986 -0.273738
C3    C     C_R   0.497566 0.049094 0.529241 0.002655
C4    C     C_R   0.498669 0.952302 0.535848 -0.020843
C5    C     C_R   0.112623 0.457193 0.561144 0.252221
C6    C     C_R   0.892342 0.578936 0.475889 0.249532
C7    C     C_R   0.211309 0.451544 0.556390 0.395858
C8    C     C_R   0.791764 0.573577 0.471022 0.390048
C9    C     C_R   0.198479 0.548642 0.443274 0.472280
C10   C     C_R   0.799861 0.427034 0.527229 0.494730
C11   C     C_R   0.098667 0.546229 0.440384 -0.396080
C12   C     C_R   0.500912 0.672379 0.504500 0.902983
C13   C     C_R   0.898475 0.426017 0.521515 -0.406600
C14   C     C_R   0.053860 0.502312 0.500456 0.001699
C15   C     C_R   0.947019 0.502791 0.499097 -0.005178
C16   C     C_R   0.514069 0.498011 0.653678 0.897016
C17   C     C_R   0.486098 0.498603 0.346231 0.918090
C18   C     C_R   0.525868 0.483904 0.739955 -0.213037
C19   C     C_R   0.476382 0.484057 0.259950 -0.210491
C20   C     C_R   0.451329 0.442957 0.774602 -0.304835
C21   C     C_R   0.557474 0.458035 0.226386 -0.300648
C22   C     C_R   0.459231 0.425941 0.855462 -0.251759
C23   C     C_R   0.558343 0.193981 0.568909 -0.383086
C24   C     C_R   0.554106 0.443847 0.145682 -0.235295
C25   C     C_R   0.541908 0.450938 0.903856 0.144502
C26   C     C_R   0.469147 0.456337 0.095716 0.146454
C27   C     C_R   0.620689 0.485286 0.869553 0.377601
C28   C     C_R   0.385242 0.475798 0.128763 0.368049
C29   C     C_R   0.611821 0.504525 0.787125 0.371621
C30   C     C_R   0.388809 0.490514 0.211245 0.372936
C31   C     C_R   0.555346 0.102326 0.582994 0.468776
C32   C     C_R   0.413128 0.903339 0.529917 0.469721
C33   C     C_3   0.255203 0.310752 0.597984 0.149719
C34   C     C_R   0.415338 0.812075 0.518250 -0.367526
C35   C     C_3   0.325970 0.258059 0.654279 -0.886388
C36   C     C_3   0.735953 0.646604 0.356234 0.152724
C37   C     C_3   0.658457 0.709714 0.321190 -0.778842
C38   C     C_3   0.222449 0.684257 0.379947 0.154927
C39   C     C_3   0.167877 0.708188 0.299623 -0.826890
C40   C     C_3   0.798085 0.314376 0.624477 0.053206
C41   C     C_3   0.831145 0.219812 0.610498 -0.794786
C42   C     C_3   0.752613 0.439301 0.949739 0.096965
C43   C     C_3   0.837250 0.471685 0.005672 -0.820832
C44   C     C_3   0.262447 0.413757 0.046677 0.102567
C45   C     C_R   0.497806 0.232458 0.507174 -0.157280
C46   C     C_3   0.181853 0.436818 0.982813 -0.832217
C47   C     C_3   0.760605 0.497421 0.745730 0.199040
C48   C     C_3   0.850865 0.537858 0.789184 -0.860362
C49   C     C_3   0.252024 0.440443 0.257349 0.238406
C50   C     C_3   0.148087 0.459350 0.230980 -0.843214
C51   C     C_3   0.581179 0.088052 0.718592 0.092878
C52   C     C_3   0.631346 0.030937 0.785321 -0.828641
C53   C     C_3   0.307275 0.959789 0.606737 0.098928
C54   C     C_3   0.209907 0.001432 0.605198 -0.848702
C55   C     C_3   0.277270 0.178943 0.397226 0.121501
C56   C     C_R   0.502029 0.768075 0.518594 -0.232837
C57   C     C_3   0.200605 0.242420 0.361718 -0.899391
C58   C     C_3   0.684779 0.757639 0.639587 0.153063
C59   C     C_3   0.785113 0.727414 0.665537 -0.811138
C60   C     C_3   0.083131 0.473956 0.689882 0.157301
C61   C     C_3   0.072974 0.419569 0.765302 -0.862296
C62   C     C_3   0.934587 0.720376 0.515368 0.132668
C63   C     C_3   0.003384 0.796367 0.502422 -0.849226
C64   C     C_R   0.431909 0.180710 0.458817 0.441150
C65   C     C_R   0.587481 0.815743 0.537517 0.454339
C66   C     C_R   0.438380 0.087883 0.466605 -0.299498
H1    H     H_    0.056617 0.577545 0.390595 0.224359
H2    H     H_    0.320993 0.185921 0.639330 0.208465
H3    H     H_    0.399147 0.282090 0.648725 0.258215
H4    H     H_    0.720837 0.579250 0.329823 0.120141
H5    H     H_    0.804614 0.671897 0.338702 0.162986
H6    H     H_    0.671949 0.777904 0.345617 0.255232
H7    H     H_    0.657086 0.712892 0.255222 0.200784
H8    H     H_    0.588422 0.685451 0.336257 0.251476
H9    H     H_    0.290993 0.721012 0.383684 0.167871
H10   H     H_    0.184044 0.709163 0.429277 0.112915
H11   H     H_    0.096319 0.677103 0.293845 0.237159
H12   H     H_    0.937096 0.364780 0.534649 0.226346
H13   H     H_    0.159909 0.781922 0.294396 0.211470
H14   H     H_    0.206822 0.684839 0.250311 0.294701
H15   H     H_    0.744778 0.309960 0.667719 0.134483
H16   H     H_    0.858183 0.354771 0.654024 0.132255
H17   H     H_    0.885747 0.220816 0.568340 0.240357
H18   H     H_    0.861946 0.189572 0.667984 0.210445
H19   H     H_    0.770479 0.177741 0.585306 0.279122
H20   H     H_    0.619230 0.425857 0.122351 0.180335
H21   H     H_    0.399257 0.396098 0.880662 0.179425
H22   H     H_    0.779220 0.399745 0.901684 0.121126
H23   H     H_    0.605311 0.235683 0.607899 0.183874
H24   H     H_    0.709838 0.394152 0.984764 0.136876
H25   H     H_    0.812601 0.510146 0.055250 0.258801
H26   H     H_    0.878685 0.413451 0.031130 0.200230
H27   H     H_    0.883909 0.515145 0.972819 0.253485
H28   H     H_    0.233309 0.371876 0.093120 0.127588
H29   H     H_    0.314150 0.372996 0.018298 0.132186
H30   H     H_    0.209369 0.477371 0.934608 0.262986
H31   H     H_    0.149112 0.374465 0.956752 0.202297
H32   H     H_    0.126953 0.475502 0.009132 0.255750
H33   H     H_    0.769388 0.494332 0.681298 0.151033
H34   H     H_    0.348615 0.776034 0.509854 0.184865
H35   H     H_    0.752383 0.426826 0.766340 0.058495
H36   H     H_    0.889128 0.578543 0.747355 0.210653
H37   H     H_    0.834519 0.581355 0.838589 0.306749
H38   H     H_    0.898233 0.483810 0.814626 0.211402
H39   H     H_    0.260105 0.426108 0.322379 0.187900
H40   H     H_    0.271844 0.378351 0.227454 0.061782
H41   H     H_    0.104511 0.399273 0.241880 0.196427
H42   H     H_    0.123639 0.515846 0.265041 0.272005
H43   H     H_    0.137746 0.476710 0.166442 0.269908
H44   H     H_    0.503407 0.076638 0.718048 0.124950
H45   H     H_    0.624791 0.448988 0.262428 0.191581
H46   H     H_    0.598281 0.159524 0.731802 0.135770
H47   H     H_    0.709118 0.041799 0.788513 0.256287
H48   H     H_    0.607207 0.049435 0.843296 0.205386
H49   H     H_    0.614988 0.959047 0.774105 0.250512
H50   H     H_    0.360336 0.006694 0.637519 0.130678
H51   H     H_    0.307213 0.895672 0.641288 0.140719
H52   H     H_    0.155030 0.955450 0.576031 0.260548
H53   H     H_    0.194260 0.014063 0.667134 0.209305
H54   H     H_    0.207694 0.065899 0.571613 0.243946
H55   H     H_    0.258660 0.156964 0.457053 0.138616
H56   H     H_    0.385893 0.424740 0.739362 0.247617
H57   H     H_    0.276184 0.120176 0.357376 0.156187
H58   H     H_    0.202391 0.304835 0.396829 0.240631
H59   H     H_    0.210902 0.258287 0.298866 0.246606
H60   H     H_    0.130021 0.210080 0.362683 0.219177
H61   H     H_    0.634892 0.704342 0.656034 0.169630
H62   H     H_    0.673068 0.819469 0.673516 0.128715
H63   H     H_    0.836252 0.780215 0.651149 0.223959
H64   H     H_    0.794073 0.715766 0.731070 0.241624
H65   H     H_    0.799350 0.664474 0.634903 0.243490
H66   H     H_    0.397102 0.045333 0.424150 0.178112
H67   H     H_    0.267367 0.295125 0.535736 0.157249
H68   H     H_    0.651672 0.945290 0.547827 0.206952
H69   H     H_    0.026014 0.524612 0.681621 0.127943
H70   H     H_    0.153161 0.509150 0.698510 0.148633
H71   H     H_    0.132583 0.371932 0.776581 0.261386
H72   H     H_    0.074024 0.464966 0.816992 0.211208
H73   H     H_    0.005227 0.381259 0.758725 0.248151
H74   H     H_    0.956050 0.690495 0.575624 0.115670
H75   H     H_    0.862606 0.749171 0.513263 0.223248
H76   H     H_    0.996968 0.849603 0.546805 0.207101
H77   H     H_    0.077051 0.771289 0.510228 0.245328
H78   H     H_    0.182828 0.287743 0.608149 0.171486
H79   H     H_    0.987510 0.825248 0.441411 0.266802
H80   H     H_    0.310675 0.266433 0.716923 0.247084
N1    N     N_2   0.545544 0.449069 0.987629 -0.161843
N2    N     N_2   0.466343 0.455167 0.011809 -0.145448
N3    N     N_R   0.252470 0.499980 0.500000 -0.188339
N4    N     N_R   0.747530 0.500020 0.500000 -0.187542
O1    O     O_R   0.579480 0.369070 0.499990 -0.567367
O2    O     O_3   0.737769 0.644667 0.440176 -0.537160
O3    O     O_3   0.242571 0.591641 0.384063 -0.553222
O4    O     O_3   0.753389 0.351424 0.552162 -0.568287
O5    O     O_3   0.700554 0.514135 0.917546 -0.576068
O6    O     O_3   0.302378 0.493966 0.079911 -0.569702
O7    O     O_3   0.682253 0.552792 0.754498 -0.604765
O8    O     O_3   0.307615 0.516781 0.242405 -0.552492
O9    O     O_3   0.612940 0.063663 0.645515 -0.624144
O10   O     O_3   0.326359 0.944833 0.527662 -0.625689
O11   O     O_3   0.367085 0.222220 0.402097 -0.619310
O12   O     O_R   0.420520 0.630930 0.500010 -0.628242
O13   O     O_3   0.672901 0.773040 0.556085 -0.576002
O14   O     O_3   0.074614 0.415775 0.624157 -0.622106
O15   O     O_3   0.936680 0.657023 0.454288 -0.621169
O16   O     O_R   0.420520 0.369060 0.499990 -0.597422
O17   O     O_R   0.579480 0.630940 0.500010 -0.517819
O18   O     O_R   0.588340 0.499180 0.616130 -0.610965
O19   O     O_R   0.411660 0.500820 0.383870 -0.555500
O20   O     O_R   0.429390 0.499170 0.616130 -0.579234
O21   O     O_R   0.570610 0.500830 0.383870 -0.631567
O22   O     O_3   0.267928 0.403112 0.613143 -0.582152
Zn1   Zn    Zn3+2 0.606140 0.500010 0.500000 1.014199
Zn2   Zn    Zn3+2 0.393860 0.499990 0.500000 1.004915

loop_
_geom_bond_atom_site_label_1
_geom_bond_atom_site_label_2
_ccdc_geom_bond_type
C37   H8    S    
C55   H55   S    
C59   H64   S    
C34   C56   A    
C51   H46   S    
C23   C45   A    
C47   O7    S    
C54   H54   S    
C27   C29   A    
C2    C4    A    
N1    N2    D    
C2    C65   A    
C1    C45   S    
C10   O4    S    
C12   O17   A    
C38   H10   S    
C53   C54   S    
C58   H62   S    
O21   Zn1   S    
C59   H65   S    
C2    H68   S    
C47   H35   S    
C39   H11   S    
C36   C37   S    
C8    O2    S    
C24   C26   A    
C53   H51   S    
C57   H59   S    
C38   C39   S    
C33   C35   S    
C11   C14   A    
C17   O19   A    
C61   H72   S    
C1    O16   A    
C39   H13   S    
C56   C65   A    
C41   H17   S    
C47   H33   S    
N3    Zn2   S    
C51   O9    S    
C17   C19   S    
C6    C15   A    
C7    N3    A    
C11   H1    S    
C22   C25   A    
C34   H34   S    
O19   Zn2   S    
C23   H23   S    
C60   H70   S    
C20   H56   S    
C53   H50   S    
O17   Zn1   S    
C46   H32   S    
C6    O15   S    
C9    O3    S    
C58   H61   S    
C7    O22   S    
C50   H42   S    
C40   O4    S    
C58   O13   S    
C21   H45   S    
C44   C46   S    
C66   H66   S    
C38   H9    S    
C33   H78   S    
C27   O5    S    
O18   Zn1   S    
C55   H57   S    
O16   Zn2   S    
C51   C52   S    
C44   O6    S    
C5    O14   S    
C40   H16   S    
C55   O11   S    
C57   H60   S    
C5    C7    A    
C36   O2    S    
C6    C8    A    
C58   C59   S    
C52   H47   S    
C48   H37   S    
C50   H43   S    
C43   H25   S    
C60   C61   S    
C42   H24   S    
C35   H80   S    
C23   C31   A    
C8    N4    A    
C62   C63   S    
C33   H67   S    
C47   C48   S    
C9    N3    A    
C65   O13   S    
C17   O21   A    
C25   N1    S    
C18   C29   A    
C4    C32   A    
C22   H21   S    
C3    C31   A    
C9    C11   A    
C60   H69   S    
C5    C14   A    
C12   C56   S    
C40   C41   S    
C36   H4    S    
C46   H31   S    
C20   C22   A    
C51   H44   S    
C49   H39   S    
C13   C15   A    
C50   H41   S    
C49   O8    S    
C21   C24   A    
C3    C66   A    
C42   H22   S    
C42   C43   S    
C62   H75   S    
C3    C4    S    
C54   H52   S    
O20   Zn2   S    
C52   H49   S    
C30   O8    S    
C37   H7    S    
C13   H12   S    
C59   H63   S    
C53   O10   S    
C19   C21   A    
C40   H15   S    
C61   H73   S    
C64   O11   S    
C10   C13   A    
C29   O7    S    
O1    Zn1   S    
C36   H5    S    
C49   H40   S    
O12   Zn2   S    
C52   H48   S    
C62   O15   S    
C25   C27   A    
C41   H19   S    
C45   C64   A    
C26   C28   A    
C43   H26   S    
C48   H36   S    
C43   H27   S    
C39   H14   S    
C55   C57   S    
C42   O5    S    
C33   O22   S    
C44   H29   S    
C10   N4    A    
C57   H58   S    
C41   H18   S    
C32   C34   A    
C61   H71   S    
C35   H2    S    
C16   O18   A    
C28   C30   A    
C60   O14   S    
C63   H76   S    
C1    O1    A    
C18   C20   A    
C44   H28   S    
C12   O12   A    
C16   O20   A    
C26   N2    S    
N4    Zn1   S    
C46   H30   S    
C35   H3    S    
C16   C18   S    
C49   C50   S    
C37   H6    S    
C28   O6    S    
C63   H77   S    
C14   C15   S    
C38   O3    S    
C62   H74   S    
C54   H53   S    
C19   C30   A    
C24   H20   S    
C63   H79   S    
C31   O9    S    
C64   C66   A    
C32   O10   S    
C48   H38   S    
