data_mof_unit_42909.cif
_audit_creation_date              2012-12-10T17:57:54-0500
_audit_creation_method            fapswitch 2.2
_symmetry_space_group_name_H-M    P1
_symmetry_Int_Tables_number       1
_space_group_crystal_system       triclinic
_cell_length_a                    10.881745
_cell_length_b                    9.578812
_cell_length_c                    15.069057
_cell_angle_alpha                 90.006177
_cell_angle_beta                  91.815581
_cell_angle_gamma                 91.097612
_cell_volume                      1569.63395404

loop_
_atom_site_label
_atom_site_type_symbol
_atom_type_description
_atom_site_fract_x
_atom_site_fract_y
_atom_site_fract_z
_atom_type_partial_charge
C1    C     C_R   0.262501 0.499007 0.499762 0.852073
C2    C     C_R   0.128679 0.497924 0.500508 -0.103553
C3    C     C_R   0.432465 0.072744 0.437383 0.185052
C4    C     C_R   0.567605 0.927241 0.562584 0.189426
C5    C     C_R   0.568590 0.076755 0.561939 0.176781
C6    C     C_R   0.431464 0.923233 0.438032 0.186226
C7    C     C_R   0.500611 0.500244 0.329414 0.781981
C8    C     C_R   0.499582 0.499835 0.670552 0.796778
C9    C     C_R   0.609716 0.495889 0.814438 0.088243
C10   C     C_R   0.389061 0.500098 0.185687 0.093641
C11   C     C_R   0.497554 0.498265 0.766763 -0.212309
C12   C     C_R   0.737632 0.500723 0.499752 0.818719
C13   C     C_R   0.501564 0.502155 0.233141 -0.211262
C14   C     C_R   0.384714 0.498673 0.809604 0.353560
C15   C     C_R   0.613820 0.507642 0.189684 0.341936
C16   C     C_R   0.384115 0.505294 0.903605 0.023466
C17   C     C_R   0.613710 0.495051 0.096166 0.027739
C18   C     C_R   0.498317 0.499049 0.952871 -0.139526
C19   C     C_R   0.499659 0.500456 0.046958 -0.139318
C20   C     C_R   0.611334 0.491015 0.908063 0.045894
C21   C     C_R   0.386989 0.507425 0.092055 0.043364
C22   C     C_R   0.272661 0.517636 0.950021 0.046263
C23   C     C_R   0.274817 0.522152 0.043302 0.439487
C24   C     C_R   0.724605 0.477277 0.050434 0.045183
C25   C     C_R   0.723600 0.478117 0.957245 0.432347
C26   C     C_R   0.060340 0.398043 0.450556 0.129820
C27   C     C_R   0.940329 0.601298 0.548806 0.097673
C28   C     C_R   0.932299 0.398315 0.449984 0.071511
C29   C     C_R   0.069119 0.599170 0.550192 0.071137
C30   C     C_R   0.871722 0.500811 0.499009 -0.117604
Cu1   Cu    Cu3+1 0.500000 0.640660 0.500000 1.004884
Cu2   Cu    Cu3+1 0.500000 0.359340 0.500000 0.984010
H1    H     H_    0.724073 0.592440 0.728968 0.228482
H2    H     H_    0.873906 0.536843 0.128435 0.286765
H3    H     H_    0.101181 0.577264 0.048817 0.344789
H4    H     H_    0.904171 0.483180 0.951800 0.354046
H5    H     H_    0.091304 0.305859 0.332830 0.248297
H6    H     H_    0.094104 0.197367 0.421488 0.229230
H7    H     H_    0.905778 0.694301 0.666143 0.219156
H8    H     H_    0.905821 0.802682 0.576951 0.211095
H9    H     H_    0.800953 0.342780 0.356067 0.257600
H10   H     H_    0.824042 0.222877 0.438921 0.242504
H11   H     H_    0.119835 0.798580 0.583007 0.215693
H12   H     H_    0.724845 0.414941 0.724498 0.235232
H13   H     H_    0.117073 0.685436 0.670116 0.242479
H14   H     H_    0.404054 0.123879 0.308732 0.200131
H15   H     H_    0.274975 0.106498 0.366805 0.196930
H16   H     H_    0.596325 0.876113 0.691220 0.201299
H17   H     H_    0.725264 0.893369 0.632962 0.195459
H18   H     H_    0.619021 0.125066 0.689170 0.202548
H19   H     H_    0.735439 0.131027 0.616362 0.189563
H20   H     H_    0.381165 0.874906 0.310772 0.200016
H21   H     H_    0.264668 0.868930 0.383519 0.195986
H22   H     H_    0.278567 0.396005 0.270177 0.231146
H23   H     H_    0.271498 0.572978 0.276679 0.230980
H24   H     H_    0.285653 0.457071 0.700592 0.324978
H25   H     H_    0.710509 0.567640 0.296093 0.319871
H26   H     H_    0.151475 0.612574 0.863677 0.271713
H27   H     H_    0.134579 0.432039 0.870774 0.291307
H28   H     H_    0.827150 0.363966 0.140112 0.276428
N1    N     N_R   0.500000 0.852070 0.500000 -0.159525
N2    N     N_3   0.140264 0.697309 0.603749 -0.556506
N3    N     N_3   0.365021 0.145623 0.369580 -0.514822
N4    N     N_3   0.635183 0.854329 0.630317 -0.512805
N5    N     N_3   0.643226 0.154448 0.625166 -0.528753
N6    N     N_3   0.356896 0.845525 0.374764 -0.526863
N7    N     N_R   0.500000 0.147930 0.500000 -0.161577
N8    N     N_3   0.722305 0.501187 0.766894 -0.500096
N9    N     N_3   0.276825 0.488277 0.233270 -0.495303
N10   N     N_3   0.154550 0.525017 0.905032 -0.595809
N11   N     N_3   0.839045 0.447290 0.096190 -0.572219
N12   N     N_3   0.121271 0.296252 0.399123 -0.573808
N13   N     N_3   0.878786 0.703826 0.599305 -0.579990
N14   N     N_3   0.866634 0.294713 0.397121 -0.593747
O1    O     O_R   0.319640 0.618740 0.499990 -0.541594
O2    O     O_3   0.723962 0.526741 0.237042 -0.775344
O3    O     O_3   0.167533 0.542004 0.088619 -0.697465
O4    O     O_3   0.831782 0.460616 0.912740 -0.695168
O5    O     O_R   0.680360 0.381260 0.500010 -0.584632
O6    O     O_R   0.680360 0.618740 0.500010 -0.538217
O7    O     O_R   0.319640 0.381260 0.499990 -0.551600
O8    O     O_R   0.499970 0.618800 0.370260 -0.565766
O9    O     O_R   0.500030 0.381200 0.629740 -0.563852
O10   O     O_R   0.500030 0.618800 0.629740 -0.540631
O11   O     O_R   0.499970 0.381200 0.370260 -0.552981
O12   O     O_3   0.274838 0.495513 0.760645 -0.768272

loop_
_geom_bond_atom_site_label_1
_geom_bond_atom_site_label_2
_ccdc_geom_bond_type
C27   C29   A    
C8    O9    A    
C26   N12   S    
Cu1   N1    S    
C5    N7    A    
C3    C6    A    
C28   N14   S    
Cu1   O6    S    
Cu2   O7    S    
Cu1   O8    S    
C2    C29   A    
C6    N1    A    
C19   C21   A    
C18   C19   A    
H15   N3    S    
C11   C14   A    
H16   N4    S    
C20   C25   A    
C1    O7    A    
C12   O5    A    
H13   N2    S    
H8    N13   S    
C1    C2    S    
H19   N5    S    
H9    N14   S    
Cu1   O1    S    
C21   C23   A    
C15   O2    S    
H17   N4    S    
C27   C30   A    
C10   C21   A    
H6    N12   S    
H10   N14   S    
C17   C24   A    
C25   O4    S    
C1    O1    A    
C24   C25   A    
C14   O12   S    
C5    N5    S    
H26   N10   S    
H28   N11   S    
C4    N1    A    
H3    O3    S    
Cu1   O10   S    
C9    C20   A    
H24   O12   S    
Cu1   Cu2   S    
C7    C13   S    
C2    C26   A    
C23   O3    S    
H21   N6    S    
C9    C11   A    
H23   N9    S    
Cu2   N7    S    
C13   C15   A    
C14   C16   A    
H12   N8    S    
H20   N6    S    
H25   O2    S    
C15   C17   A    
Cu2   O9    S    
C29   N2    S    
C16   C22   A    
C12   C30   S    
C8    O10   A    
C3    N7    A    
C4    C5    A    
C10   C13   A    
H11   N2    S    
C3    N3    S    
C4    N4    S    
C26   C28   A    
H14   N3    S    
C28   C30   A    
C9    N8    S    
H4    O4    S    
Cu2   O5    S    
C7    O11   A    
H22   N9    S    
C8    C11   S    
Cu2   O11   S    
C12   O6    A    
C17   C19   A    
C18   C20   A    
H7    N13   S    
H18   N5    S    
H27   N10   S    
C10   N9    S    
C6    N6    S    
C7    O8    A    
H1    N8    S    
C16   C18   A    
H5    N12   S    
C22   C23   A    
C27   N13   S    
H2    N11   S    
C22   N10   S    
C24   N11   S    
