data_mof_unit_47357.cif
_audit_creation_date              2012-12-10T18:30:30-0500
_audit_creation_method            fapswitch 2.2
_symmetry_space_group_name_H-M    P1
_symmetry_Int_Tables_number       1
_space_group_crystal_system       triclinic
_cell_length_a                    15.07842
_cell_length_b                    14.186917
_cell_length_c                    15.288334
_cell_angle_alpha                 89.976457
_cell_angle_beta                  82.469902
_cell_angle_gamma                 104.150635
_cell_volume                      3142.04777388

loop_
_atom_site_label
_atom_site_type_symbol
_atom_type_description
_atom_site_fract_x
_atom_site_fract_y
_atom_site_fract_z
_atom_type_partial_charge
C1    C     C_R   0.558126 0.514996 0.337300 0.816474
C2    C     C_R   0.394734 0.484541 0.083961 -0.130489
C3    C     C_R   0.669571 0.586997 0.968444 0.133289
C4    C     C_R   0.330019 0.435737 0.031091 0.112929
C5    C     C_R   0.151853 0.336919 0.381108 -0.228448
C6    C     C_R   0.851683 0.659814 0.617392 -0.207988
C7    C     C_R   0.243079 0.370783 0.395514 0.103681
C8    C     C_R   0.759418 0.627302 0.606010 0.092637
C9    C     C_R   0.205530 0.497601 0.482090 -0.086246
C10   C     C_R   0.793768 0.504442 0.512111 0.058336
C11   C     C_R   0.113631 0.470875 0.462005 -0.023589
C12   C     C_R   0.441521 0.485342 0.662433 0.823514
C13   C     C_R   0.887496 0.531623 0.526776 0.021123
C14   C     C_R   0.085203 0.384154 0.416606 0.113391
C15   C     C_R   0.917684 0.618397 0.571516 0.037347
C16   C     C_R   0.498610 0.329199 0.499697 0.868059
C17   C     C_R   0.501381 0.670796 0.500305 0.860577
C18   C     C_R   0.048430 0.524836 0.490388 -0.035935
C19   C     C_R   0.952536 0.478333 0.495066 0.085807
C20   C     C_R   0.925435 0.380511 0.467745 -0.094395
C21   C     C_R   0.076605 0.623701 0.513758 -0.121277
C22   C     C_R   0.990420 0.341119 0.415574 -0.057415
C23   C     C_R   0.556364 0.558833 0.098226 0.051545
C24   C     C_R   0.012525 0.665537 0.564747 -0.047034
C25   C     C_1   0.496195 0.226961 0.499075 -0.165212
C26   C     C_1   0.503737 0.773009 0.500967 -0.168042
C27   C     C_1   0.496605 0.141773 0.499169 0.033907
C28   C     C_1   0.503250 0.858174 0.500895 0.051586
C29   C     C_1   0.498762 0.042301 0.499738 0.044734
C30   C     C_1   0.501034 0.957626 0.500338 0.055237
C31   C     C_R   0.593833 0.533166 0.242707 -0.273765
C32   C     C_R   0.402828 0.478585 0.756112 -0.270451
C33   C     C_R   0.702816 0.520907 0.110522 0.137431
C34   C     C_R   0.432181 0.521111 0.902514 0.065560
C35   C     C_R   0.282768 0.418794 0.879406 0.164851
C36   C     C_R   0.676375 0.509306 0.203877 -0.004769
C37   C     C_R   0.319905 0.409889 0.790456 -0.028714
C38   C     C_R   0.540129 0.569441 0.189107 -0.096150
C39   C     C_R   0.445781 0.547034 0.812554 -0.094834
C40   C     C_3   0.767264 0.637116 0.928058 -0.489825
C41   C     C_3   0.774228 0.740777 0.895131 -0.709823
C42   C     C_3   0.254179 0.351150 0.074926 -0.444153
C43   C     C_3   0.293873 0.273268 0.113580 -0.773690
C44   C     C_2   0.834468 0.314231 0.501935 0.350249
C45   C     C_R   0.646069 0.558401 0.059020 0.008619
C46   C     C_2   0.166311 0.686694 0.470049 0.408072
C47   C     C_2   0.484204 0.650228 0.781208 0.407361
C48   C     C_2   0.476805 0.630854 0.225631 0.427283
C49   C     C_2   0.274514 0.329189 0.736331 0.420534
C50   C     C_2   0.733053 0.470394 0.260573 0.443429
C51   C     C_3   0.774747 0.470255 0.065796 -0.409457
C52   C     C_3   0.742229 0.359405 0.077674 -0.802094
C53   C     C_3   0.179433 0.408927 0.903641 -0.379582
C54   C     C_3   0.142575 0.470583 0.841797 -0.788076
C55   C     C_2   0.958735 0.250029 0.368041 0.375980
C56   C     C_R   0.346053 0.458774 0.938858 -0.000707
C57   C     C_2   0.044597 0.762469 0.602810 0.485955
C58   C     C_2   0.696165 0.684515 0.646665 0.412839
C59   C     C_2   0.308304 0.314174 0.357692 0.421771
C60   C     C_R   0.483716 0.536273 0.046446 0.081831
C61   C     C_R   0.504468 0.548270 0.954460 0.065647
C62   C     C_R   0.598023 0.578862 0.916577 -0.135113
H1    H     H_    0.616751 0.590812 0.845972 0.153517
H2    H     H_    0.816095 0.643663 0.977410 0.224665
H3    H     H_    0.789895 0.594638 0.872115 0.207879
H4    H     H_    0.338651 0.246075 0.061082 0.263476
H5    H     H_    0.334640 0.301950 0.167289 0.239771
H6    H     H_    0.236583 0.211282 0.141532 0.277381
H7    H     H_    0.210541 0.378789 0.128170 0.229690
H8    H     H_    0.209016 0.312271 0.028567 0.224343
H9    H     H_    0.797066 0.262354 0.459403 0.058852
H10   H     H_    0.196505 0.666961 0.406412 0.097235
H11   H     H_    0.482608 0.671270 0.713328 0.052591
H12   H     H_    0.380186 0.469020 0.154466 0.146779
H13   H     H_    0.469980 0.647792 0.294890 0.092141
H14   H     H_    0.305144 0.318900 0.670088 0.101595
H15   H     H_    0.700066 0.414621 0.311134 0.043790
H16   H     H_    0.737619 0.334836 0.147244 0.256870
H17   H     H_    0.673602 0.333181 0.055036 0.254588
H18   H     H_    0.792127 0.325406 0.037418 0.261487
H19   H     H_    0.788081 0.483156 0.993639 0.201556
H20   H     H_    0.842103 0.497388 0.090333 0.258174
H21   H     H_    0.182718 0.547641 0.840258 0.254752
H22   H     H_    0.146559 0.443215 0.773772 0.273479
H23   H     H_    0.770160 0.450623 0.464988 0.125031
H24   H     H_    0.069101 0.467355 0.865905 0.246437
H25   H     H_    0.140209 0.331838 0.903412 0.254242
H26   H     H_    0.164545 0.435989 0.970766 0.202811
H27   H     H_    0.910307 0.187365 0.402007 0.081088
H28   H     H_    0.099950 0.774364 0.643410 0.100046
H29   H     H_    0.624150 0.653819 0.660263 0.105962
H30   H     H_    0.376528 0.348957 0.326426 0.093412
H31   H     H_    0.227047 0.553781 0.527994 0.152782
H32   H     H_    0.133631 0.271207 0.344716 0.220384
H33   H     H_    0.871589 0.720108 0.659916 0.209717
H34   H     H_    0.731955 0.740730 0.840986 0.288263
H35   H     H_    0.750570 0.783836 0.950071 0.272263
H36   H     H_    0.847159 0.776284 0.869416 0.245994
N1    N     N_R   0.268300 0.449640 0.447270 -0.131352
N2    N     N_R   0.731700 0.550360 0.552730 -0.142199
O1    O     O_R   0.616880 0.525390 0.394380 -0.594829
O2    O     O_2   0.208104 0.759035 0.503985 -0.564605
O3    O     O_2   0.512351 0.713934 0.831694 -0.528955
O4    O     O_2   0.435636 0.668658 0.177700 -0.545547
O5    O     O_2   0.204200 0.269353 0.766516 -0.556309
O6    O     O_2   0.816722 0.501718 0.252585 -0.568868
O7    O     O_2   0.984731 0.245684 0.289412 -0.549304
O8    O     O_2   0.012365 0.830344 0.585941 -0.518801
O9    O     O_2   0.724997 0.769040 0.665966 -0.559614
O10   O     O_2   0.284583 0.225414 0.358525 -0.562507
O11   O     O_R   0.383120 0.474610 0.605620 -0.610567
O12   O     O_R   0.468100 0.493070 0.360490 -0.651946
O13   O     O_R   0.531900 0.506930 0.639510 -0.628550
O14   O     O_R   0.574410 0.389880 0.516950 -0.585833
O15   O     O_R   0.425590 0.610120 0.483050 -0.589966
O16   O     O_R   0.425630 0.357560 0.483060 -0.599403
O17   O     O_R   0.574370 0.642440 0.516940 -0.608063
O18   O     O_2   0.801654 0.315689 0.579179 -0.534958
Zn1   Zn    Zn3+2 0.599340 0.521580 0.522630 0.952931
Zn2   Zn    Zn3+2 0.400660 0.478420 0.477370 0.931890

loop_
_geom_bond_atom_site_label_1
_geom_bond_atom_site_label_2
_ccdc_geom_bond_type
C11   C18   A    
C34   C56   A    
C23   C45   A    
C1    O1    A    
C35   C53   S    
C58   O9    D    
C33   C45   A    
C19   C20   A    
C42   H8    S    
C33   C36   A    
C54   H22   S    
C5    H32   S    
C10   H23   S    
C53   C54   S    
C46   O2    D    
C29   C30   T    
C7    N1    A    
C17   C26   S    
C35   C37   A    
C21   C46   S    
O17   Zn1   S    
C1    O12   A    
C11   C14   A    
C2    C60   A    
C41   H34   S    
C27   C29   S    
C18   C21   A    
C1    C31   S    
C59   O10   D    
C44   H9    S    
C18   C19   A    
C32   C39   A    
C8    C58   S    
C6    C15   A    
O13   Zn1   S    
C43   H6    S    
C52   H17   S    
C58   H29   S    
C51   H19   S    
C38   C48   S    
O14   Zn1   S    
C2    H12   S    
C17   O17   A    
N1    Zn2   S    
C9    N1    A    
C12   C32   S    
C48   H13   S    
C54   H24   S    
C52   H16   S    
C16   O16   A    
C7    C59   S    
C54   H21   S    
C20   C44   S    
C5    C7    A    
C23   C60   A    
C47   O3    D    
C57   H28   S    
C13   C19   A    
C51   C52   S    
O1    Zn1   S    
C47   H11   S    
O12   Zn2   S    
C24   C57   S    
C6    C8    A    
C3    C45   A    
C34   C61   A    
C34   C39   A    
C55   O7    D    
C60   C61   A    
C2    C4    A    
C62   H1    S    
C37   C49   S    
C44   O18   D    
C49   H14   S    
C53   H25   S    
N2    Zn1   S    
C32   C37   A    
C10   N2    A    
C9    C11   A    
C51   H20   S    
C5    C14   A    
C40   C41   S    
C20   C22   A    
C3    C40   S    
O15   Zn2   S    
C40   H3    S    
C13   C15   A    
C41   H35   S    
C33   C51   S    
C42   C43   S    
C50   H15   S    
C9    H31   S    
C36   C50   S    
C17   O15   A    
C39   C47   S    
C12   O13   A    
C3    C62   A    
C16   C25   S    
C15   C24   A    
C35   C56   A    
C31   C36   A    
C46   H10   S    
C10   C13   A    
C16   O14   A    
C49   O5    D    
C22   C55   S    
C25   C27   T    
C23   C38   A    
C26   C28   T    
C40   H2    S    
C31   C38   A    
C14   C22   A    
C28   C30   S    
C8    N2    A    
C55   H27   S    
C4    C42   S    
C43   H4    S    
C53   H26   S    
C59   H30   S    
C42   H7    S    
C61   C62   A    
O16   Zn2   S    
C57   O8    D    
C43   H5    S    
C6    H33   S    
C21   C24   A    
C50   O6    D    
C41   H36   S    
O11   Zn2   S    
C52   H18   S    
C12   O11   A    
C4    C56   A    
C48   O4    D    
