data_mof_unit_48397.cif
_audit_creation_date              2012-12-10T19:54:26-0500
_audit_creation_method            fapswitch 2.2
_symmetry_space_group_name_H-M    P1
_symmetry_Int_Tables_number       1
_space_group_crystal_system       triclinic
_cell_length_a                    15.698024
_cell_length_b                    14.951808
_cell_length_c                    14.223834
_cell_angle_alpha                 90.740709
_cell_angle_beta                  91.085077
_cell_angle_gamma                 90.946279
_cell_volume                      3337.18407645

loop_
_atom_site_label
_atom_site_type_symbol
_atom_type_description
_atom_site_fract_x
_atom_site_fract_y
_atom_site_fract_z
_atom_type_partial_charge
Br1   Br    Br    0.349490 0.386417 0.257253 -0.504250
Br2   Br    Br    0.610136 0.656483 0.743008 -0.459058
C1    C     C_R   0.500332 0.328533 0.499396 1.009633
C2    C     C_R   0.471804 0.909082 0.582464 0.360709
C3    C     C_R   0.494765 0.050146 0.498339 -0.104239
C4    C     C_R   0.492569 0.953670 0.499327 -0.112403
C5    C     C_R   0.435545 0.459365 0.102230 -0.307277
C6    C     C_R   0.539059 0.566972 0.897787 -0.313645
C7    C     C_R   0.436368 0.457586 0.200670 0.368250
C8    C     C_R   0.540985 0.566250 0.799385 0.393440
C9    C     C_R   0.567357 0.537479 0.207525 -0.156843
C10   C     C_R   0.463212 0.429737 0.792474 -0.162492
C11   C     C_R   0.573077 0.532996 0.108558 0.388117
C12   C     C_R   0.498527 0.672422 0.500542 0.965326
C13   C     C_R   0.467126 0.423486 0.891534 0.388537
C14   C     C_R   0.504290 0.496054 0.053392 -0.007412
C15   C     C_R   0.503218 0.495123 0.946645 -0.010127
C16   C     C_R   0.337900 0.500058 0.499208 0.893147
C17   C     C_R   0.662086 0.500153 0.500797 0.932370
C18   C     C_3   0.973769 0.456174 0.576705 -0.312567
C19   C     C_3   0.026139 0.545169 0.422232 -0.313092
C20   C     C_3   0.026377 0.417589 0.495872 0.584936
C21   C     C_3   0.973499 0.583775 0.503062 0.579794
C22   C     C_1   0.248988 0.500575 0.497534 -0.149385
C23   C     C_R   0.423723 0.189567 0.519940 -0.409728
C24   C     C_1   0.750980 0.500139 0.502350 -0.153758
C25   C     C_3   0.031138 0.541847 0.578808 -0.324485
C26   C     C_3   0.968732 0.459515 0.420139 -0.316771
C27   C     C_3   0.082835 0.501625 0.497918 0.067675
C28   C     C_3   0.917071 0.499719 0.501047 0.068122
C29   C     C_1   0.173666 0.501077 0.497081 0.013795
C30   C     C_1   0.826283 0.500000 0.502350 0.014724
C31   C     C_R   0.419629 0.096765 0.516015 0.509908
C32   C     C_R   0.511135 0.906323 0.416656 0.501352
C33   C     C_3   0.995566 0.266476 0.490885 0.108729
C34   C     C_R   0.514723 0.814231 0.419000 -0.380390
C35   C     C_3   0.034073 0.173939 0.484990 -0.823900
C36   C     C_3   0.004191 0.734938 0.508781 0.100651
C37   C     C_3   0.965552 0.827585 0.511129 -0.804895
C38   C     C_3   0.703017 0.494205 0.056621 0.090589
C39   C     C_3   0.781474 0.527646 0.005833 -0.773358
C40   C     C_3   0.500735 0.285746 0.944163 0.101238
C41   C     C_3   0.467603 0.205282 0.997636 -0.808014
C42   C     C_3   0.277955 0.075410 0.474629 0.109888
C43   C     C_3   0.210286 0.001347 0.471440 -0.859195
C44   C     C_3   0.456659 0.960781 0.280329 0.091530
C45   C     C_R   0.499175 0.233754 0.497637 -0.241090
C46   C     C_3   0.475063 0.024772 0.200658 -0.811983
C47   C     C_3   0.654658 0.233776 0.351143 0.160281
C48   C     C_3   0.732020 0.290585 0.326051 -0.860084
C49   C     C_3   0.354063 0.756128 0.655136 0.154453
C50   C     C_3   0.326807 0.699271 0.737541 -0.775353
C51   C     C_3   0.694582 0.037417 0.536679 0.130782
C52   C     C_3   0.783326 0.009450 0.508395 -0.791364
C53   C     C_3   0.518973 0.975317 0.719187 0.139195
C54   C     C_3   0.490169 0.015751 0.811710 -0.794215
C55   C     C_R   0.494292 0.768872 0.501208 -0.290783
C56   C     C_R   0.572095 0.187945 0.471631 0.313602
C57   C     C_R   0.468302 0.816130 0.581880 0.369497
C58   C     C_R   0.571551 0.095137 0.477430 0.363432
H1    H     H_    0.618898 0.568198 0.248610 0.174672
H2    H     H_    0.566957 0.623858 0.935387 0.236360
H3    H     H_    0.952295 0.274450 0.428750 0.134822
H4    H     H_    0.958085 0.270585 0.556413 0.138844
H5    H     H_    0.077012 0.163198 0.546634 0.259950
H6    H     H_    0.982625 0.122031 0.484266 0.205518
H7    H     H_    0.071100 0.167315 0.419571 0.258397
H8    H     H_    0.043757 0.729692 0.444868 0.131939
H9    H     H_    0.045497 0.728061 0.572675 0.132459
H10   H     H_    0.926341 0.835607 0.574783 0.261115
H11   H     H_    0.017055 0.879458 0.512759 0.202478
H12   H     H_    0.433248 0.376174 0.751328 0.176381
H13   H     H_    0.924689 0.837131 0.447563 0.259414
H14   H     H_    0.673556 0.438457 0.013822 0.126850
H15   H     H_    0.723597 0.468463 0.126498 0.136854
H16   H     H_    0.813343 0.582565 0.047201 0.259042
H17   H     H_    0.826904 0.472157 0.996956 0.198576
H18   H     H_    0.762809 0.552835 0.935374 0.269470
H19   H     H_    0.555527 0.315611 0.985299 0.124708
H20   H     H_    0.523142 0.262163 0.874383 0.138340
H21   H     H_    0.413392 0.172959 0.958221 0.263512
H22   H     H_    0.519090 0.155870 0.006525 0.200919
H23   H     H_    0.950192 0.419360 0.638563 0.159171
H24   H     H_    0.445930 0.226760 0.068198 0.269283
H25   H     H_    0.299785 0.086154 0.401345 0.130380
H26   H     H_    0.248379 0.137580 0.501422 0.168891
H27   H     H_    0.184393 0.991110 0.542736 0.263158
H28   H     H_    0.157421 0.019676 0.422822 0.215438
H29   H     H_    0.238414 0.937923 0.446108 0.244591
H30   H     H_    0.404138 0.989358 0.322337 0.127544
H31   H     H_    0.435332 0.895112 0.249607 0.145827
H32   H     H_    0.526134 0.997845 0.155892 0.261062
H33   H     H_    0.416627 0.033348 0.156682 0.212979
H34   H     H_    0.049704 0.581971 0.360361 0.161051
H35   H     H_    0.495874 0.091059 0.229864 0.246449
H36   H     H_    0.597581 0.262196 0.315416 0.145618
H37   H     H_    0.664379 0.164658 0.323874 0.189259
H38   H     H_    0.790223 0.263941 0.360510 0.251480
H39   H     H_    0.740235 0.289483 0.248674 0.199869
H40   H     H_    0.723317 0.360791 0.349706 0.262798
H41   H     H_    0.335938 0.719080 0.588994 0.094371
H42   H     H_    0.319088 0.820300 0.657846 0.166844
H43   H     H_    0.256933 0.686538 0.733397 0.189248
H44   H     H_    0.359852 0.634184 0.735645 0.268223
H45   H     H_    0.940995 0.425301 0.356647 0.158512
H46   H     H_    0.343009 0.734510 0.804901 0.255394
H47   H     H_    0.666767 0.983534 0.580217 0.117292
H48   H     H_    0.701166 0.100357 0.579417 0.140674
H49   H     H_    0.813099 0.062174 0.464894 0.251749
H50   H     H_    0.823749 0.999529 0.572205 0.198490
H51   H     H_    0.779533 0.945792 0.467281 0.266135
H52   H     H_    0.560918 0.025344 0.685003 0.096892
H53   H     H_    0.555723 0.913919 0.734979 0.169716
H54   H     H_    0.448297 0.967435 0.848422 0.263610
H55   H     H_    0.546496 0.032118 0.857519 0.195674
H56   H     H_    0.058794 0.576048 0.642339 0.156852
H57   H     H_    0.454530 0.078046 0.798385 0.259107
H58   H     H_    0.368251 0.227411 0.539176 0.177649
H59   H     H_    0.533485 0.778543 0.356110 0.213561
H60   H     H_    0.380944 0.430755 0.064642 0.237769
N1    N     N_R   0.500000 0.499980 0.252470 -0.136959
N2    N     N_R   0.500000 0.500020 0.747530 -0.145695
O1    O     O_R   0.500010 0.369070 0.579480 -0.637106
O2    O     O_3   0.938090 0.669855 0.506844 -0.595889
O3    O     O_3   0.646055 0.565496 0.067424 -0.611227
O4    O     O_3   0.434426 0.347554 0.932857 -0.610510
O5    O     O_3   0.345096 0.049917 0.535706 -0.570143
O6    O     O_3   0.531665 0.950469 0.335099 -0.561843
O7    O     O_3   0.645970 0.234445 0.449828 -0.612772
O8    O     O_3   0.442861 0.772273 0.661884 -0.549231
O9    O     O_3   0.643979 0.048517 0.454770 -0.561514
O10   O     O_3   0.446714 0.955692 0.661707 -0.552805
O11   O     O_R   0.499990 0.630930 0.420520 -0.637772
O12   O     O_R   0.500010 0.369060 0.420520 -0.593727
O13   O     O_R   0.499990 0.630940 0.579480 -0.536038
O14   O     O_R   0.376780 0.500000 0.579460 -0.634202
O15   O     O_R   0.623220 0.500000 0.420540 -0.640165
O16   O     O_R   0.376780 0.499990 0.420510 -0.569387
O17   O     O_R   0.623220 0.500010 0.579490 -0.581819
O18   O     O_3   0.061701 0.331499 0.491812 -0.600736
Zn1   Zn    Zn3+2 0.500000 0.500010 0.606140 0.994525
Zn2   Zn    Zn3+2 0.500000 0.499990 0.393860 0.980240

loop_
_geom_bond_atom_site_label_1
_geom_bond_atom_site_label_2
_ccdc_geom_bond_type
C53   C54   S    
C42   O5    S    
C24   C30   T    
C20   C27   S    
C53   H52   S    
C25   C27   S    
C9    C11   A    
C54   H57   S    
O15   Zn2   S    
C23   H58   S    
C50   H43   S    
C18   C28   S    
C51   C52   S    
C49   H42   S    
C40   H20   S    
C48   H39   S    
C16   C22   S    
C44   O6    S    
C43   H27   S    
C39   H17   S    
C3    C4    S    
C55   C57   A    
C19   H34   S    
C56   O7    S    
C56   C58   A    
C20   O18   S    
C31   O5    S    
C52   H50   S    
C13   C15   A    
C16   O16   A    
C17   C24   S    
C54   H55   S    
C14   C15   S    
C13   O4    S    
C3    C31   A    
C7    N1    A    
C16   O14   A    
C33   H4    S    
C51   O9    S    
C21   C25   S    
C43   H29   S    
C23   C45   A    
C11   O3    S    
C25   H56   S    
C10   H12   S    
C36   H9    S    
C50   H46   S    
C40   H19   S    
C20   C26   S    
C41   H24   S    
C9    N1    A    
C42   H26   S    
C5    H60   S    
C58   O9    S    
C49   O8    S    
C1    O1    A    
C44   C46   S    
C48   H38   S    
C46   H33   S    
C49   C50   S    
C21   C28   S    
C43   H28   S    
Br1   C7    S    
C2    C4    A    
C34   C55   A    
O16   Zn2   S    
C46   H35   S    
C39   H18   S    
C44   H31   S    
C53   H53   S    
C8    N2    A    
C47   O7    S    
C4    C32   A    
C52   H49   S    
C35   H5    S    
O14   Zn1   S    
C33   O18   S    
O12   Zn2   S    
C51   H47   S    
C10   C13   A    
C26   H45   S    
C17   O15   A    
C35   H6    S    
O1    Zn1   S    
O11   Zn2   S    
C32   O6    S    
C5    C14   A    
C12   O11   A    
C19   C26   S    
C18   C20   S    
C53   O10   S    
C19   C21   S    
C41   H21   S    
C11   C14   A    
C49   H41   S    
C40   C41   S    
C42   H25   S    
Br2   C8    S    
C42   C43   S    
C57   O8    S    
C5    C7    A    
C12   C55   S    
C50   H44   S    
C54   H54   S    
C3    C58   A    
C33   C35   S    
N1    Zn2   S    
C36   H8    S    
C9    H1    S    
C33   H3    S    
C21   O2    S    
C44   H30   S    
C18   C25   S    
C34   H59   S    
C48   H40   S    
C6    C15   A    
C38   H15   S    
C1    O12   A    
C26   C28   S    
C22   C29   T    
C27   C29   S    
C45   C56   A    
C28   C30   S    
O17   Zn1   S    
C51   H48   S    
C36   C37   S    
C19   C27   S    
C38   O3    S    
C35   H7    S    
C2    C57   A    
C1    C45   S    
C37   H10   S    
C38   H14   S    
C52   H51   S    
C32   C34   A    
C37   H13   S    
C47   H36   S    
C40   O4    S    
C47   H37   S    
O13   Zn1   S    
C10   N2    A    
C6    C8    A    
C47   C48   S    
C46   H32   S    
C18   H23   S    
C23   C31   A    
C41   H22   S    
C37   H11   S    
C38   C39   S    
N2    Zn1   S    
C2    O10   S    
C17   O17   A    
C36   O2    S    
C12   O13   A    
C6    H2    S    
C39   H16   S    
