data_mof_unit_66697.cif
_audit_creation_date              2012-12-11T17:53:00-0500
_audit_creation_method            fapswitch 2.2
_symmetry_space_group_name_H-M    P1
_symmetry_Int_Tables_number       1
_space_group_crystal_system       triclinic
_cell_length_a                    8.326734
_cell_length_b                    12.827606
_cell_length_c                    16.551419
_cell_angle_alpha                 109.904645
_cell_angle_beta                  97.65574
_cell_angle_gamma                 80.764077
_cell_volume                      1634.83683433

loop_
_atom_site_label
_atom_site_type_symbol
_atom_type_description
_atom_site_fract_x
_atom_site_fract_y
_atom_site_fract_z
_atom_type_partial_charge
Ba1   Ba    Ba6+2 0.363950 0.459210 0.542370 1.719584
Ba2   Ba    Ba6+2 0.825880 0.540700 0.457630 1.766403
Br1   Br    Br    0.863132 0.940279 0.809625 -0.563418
Br2   Br    Br    0.651300 0.249859 0.084198 -0.520614
Br3   Br    Br    0.699661 0.214298 0.428080 -0.545512
C1    C     C_3   0.218569 0.168424 0.822909 -0.327329
C2    C     C_R   0.891578 0.533238 0.750019 -0.281067
C3    C     C_2   0.468844 0.352890 0.131506 0.266653
C4    C     C_3   0.761213 0.245931 0.783034 0.278396
C5    C     C_2   0.451075 0.400545 0.217536 0.059160
C6    C     C_2   0.171443 0.488171 0.188060 -0.060873
C7    C     C_3   0.208286 0.465451 0.096271 0.022183
C8    C     C_3   0.330090 0.361557 0.064506 0.131400
C9    C     C_2   0.066205 0.473280 0.030317 -0.107138
C10   C     C_2   0.096074 0.484462 0.956054 -0.065400
C11   C     C_R   0.812907 0.565094 0.915852 0.006062
C12   C     C_3   0.211469 0.234655 0.761496 0.345973
C13   C     C_R   0.969481 0.513579 0.892078 -0.063806
C14   C     C_R   0.699254 0.603543 0.858586 -0.074794
C15   C     C_R   0.738897 0.588523 0.775292 0.045309
C16   C     C_3   0.714527 0.272190 0.874225 -0.237488
C17   C     C_R   0.008930 0.499656 0.808365 -0.001708
C18   C     C_R   0.250992 0.808562 0.459913 -0.237368
C19   C     C_R   0.971919 0.206806 0.557498 -0.209223
C20   C     C_R   0.930737 0.030989 0.570318 -0.079984
C21   C     C_R   0.880892 0.144170 0.586144 -0.019174
C22   C     C_R   0.088212 0.152802 0.496819 0.105468
C23   C     C_3   0.972842 0.812244 0.725986 0.540233
C24   C     C_R   0.144806 0.037338 0.484744 -0.013230
C25   C     C_R   0.064468 0.976262 0.521912 -0.021742
C26   C     C_R   0.118465 0.861241 0.508740 0.052266
C27   C     C_R   0.338237 0.869176 0.428917 -0.073105
C28   C     C_3   0.649118 0.147886 0.309555 0.734481
C29   C     C_R   0.284333 0.982194 0.440962 -0.100567
C30   C     C_3   0.477290 0.125961 0.293702 -0.185116
C31   C     C_3   0.495599 0.809099 0.645213 0.320897
C32   C     C_3   0.449137 0.934500 0.666844 -0.366788
C33   C     C_3   0.111715 0.258036 0.275736 0.312073
C34   C     C_3   0.089392 0.745491 0.774257 -0.273585
C35   C     C_3   0.020133 0.215085 0.186256 0.351085
C36   C     C_3   0.421542 0.765307 0.222864 0.944858
C37   C     C_3   0.313282 0.870394 0.217278 -0.281328
C38   C     C_3   0.995278 0.731447 0.182982 0.316321
C39   C     C_3   0.945351 0.758800 0.099337 -0.242324
C40   C     C_2   0.293303 0.467814 0.245217 -0.272948
H1    H     H_    0.264985 0.179792 0.700999 0.059957
H2    H     H_    0.224176 0.286174 0.267307 -0.126836
H3    H     H_    0.038238 0.334343 0.312524 0.045457
H4    H     H_    0.149088 0.095793 0.792613 0.118524
H5    H     H_    0.968722 0.288315 0.166703 0.032151
H6    H     H_    0.918657 0.171451 0.189066 0.153947
H7    H     H_    0.080910 0.261212 0.745581 -0.133381
H8    H     H_    0.163617 0.222255 0.883226 0.145059
H9    H     H_    0.878348 0.760132 0.686082 -0.007179
H10   H     H_    0.196247 0.790402 0.806175 0.158732
H11   H     H_    0.026849 0.731837 0.824307 0.070852
H12   H     H_    0.439482 0.096746 0.224210 0.158684
H13   H     H_    0.131552 0.663401 0.727815 0.094611
H14   H     H_    0.347369 0.138016 0.839032 0.156259
H15   H     H_    0.820444 0.299082 0.921181 0.095579
H16   H     H_    0.354524 0.712762 0.244515 -0.435050
H17   H     H_    0.215344 0.848841 0.165474 0.132715
H18   H     H_    0.256026 0.917453 0.277376 0.048173
H19   H     H_    0.385468 0.923321 0.200078 0.177964
H20   H     H_    0.118043 0.684756 0.176934 -0.016955
H21   H     H_    0.004496 0.809248 0.238381 0.127568
H22   H     H_    0.946160 0.848770 0.110165 0.182866
H23   H     H_    0.458414 0.064452 0.323187 0.083617
H24   H     H_    0.823922 0.735446 0.071652 0.205931
H25   H     H_    0.791706 0.324249 0.777104 -0.028314
H26   H     H_    0.030524 0.712179 0.049751 0.109209
H27   H     H_    0.581520 0.645806 0.879728 0.145486
H28   H     H_    0.272374 0.492650 0.312869 0.059566
H29   H     H_    0.922135 0.521318 0.685684 0.064992
H30   H     H_    0.941718 0.476337 0.044392 0.110419
H31   H     H_    0.222919 0.477757 0.944410 0.155836
H32   H     H_    0.858774 0.986064 0.593676 0.101413
H33   H     H_    0.356967 0.026639 0.418915 0.104265
H34   H     H_    0.411785 0.206855 0.324579 0.072781
H35   H     H_    0.294577 0.721813 0.452092 0.047466
H36   H     H_    0.869019 0.181145 0.772684 0.031230
H37   H     H_    0.932245 0.295129 0.570480 0.080125
H38   H     H_    0.611440 0.340619 0.888031 0.130260
H39   H     H_    0.677802 0.196816 0.881878 0.195022
H40   H     H_    0.208583 0.949271 0.044801 0.381010
H41   H     H_    0.615354 0.529746 0.051948 0.340514
H42   H     H_    0.686542 0.986600 0.137978 0.366950
H43   H     H_    0.386699 0.766365 0.614611 -0.009015
H44   H     H_    0.591107 0.782226 0.599222 0.059670
H45   H     H_    0.341808 0.961163 0.705241 0.122655
H46   H     H_    0.418226 0.956726 0.607159 0.057328
H47   H     H_    0.552166 0.979814 0.704189 0.180139
O1    O     O_2   0.429050 0.611890 0.712090 -0.460496
O2    O     O_2   0.676744 0.863501 0.440228 -0.423111
O3    O     O_3   0.563263 0.795423 0.277776 -0.509215
O4    O     O_3   0.649820 0.584130 0.603850 -0.506507
O5    O     O_3   0.066730 0.358340 0.455880 -0.493534
O6    O     O_2   0.852540 0.775600 0.541830 -0.481903
O7    O     O_3   0.063038 0.852876 0.679566 -0.653867
O8    O     O_2   0.845878 0.477043 0.195706 -0.422190
O9    O     O_3   0.878510 0.673988 0.198059 -0.487262
O10   O     O_3   0.201480 0.401240 0.659120 -0.486578
O11   O     O_2   0.334756 0.526333 0.808560 -0.463909
O12   O     O_3   0.142166 0.175597 0.317519 -0.594126
O13   O     O_3   0.554092 0.785559 0.721385 -0.597801
O14   O     O_3   0.303669 0.324330 0.800846 -0.577835
O15   O     O_2   0.337150 0.224350 0.458110 -0.472419
O16   O     O_3   0.611620 0.334620 0.615460 -0.430309
O17   O     O_2   0.545361 0.129241 0.559888 -0.453463
O18   O     O_2   0.052861 0.137792 0.016960 -0.248807
O19   O     O_2   0.306221 0.158470 0.110494 -0.348418
O20   O     O_3   0.147851 0.993149 0.095696 -0.506476
O21   O     O_2   0.322023 0.649028 0.060168 -0.389129
O22   O     O_2   0.543370 0.757394 0.077307 -0.284153
O23   O     O_3   0.630942 0.204415 0.723872 -0.572865
O24   O     O_3   0.604993 0.571999 0.113853 -0.475077
O25   O     O_2   0.942626 0.029417 0.260464 -0.316425
O26   O     O_2   0.781703 0.954776 0.334929 -0.268280
O27   O     O_3   0.685736 0.942216 0.176548 -0.495536
O28   O     O_2   0.760640 0.388070 0.287860 -0.445483
O29   O     O_3   0.539890 0.415780 0.396140 -0.484824
O30   O     O_3   0.988230 0.598670 0.340870 -0.473178
O31   O     O_3   0.673097 0.215507 0.263381 -0.627348
O32   O     O_3   0.122980 0.641570 0.544110 -0.486829
O33   O     O_3   0.578090 0.665290 0.384530 -0.463803
P1    P     P_3+3 0.593410 0.640600 0.698510 0.996838
P2    P     P_3+3 0.154920 0.233850 0.431950 1.028699
P3    P     P_3+3 0.671773 0.201270 0.622118 1.024057
P4    P     P_3+3 0.596300 0.359310 0.301480 1.033950
P5    P     P_3+3 0.535671 0.802058 0.383222 1.060420
P6    P     P_3+3 0.212463 0.439711 0.770697 0.983215
P7    P     P_3+3 0.040465 0.782918 0.567999 0.933106
P8    P     P_3+3 0.973583 0.559590 0.228978 1.039197
S1    S     S_3+6 0.137634 0.126407 0.100132 -0.063316
S2    S     S_3+6 0.473367 0.685769 0.115329 -0.053159
S3    S     S_3+6 0.772618 0.016490 0.271827 -0.083275

loop_
_geom_bond_atom_site_label_1
_geom_bond_atom_site_label_2
_ccdc_geom_bond_type
C31   H44   S    
C10   C13   S    
C3    C8    S    
C17   P6    S    
C22   C24   A    
C36   C37   S    
C14   C15   A    
C19   C22   A    
C36   H16   S    
Br2   C3    S    
H40   O20   S    
C27   P5    S    
O24   S2    S    
C31   H43   S    
C15   P1    S    
C24   C25   A    
O13   P1    S    
C20   H32   S    
C40   H28   S    
Br1   C23   S    
C19   C21   A    
C6    P8    S    
C25   C26   A    
Ba2   P4    S    
O32   P7    S    
C39   H26   S    
H41   O24   S    
Ba1   Ba2   S    
C19   H37   S    
O1    P1    D    
C33   O12   S    
C27   C29   A    
C22   P2    S    
O33   P5    S    
C34   H10   S    
C16   H38   S    
Ba2   O5    S    
Br3   C28   S    
O3    P5    S    
O22   S2    D    
C18   H35   S    
C37   H17   S    
C33   H3    S    
O5    P2    S    
O29   P4    S    
C10   H31   S    
O31   P4    S    
C14   H27   S    
C12   H7    S    
C2    H29   S    
Ba2   O30   S    
C35   H6    S    
C11   C14   A    
O14   P6    S    
C32   H46   S    
O28   P4    D    
C4    O23   S    
O10   P6    S    
C12   H1    S    
C16   H15   S    
Ba1   O5    S    
Ba2   O28   S    
C23   C34   S    
C20   C21   A    
C34   H13   S    
C35   S1    S    
C24   C29   A    
O16   P3    S    
O23   P3    S    
C18   C26   A    
C38   C39   S    
C38   O9    S    
O30   P8    S    
H42   O27   S    
C26   P7    S    
O17   P3    D    
C34   H11   S    
C16   H39   S    
C38   H20   S    
C5    C40   S    
O4    P1    S    
C39   H24   S    
C11   C13   A    
C21   P3    S    
Ba1   P1    S    
C33   H2    S    
Ba1   O15   S    
O7    P7    S    
C23   O7    S    
C3    C5    D    
C7    C9    S    
Ba2   O32   S    
C6    C40   D    
C1    H8    S    
O2    P5    D    
C37   H19   S    
C36   S2    S    
O26   S3    D    
O8    P8    D    
Ba2   O29   S    
C20   C25   A    
C1    C12   S    
C31   C32   S    
C23   H9    S    
C32   H47   S    
C32   H45   S    
C31   O13   S    
C13   C17   A    
C1    H14   S    
Ba1   P2    S    
O20   S1    S    
C6    C7    S    
O19   S1    D    
O9    P8    S    
C2    C17   A    
O27   S3    S    
C30   H12   S    
C18   C27   A    
Ba2   O4    S    
C5    P4    S    
O15   P2    D    
C12   O14   S    
C29   H33   S    
C33   C35   S    
C28   S3    S    
C4    C16   S    
C36   O3    S    
O12   P2    S    
C30   H23   S    
C38   H21   S    
C35   H5    S    
Ba1   O10   S    
C30   H34   S    
C28   C30   S    
C1    H4    S    
Ba1   O29   S    
Ba1   O32   S    
O18   S1    D    
Ba1   O16   S    
C4    H25   S    
Ba2   O33   S    
C7    C8    S    
Ba2   O6    S    
Ba1   O1    S    
C2    C15   A    
O21   S2    D    
O6    P7    D    
C28   O31   S    
C9    C10   D    
C39   H22   S    
Ba1   O4    S    
O25   S3    D    
O11   P6    D    
C37   H18   S    
C9    H30   S    
C4    H36   S    
