data_mof_unit_31706.cif
_audit_creation_date              2013-03-05T15:48:43-0500
_audit_creation_method            fapswitch 2.2
_symmetry_space_group_name_H-M    P1
_symmetry_Int_Tables_number       1
_space_group_crystal_system       triclinic
_cell_length_a                    22.28436
_cell_length_b                    6.94144
_cell_length_c                    19.426045
_cell_angle_alpha                 89.997336
_cell_angle_beta                  99.267696
_cell_angle_gamma                 89.993743
_cell_volume                      2965.70407857

loop_
_atom_site_label
_atom_site_type_symbol
_atom_site_description
_atom_site_fract_x
_atom_site_fract_y
_atom_site_fract_z
_atom_type_partial_charge
O1    O     O_R   0.448420 0.506120 0.415750 -0.589912
O2    O     O_R   0.551580 0.006120 0.584250 -0.589954
O3    O     O_R   0.436490 0.174470 0.555610 -0.583777
O4    O     O_R   0.563510 0.674470 0.444390 -0.583787
C1    C     C_R   0.420983 0.344704 0.575615 0.964188
C2    C     C_R   0.579008 0.844695 0.424374 0.964284
O5    O     O_R   0.441310 0.176330 0.414520 -0.588233
O6    O     O_R   0.558690 0.676330 0.585480 -0.588244
O7    O     O_R   0.556430 0.007110 0.442150 -0.588106
O8    O     O_R   0.443570 0.507110 0.557850 -0.588055
C3    C     C_R   0.426557 0.344850 0.388530 0.953257
C4    C     C_R   0.573441 0.844817 0.611482 0.953225
O9    O     O_3   0.537770 0.339560 0.509230 -0.267788
O10   O     O_3   0.462230 0.839560 0.490770 -0.267711
V1    V     V_3+5 0.492990 0.064280 0.498290 1.196886
V2    V     V_3+5 0.507010 0.564280 0.501710 1.196903
C5    C     C_R   0.865711 0.016056 0.696296 -0.215243
C6    C     C_R   0.134166 0.514078 0.303816 -0.215121
H1    H     H_    0.881923 0.060017 0.648980 0.197062
H2    H     H_    0.117888 0.557076 0.351199 0.197111
C7    C     C_R   0.886124 0.943643 0.820008 -0.282684
C8    C     C_R   0.113887 0.443437 0.179973 -0.282756
C9    C     C_R   0.592098 0.787969 0.737810 -0.271653
C10   C     C_R   0.408035 0.289546 0.262123 -0.271868
C11   C     C_R   0.629467 0.769272 0.802567 0.416177
C12   C     C_R   0.370750 0.271757 0.197277 0.416015
C13   C     C_R   0.691680 0.812056 0.808410 -0.285829
C14   C     C_R   0.308488 0.313965 0.191451 -0.286169
C15   C     C_R   0.717685 0.873352 0.750249 0.057417
C16   C     C_R   0.282365 0.373802 0.249717 0.057418
C17   C     C_R   0.678385 0.892326 0.684551 0.097612
C18   C     C_R   0.321595 0.391971 0.315489 0.097556
C19   C     C_R   0.781534 0.914012 0.754942 0.142936
C20   C     C_R   0.218477 0.413882 0.245050 0.142923
C21   C     C_R   0.803881 0.973388 0.693917 0.079698
C22   C     C_R   0.196035 0.471986 0.306166 0.079614
C23   C     C_R   0.764502 0.990549 0.630412 -0.128447
C24   C     C_R   0.235356 0.488425 0.369737 -0.128432
C25   C     C_R   0.702915 0.950516 0.625677 -0.191843
C26   C     C_R   0.296973 0.448889 0.374452 -0.191518
C27   C     C_R   0.824121 0.899426 0.817824 -0.265208
C28   C     C_R   0.175936 0.399877 0.182117 -0.265240
C29   C     C_R   0.907219 0.002011 0.758479 0.339593
C30   C     C_R   0.092701 0.500604 0.241584 0.339234
C31   C     C_R   0.615431 0.848759 0.678881 -0.218704
C32   C     C_R   0.384586 0.348988 0.321133 -0.218575
H3    H     H_    0.810525 0.858921 0.866584 0.135535
H4    H     H_    0.189594 0.360201 0.133306 0.135509
H5    H     H_    0.544280 0.751637 0.732678 0.165079
H6    H     H_    0.455897 0.253785 0.267240 0.165113
H7    H     H_    0.718768 0.795147 0.859090 0.181215
H8    H     H_    0.281457 0.297794 0.140704 0.181322
C33   C     C_3   0.803190 0.729771 0.255107 -0.257234
C34   C     C_3   0.196640 0.229972 0.744643 -0.256739
C35   C     C_3   0.795497 0.096403 0.258368 0.047751
C36   C     C_3   0.204464 0.596596 0.741572 0.047565
C37   C     C_3   0.745984 0.080184 0.307542 0.119727
C38   C     C_3   0.253962 0.580319 0.692380 0.119717
H9    H     H_    0.776948 0.694209 0.358529 0.244436
H10   H     H_    0.222981 0.194432 0.641265 0.244306
H11   H     H_    0.849262 0.726345 0.286491 0.252219
H12   H     H_    0.150590 0.226856 0.713203 0.252272
H13   H     H_    0.781984 0.222149 0.223500 0.078244
H14   H     H_    0.218044 0.722136 0.776510 0.078590
H15   H     H_    0.712249 0.196668 0.290806 0.060402
H16   H     H_    0.287719 0.696712 0.709123 0.060529
C39   C     C_1   0.625172 0.855089 0.379555 -0.244620
C40   C     C_1   0.374792 0.355122 0.620397 -0.244638
C41   C     C_3   0.792994 0.915177 0.209610 -0.065394
C42   C     C_3   0.206879 0.415178 0.790231 -0.065833
C43   C     C_3   0.754510 0.711190 0.303677 -0.314104
C44   C     C_3   0.245372 0.211327 0.696137 -0.314080
C45   C     C_3   0.710069 0.885565 0.294747 0.090691
C46   C     C_3   0.289842 0.385598 0.705140 0.090692
C47   C     C_3   0.678738 0.884537 0.217098 -0.532935
C48   C     C_3   0.321143 0.384349 0.782799 -0.533017
C49   C     C_3   0.726845 0.908608 0.167086 0.201129
C50   C     C_3   0.273003 0.408134 0.832789 0.201427
C51   C     C_1   0.663459 0.867285 0.341653 0.083331
C52   C     C_1   0.336478 0.367327 0.658266 0.083257
C53   C     C_1   0.839005 0.929867 0.161738 0.121983
C54   C     C_1   0.160872 0.429864 0.838111 0.122562
C55   C     C_1   0.876348 0.940217 0.122602 -0.160945
C56   C     C_1   0.123570 0.440213 0.877297 -0.160450
H17   H     H_    0.652327 0.749046 0.205810 0.240665
H18   H     H_    0.347592 0.248896 0.794046 0.240732
H19   H     H_    0.801768 0.600255 0.221449 0.209443
H20   H     H_    0.197982 0.100353 0.778247 0.209601
H21   H     H_    0.728356 0.575857 0.290593 0.178289
H22   H     H_    0.271497 0.075929 0.709238 0.178490
H23   H     H_    0.645100 0.004077 0.207772 0.187694
H24   H     H_    0.354750 0.503939 0.792187 0.187635
O11   O     O_R   0.056480 0.288780 0.942210 -0.577793
O12   O     O_R   0.943520 0.788780 0.057790 -0.577941
O13   O     O_R   0.058700 0.616820 0.085490 -0.596379
O14   O     O_R   0.941300 0.116820 0.914510 -0.596393
C57   C     C_R   0.073038 0.448612 0.111887 1.033505
C58   C     C_R   0.926975 0.948646 0.888099 1.033397
O15   O     O_R   0.063520 0.618570 0.944410 -0.578600
O16   O     O_R   0.936480 0.118570 0.055590 -0.578377
O17   O     O_R   0.948420 0.787670 0.915740 -0.581955
O18   O     O_R   0.051580 0.287670 0.084260 -0.581810
C59   C     C_R   0.078613 0.449908 0.923651 0.976585
C60   C     C_R   0.921362 0.949909 0.076318 0.976613
O19   O     O_3   0.962260 0.453430 0.990800 -0.271897
O20   O     O_3   0.037740 0.953430 0.009200 -0.271870
V3    V     V_3+5 0.007000 0.728750 0.001710 1.254924
V4    V     V_3+5 0.993000 0.228750 0.998290 1.255126
N1    N     N_R   0.970279 0.048187 0.758058 0.239193
O21   O     O_R   0.013294 0.960808 0.799797 -0.372296
O22   O     O_R   0.985309 0.165531 0.711419 -0.322968
N2    N     N_R   0.029594 0.546097 0.242045 0.239214
O23   O     O_R   0.986669 0.458982 0.200105 -0.372404
O24   O     O_R   0.014437 0.662431 0.288918 -0.322448
N3    N     N_R   0.856997 0.139644 0.295491 0.282922
O25   O     O_R   0.887533 0.017418 0.338240 -0.274389
O26   O     O_R   0.882238 0.303427 0.284539 -0.323165
N4    N     N_R   0.142981 0.640285 0.704483 0.282925
O27   O     O_R   0.112363 0.518321 0.661708 -0.274237
O28   O     O_R   0.117818 0.804143 0.715532 -0.323742
N5    N     N_R   0.769804 0.116685 0.381542 0.269996
O29   O     O_R   0.755529 0.276007 0.410287 -0.392192
O30   O     O_R   0.801953 0.989052 0.420292 -0.334730
N6    N     N_R   0.230137 0.616937 0.618387 0.269977
O31   O     O_R   0.244474 0.776176 0.589639 -0.392211
O32   O     O_R   0.197907 0.489486 0.579649 -0.334960
N7    N     N_R   0.719868 0.759467 0.112703 0.268418
O33   O     O_R   0.715150 0.578065 0.127957 -0.391490
O34   O     O_R   0.715987 0.809673 0.047623 -0.328112
N8    N     N_R   0.279868 0.258504 0.886999 0.268531
O35   O     O_R   0.284799 0.077291 0.871594 -0.391961
O36   O     O_R   0.283163 0.308036 0.952080 -0.328649
H25   H     H_    0.717956 0.050322 0.140345 0.113830
H26   H     H_    0.281923 0.549598 0.859693 0.113834
H27   H     H_    0.781523 0.035507 0.583698 0.188295
H28   H     H_    0.218262 0.532395 0.416520 0.188384
N9    N     N_R   0.604325 0.703250 0.862255 0.251711
O37   O     O_R   0.546018 0.677134 0.858224 -0.352016
O38   O     O_R   0.639522 0.664998 0.920831 -0.297343
N10   N     N_R   0.396049 0.207427 0.137471 0.251573
O39   O     O_R   0.454324 0.180106 0.141733 -0.352341
O40   O     O_R   0.361042 0.172450 0.078481 -0.296832
H29   H     H_    0.674571 0.965693 0.575192 0.125779
H30   H     H_    0.325269 0.463450 0.424993 0.125352

loop_
_geom_bond_atom_site_label_1
_geom_bond_atom_site_label_2
_geom_bond_distance
_ccdc_geom_bond_type
C40   C52   1.216396 T    
O15   C59   1.300021 A    
O17   V3    1.989493 S    
C9    C31   1.396647 A    
C13   C15   1.415741 A    
C41   C49   1.570100 S    
C20   C28   1.424613 A    
O2    C4    1.299098 A    
O11   C59   1.296741 A    
C2    O7    1.303570 A    
N2    O24   1.301682 A    
C35   N3    1.473151 S    
C12   C14   1.404660 A    
O5    C3    1.295285 A    
N9    O38   1.301142 A    
C38   H16   1.116138 S    
C46   C48   1.556774 S    
C5    C21   1.402813 A    
C21   C23   1.399091 A    
C48   C50   1.567388 S    
C12   N10   1.441510 S    
N1    O22   1.301627 A    
O11   V4    1.964190 S    
C9    H5    1.083906 S    
C42   C50   1.569965 S    
O20   V3    1.700275 S    
H10   C44   1.108006 S    
N3    O25   1.300118 A    
C15   C19   1.438995 A    
O16   C60   1.300012 A    
C37   C45   1.569567 S    
N4    O27   1.300128 A    
C19   C21   1.418933 A    
C7    C29   1.412367 A    
C33   H11   1.106665 S    
C47   H17   1.112467 S    
C8    C30   1.412381 A    
C36   C38   1.575491 S    
C14   C16   1.415902 A    
N3    O26   1.301096 A    
O14   C58   1.294323 A    
C36   H14   1.116053 S    
O18   V4    1.989585 S    
C24   H28   1.084316 S    
C16   C18   1.432804 A    
C20   C22   1.419001 A    
C57   O18   1.297022 A    
C49   N7    1.469428 S    
C47   H23   1.113270 S    
O19   V3    2.150277 S    
O5    V1    1.993861 S    
O14   V4    1.994032 S    
O12   C60   1.296726 A    
O6    V2    1.994019 S    
C8    C57   1.480367 S    
C46   C52   1.493348 S    
C45   C47   1.556801 S    
C49   H25   1.115127 S    
C1    C40   1.452582 S    
N2    O23   1.301379 A    
C53   C55   1.216305 T    
C13   H7    1.075160 S    
C10   H6    1.083911 S    
O19   V4    1.700125 S    
O12   V3    1.964148 S    
O16   V4    1.965203 S    
C55   C60   1.452472 S    
C16   C20   1.439052 A    
C39   C51   1.216394 T    
N10   O39   1.301743 A    
C44   C46   1.555780 S    
C43   C45   1.555749 S    
C4    C31   1.481897 S    
C34   H12   1.106661 S    
O3    C1    1.307666 A    
C33   C41   1.556999 S    
C11   N9    1.441398 S    
C35   H13   1.116048 S    
O4    V2    1.965165 S    
N8    O36   1.300803 A    
N7    O34   1.300766 A    
C6    C30   1.401533 A    
C44   H22   1.113191 S    
C34   C42   1.556980 S    
O6    C4    1.295249 A    
C23   H27   1.084261 S    
C27   H3    1.077246 S    
C33   H19   1.109119 S    
O1    V2    1.988480 S    
C28   H4    1.077281 S    
O2    V1    1.988392 S    
C47   C49   1.567358 S    
N5    O29   1.301249 A    
C35   C41   1.570301 S    
O13   V3    1.993875 S    
C43   H21   1.113188 S    
C48   H24   1.113276 S    
C7    C27   1.409358 A    
C30   N2    1.442713 S    
O4    C2    1.307658 A    
C2    C39   1.452579 S    
C25   H29   1.082744 S    
C54   C56   1.216303 T    
O9    V1    2.150445 S    
O10   V2    2.150234 S    
N7    O33   1.301706 A    
C33   C43   1.553515 S    
C48   H18   1.112455 S    
O3    V1    1.965097 S    
C38   C46   1.569573 S    
N6    O32   1.300369 A    
C18   C32   1.421885 A    
C10   C12   1.398338 A    
C37   H15   1.116135 S    
C38   N6    1.471977 S    
C45   C51   1.493346 S    
O13   C57   1.294390 A    
N10   O40   1.301103 A    
C11   C13   1.404472 A    
C58   O17   1.297100 A    
O15   V3    1.965135 S    
N9    O37   1.301740 A    
C36   C42   1.570260 S    
C26   H30   1.082779 S    
C19   C27   1.424667 A    
C34   H20   1.109153 S    
C35   C37   1.575470 S    
N8    O35   1.301724 A    
C50   N8    1.469404 S    
C10   C32   1.396536 A    
C1    O8    1.303589 A    
C23   C25   1.388749 A    
O8    V2    1.960133 S    
N1    O21   1.301403 A    
C24   C26   1.388707 A    
C7    C58   1.480450 S    
C14   H8    1.075178 S    
C8    C28   1.409401 A    
O20   V4    2.150066 S    
C22   C24   1.399062 A    
C5    H1    1.084177 S    
C17   C25   1.404056 A    
C6    H2    1.084214 S    
C18   C26   1.404116 A    
O7    V1    1.960094 S    
C42   C54   1.494574 S    
N4    O28   1.301096 A    
N5    O30   1.300358 A    
C41   C53   1.494551 S    
C37   N5    1.471979 S    
C50   H26   1.115133 S    
C36   N4    1.473158 S    
C9    C11   1.398339 A    
C34   C44   1.553556 S    
C15   C17   1.432851 A    
C17   C31   1.421979 A    
O9    V2    1.700566 S    
C5    C29   1.401546 A    
C56   C59   1.452472 S    
O10   V1    1.700716 S    
C3    C32   1.481670 S    
O1    C3    1.298969 A    
C29   N1    1.442695 S    
C6    C22   1.402819 A    
H9    C43   1.108001 S    
N6    O31   1.301248 A    
