data_mof_unit_61583.cif
_audit_creation_date              2012-12-10T16:42:40-0500
_audit_creation_method            fapswitch 2.2
_symmetry_space_group_name_H-M    P1
_symmetry_Int_Tables_number       1
_space_group_crystal_system       triclinic
_cell_length_a                    19.093527
_cell_length_b                    18.986247
_cell_length_c                    18.915549
_cell_angle_alpha                 109.20858
_cell_angle_beta                  109.71656
_cell_angle_gamma                 109.693029
_cell_volume                      5265.18012376

loop_
_atom_site_label
_atom_site_type_symbol
_atom_type_description
_atom_site_fract_x
_atom_site_fract_y
_atom_site_fract_z
_atom_type_partial_charge
C1    C     C_R   0.384482 0.382668 0.502144 0.837398
C2    C     C_R   0.757350 0.580332 0.756284 0.073865
C3    C     C_R   0.812566 0.500462 0.812738 -0.176623
C4    C     C_R   0.742799 0.421068 0.738749 0.071673
C5    C     C_R   0.674484 0.421126 0.679097 0.073486
C6    C     C_R   0.684066 0.500762 0.685707 -0.180907
C7    C     C_R   0.739059 0.341047 0.722735 -0.140628
C8    C     C_R   0.665378 0.263157 0.655277 -0.139320
C9    C     C_R   0.594169 0.263105 0.602582 -0.140941
C10   C     C_R   0.598248 0.340985 0.614056 -0.138122
C11   C     C_2   0.256504 0.182120 0.506062 -0.149031
C12   C     C_R   0.618010 0.500456 0.618370 0.787181
C13   C     C_2   0.180522 0.177026 0.490296 -0.307706
C14   C     C_2   0.317362 0.242819 0.494030 -0.155688
C15   C     C_2   0.322279 0.318779 0.508479 -0.304921
C16   C     C_2   0.178670 0.422149 0.174043 0.003811
C17   C     C_2   0.183653 0.494993 0.174601 -0.361671
C18   C     C_2   0.253475 0.425608 0.236722 -0.192705
C19   C     C_2   0.308620 0.494546 0.316505 -0.331200
C20   C     C_2   0.743326 0.749110 0.425522 -0.155078
C21   C     C_2   0.819442 0.810381 0.497116 -0.311153
C22   C     C_2   0.682694 0.676284 0.425621 -0.149066
C23   C     C_R   0.615703 0.617806 0.498512 0.839425
C24   C     C_2   0.677919 0.686593 0.497096 -0.314569
C25   C     C_R   0.995922 0.382630 0.878235 0.836330
C26   C     C_R   0.878991 0.500107 0.878875 0.791235
C27   C     C_R   0.001451 0.617534 0.118101 0.843626
C28   C     C_R   0.115086 0.497642 0.112538 0.843596
C29   C     C_R   0.997845 0.115381 0.617327 0.845616
C30   C     C_R   0.117052 0.115384 0.497559 0.848321
C31   C     C_R   0.998082 0.880749 0.382267 0.792763
C32   C     C_R   0.882923 0.880686 0.498500 0.839476
C33   C     C_2   0.924758 0.181295 0.675280 -0.151515
C34   C     C_R   0.379961 0.497987 0.381578 0.859621
C35   C     C_2   0.996042 0.176954 0.686272 -0.309235
C36   C     C_2   0.924233 0.241992 0.747601 -0.153683
C37   C     C_2   0.995014 0.318644 0.808859 -0.300780
C38   C     C_2   0.002593 0.747891 0.320564 -0.214373
C39   C     C_2   0.988839 0.810195 0.310997 -0.164237
C40   C     C_2   0.988487 0.673467 0.247571 -0.163589
C41   C     C_2   0.015942 0.686307 0.194173 -0.294040
C42   C     C_R   0.771941 0.660718 0.761510 -0.160222
C43   C     C_R   0.838738 0.738395 0.836026 -0.182566
C44   C     C_R   0.892581 0.737975 0.906824 0.035118
C45   C     C_R   0.882566 0.659624 0.901003 -0.173647
C46   C     C_R   0.817935 0.579988 0.823859 0.055051
Cu1   Cu    Cu3+1 0.500390 0.438990 0.439360 0.955645
Cu2   Cu    Cu3+1 0.499610 0.561010 0.560640 0.957176
Cu3   Cu    Cu3+1 0.935830 0.439030 0.996840 0.971993
Cu4   Cu    Cu3+1 0.057850 0.561040 0.996790 0.960426
Cu5   Cu    Cu3+1 0.061410 0.000010 0.561410 0.959092
Cu6   Cu    Cu3+1 0.938590 0.999990 0.438590 0.970817
H1    H     H_    0.535929 0.202538 0.551821 0.131980
H2    H     H_    0.160464 0.214003 0.463545 0.157332
H3    H     H_    0.361655 0.226998 0.478081 0.154832
H4    H     H_    0.284813 0.338727 0.533838 0.155873
H5    H     H_    0.244532 0.555480 0.217507 0.151222
H6    H     H_    0.260528 0.368873 0.218719 0.172055
H7    H     H_    0.297193 0.547982 0.337917 0.157287
H8    H     H_    0.727177 0.749615 0.364918 0.165355
H9    H     H_    0.839671 0.804713 0.555006 0.155433
H10   H     H_    0.638423 0.615268 0.365185 0.164689
H11   H     H_    0.732805 0.665057 0.708323 0.154138
H12   H     H_    0.715380 0.750007 0.554759 0.152586
H13   H     H_    0.864797 0.136896 0.613795 0.162935
H14   H     H_    0.053332 0.214590 0.750126 0.157087
H15   H     H_    0.863850 0.225659 0.747377 0.154984
H16   H     H_    0.052653 0.338956 0.803734 0.154923
H17   H     H_    0.019959 0.748932 0.381967 0.166521
H18   H     H_    0.957481 0.609406 0.239174 0.172303
H19   H     H_    0.055455 0.751821 0.209538 0.165521
H20   H     H_    0.847522 0.798873 0.838763 0.143028
H21   H     H_    0.925247 0.662082 0.957737 0.154096
H22   H     H_    0.792771 0.337339 0.761348 0.138397
H23   H     H_    0.663123 0.202642 0.644766 0.131967
H24   H     H_    0.540668 0.337164 0.571866 0.140111
H25   H     H_    0.272516 0.138326 0.523636 0.162750
O1    O     O_R   0.411310 0.359450 0.448800 -0.586897
O2    O     O_R   0.048900 0.462510 0.908320 -0.585881
O3    O     O_R   0.855710 0.448510 0.907250 -0.586647
O4    O     O_R   0.958760 0.551540 0.907200 -0.586809
O5    O     O_R   0.944780 0.537560 0.085320 -0.578666
O6    O     O_R   0.047820 0.640590 0.085270 -0.594393
O7    O     O_R   0.034920 0.448530 0.086440 -0.571204
O8    O     O_R   0.137970 0.551560 0.086390 -0.587070
O9    O     O_R   0.051300 0.089020 0.640330 -0.584677
O10   O     O_R   0.947570 0.089010 0.536620 -0.580113
O11   O     O_R   0.140880 0.089030 0.551840 -0.580273
O12   O     O_R   0.410660 0.462490 0.551220 -0.583065
O13   O     O_R   0.037150 0.089020 0.448130 -0.581334
O14   O     O_R   0.052430 0.910990 0.463380 -0.586391
O15   O     O_R   0.948700 0.910980 0.359670 -0.580874
O16   O     O_R   0.962850 0.910980 0.551870 -0.587693
O17   O     O_R   0.859120 0.910970 0.448160 -0.582916
O18   O     O_R   0.589930 0.448490 0.538390 -0.587212
O19   O     O_R   0.589280 0.551530 0.640800 -0.586390
O20   O     O_R   0.589340 0.537510 0.448780 -0.576345
O21   O     O_R   0.588690 0.640550 0.551200 -0.593961
O22   O     O_R   0.410720 0.448470 0.359200 -0.581849
O23   O     O_R   0.410070 0.551510 0.461610 -0.586678
O24   O     O_R   0.945860 0.359480 0.908360 -0.580572
C47   C     C_1   0.103780 0.338063 0.108486 0.282087
N1    N     N_1   0.043918 0.270784 0.056023 -0.274991
C48   C     C_1   0.949534 0.802588 0.226101 0.293273
N2    N     N_1   0.918212 0.796686 0.158747 -0.276015
C49   C     C_1   0.959356 0.818178 0.985273 0.245562
N3    N     N_1   0.013009 0.882586 0.048345 -0.264934

loop_
_geom_bond_atom_site_label_1
_geom_bond_atom_site_label_2
_ccdc_geom_bond_type
C32   O17   A    
C43   H20   S    
C28   O7    A    
Cu6   O13   S    
C30   O13   A    
Cu4   O2    S    
C36   H15   S    
C33   H13   S    
C7    C8    A    
C45   C46   A    
C2    C46   A    
C40   H18   S    
Cu3   O7    S    
C36   C37   D    
C6    C12   S    
C5    C6    A    
C11   C14   S    
C49   N3    T    
C37   H16   S    
C33   C36   S    
Cu1   O22   S    
C45   H21   S    
C18   C19   D    
C11   H25   S    
Cu4   O8    S    
Cu5   O14   S    
C10   H24   S    
C18   H6    S    
C8    C9    A    
C34   O23   A    
C23   C24   S    
C12   O18   A    
Cu6   O17   S    
C1    C15   S    
Cu3   O24   S    
C20   H8    S    
C9    C10   A    
C21   H9    S    
C41   H19   S    
C25   C37   S    
C32   O16   A    
C38   H17   S    
C24   H12   S    
C1    O1    A    
C2    C6    A    
C4    C7    A    
Cu5   O9    S    
C48   N2    T    
Cu4   O6    S    
C7    H22   S    
Cu6   O10   S    
Cu2   O23   S    
C21   C32   S    
Cu5   Cu6   S    
C13   C30   S    
C39   C48   S    
C16   C17   D    
C35   H14   S    
C19   H7    S    
C8    H23   S    
C26   O3    A    
Cu3   O5    S    
C43   C44   A    
C22   H10   S    
C27   C41   S    
Cu1   Cu2   S    
C34   O22   A    
C29   O9    A    
Cu5   O16   S    
C16   C47   S    
C40   C41   D    
C23   O20   A    
C20   C22   S    
C31   O15   A    
C26   O4    A    
C31   O14   A    
Cu2   O12   S    
C22   C24   D    
Cu6   O15   S    
C9    H1    S    
C42   C43   A    
C30   O11   A    
C3    C4    A    
C44   C45   A    
C13   H2    S    
C1    O12   A    
Cu2   O19   S    
C25   O2    A    
C17   C28   S    
C27   O5    A    
C3    C26   S    
C4    C5    A    
C19   C34   S    
Cu5   O11   S    
C44   C49   S    
Cu2   O21   S    
C29   C35   S    
C3    C46   A    
Cu1   O20   S    
Cu3   O3    S    
C15   H4    S    
C27   O6    A    
C5    C10   A    
C38   C40   S    
C11   C13   D    
C25   O24   A    
C38   C39   D    
C2    C42   A    
C33   C35   D    
C31   C39   S    
C14   H3    S    
C47   N1    T    
C29   O10   A    
C23   O21   A    
C20   C21   D    
C16   C18   S    
Cu3   Cu4   S    
C28   O8    A    
Cu1   O18   S    
C14   C15   D    
C12   O19   A    
Cu1   O1    S    
C42   H11   S    
Cu4   O4    S    
C17   H5    S    
