data_mof_unit_47478.cif
_audit_creation_date              2012-12-11T15:18:39-0500
_audit_creation_method            fapswitch 2.2
_symmetry_space_group_name_H-M    P1
_symmetry_Int_Tables_number       1
_space_group_crystal_system       triclinic
_cell_length_a                    6.94497
_cell_length_b                    19.921984
_cell_length_c                    23.780739
_cell_angle_alpha                 93.581791
_cell_angle_beta                  91.278657
_cell_angle_gamma                 88.58369
_cell_volume                      3282.10381507

loop_
_atom_site_label
_atom_site_type_symbol
_atom_type_description
_atom_site_fract_x
_atom_site_fract_y
_atom_site_fract_z
_atom_type_partial_charge
O1    O     O_R   0.620100 0.812200 0.810870 -0.536110
O2    O     O_R   0.379900 0.187800 0.189130 -0.536110
O3    O     O_R   0.296960 0.671650 0.794750 -0.540764
O4    O     O_R   0.703040 0.328350 0.205250 -0.540764
O5    O     O_R   0.120160 0.687800 0.689130 -0.544260
O6    O     O_R   0.879840 0.312200 0.310870 -0.544260
C1    C     C_R   0.468704 0.647025 0.804567 0.686540
C2    C     C_R   0.531296 0.352975 0.195433 0.686540
O7    O     O_R   0.290810 0.810670 0.817290 -0.541391
O8    O     O_R   0.709190 0.189330 0.182710 -0.541391
O9    O     O_R   0.113980 0.827820 0.711840 -0.535045
O10   O     O_R   0.886020 0.172180 0.288160 -0.535045
C3    C     C_R   0.459498 0.832023 0.834160 0.734155
C4    C     C_R   0.540502 0.167977 0.165840 0.734154
O11   O     O_R   0.626290 0.672180 0.788160 -0.539692
O12   O     O_R   0.373710 0.327820 0.211840 -0.539691
O13   O     O_3   0.451520 0.755460 0.715370 -0.371754
O14   O     O_3   0.548480 0.244540 0.284630 -0.371753
V1    V     V_3+5 0.179200 0.748980 0.756420 1.443529
V2    V     V_3+5 0.820800 0.251020 0.243580 1.443529
O15   O     O_R   0.783880 0.828350 0.705250 -0.529551
O16   O     O_R   0.216120 0.171650 0.294750 -0.529550
C5    C     C_R   0.949850 0.852637 0.694780 0.819317
C6    C     C_R   0.050150 0.147363 0.305220 0.819317
O17   O     O_R   0.790030 0.689320 0.682700 -0.547455
O18   O     O_R   0.209970 0.310680 0.317300 -0.547455
C7    C     C_R   0.958976 0.668207 0.665655 0.693970
C8    C     C_R   0.041024 0.331793 0.334344 0.693970
V3    V     V_3+5 0.678400 0.751010 0.743570 1.455635
V4    V     V_3+5 0.321600 0.248990 0.256430 1.455635
O19   O     O_3   0.955950 0.744540 0.784620 -0.372985
O20   O     O_3   0.044050 0.255460 0.215380 -0.372985
C9    C     C_R   0.181340 0.425832 0.396387 -0.211498
C10   C     C_R   0.818660 0.574168 0.603613 -0.211498
C11   C     C_R   0.030873 0.380815 0.383967 -0.076460
C12   C     C_R   0.969127 0.619184 0.616032 -0.076460
C13   C     C_R   0.868441 0.383722 0.418556 -0.209453
C14   C     C_R   0.131559 0.616278 0.581444 -0.209453
C15   C     C_R   0.856279 0.430432 0.465204 0.089620
C16   C     C_R   0.143721 0.569568 0.534796 0.089620
C17   C     C_R   0.006348 0.476060 0.476816 0.057688
C18   C     C_R   0.993652 0.523940 0.523184 0.057688
C19   C     C_R   0.168940 0.473959 0.442091 0.090022
C20   C     C_R   0.831060 0.526041 0.557909 0.090022
C21   C     C_R   0.696557 0.432387 0.500476 -0.170178
C22   C     C_R   0.303443 0.567613 0.499524 -0.170178
C23   C     C_R   0.684243 0.479663 0.546445 -0.170721
C24   C     C_R   0.315757 0.520337 0.453555 -0.170721
H1    H     H_    0.306299 0.424342 0.369760 0.120786
H2    H     H_    0.693701 0.575658 0.630239 0.120786
H3    H     H_    0.752193 0.349075 0.409511 0.127641
H4    H     H_    0.247807 0.650925 0.590489 0.127641
H5    H     H_    0.580270 0.397593 0.492302 0.141471
H6    H     H_    0.419729 0.602407 0.507698 0.141471
H7    H     H_    0.558944 0.480233 0.572836 0.139687
H8    H     H_    0.441056 0.519767 0.427163 0.139687
C25   C     C_R   0.948327 0.914454 0.663491 -0.262626
C26   C     C_R   0.051673 0.085546 0.336509 -0.262626
C27   C     C_R   0.872242 0.033419 0.660923 0.644960
C28   C     C_R   0.127758 0.966581 0.339077 0.644961
C29   C     C_R   0.888085 0.975289 0.690498 0.518122
C30   C     C_R   0.111915 0.024711 0.309501 0.518122
C31   C     C_R   0.992351 0.911991 0.605962 -0.274587
C32   C     C_R   0.007649 0.088009 0.394038 -0.274587
C33   C     C_R   0.974145 0.970340 0.574099 -0.011881
C34   C     C_R   0.025855 0.029660 0.425901 -0.011881
C35   C     C_R   0.913204 0.031679 0.602931 -0.241497
C36   C     C_R   0.086796 0.968321 0.397068 -0.241498
C37   C     C_R   0.011815 0.969748 0.514723 0.023350
C38   C     C_R   0.988185 0.030252 0.485277 0.023350
C39   C     C_R   0.928249 0.089458 0.516214 -0.251412
C40   C     C_R   0.071751 0.910542 0.483786 -0.251412
C41   C     C_R   0.892060 0.090295 0.573441 0.706509
C42   C     C_R   0.107940 0.909705 0.426559 0.706509
H9    H     H_    0.964429 0.136560 0.412612 0.140047
H10   H     H_    0.035571 0.863440 0.587387 0.140047
H11   H     H_    0.906958 0.136844 0.497362 0.151052
H12   H     H_    0.093042 0.863156 0.502638 0.151052
C43   C     C_R   0.489667 0.585618 0.835792 -0.045350
C44   C     C_R   0.510333 0.414382 0.164208 -0.045350
C45   C     C_R   0.603730 0.470204 0.838007 -0.144268
C46   C     C_R   0.396269 0.529795 0.161993 -0.144268
C47   C     C_R   0.564583 0.527087 0.808296 -0.160210
C48   C     C_R   0.435417 0.472913 0.191704 -0.160210
C49   C     C_R   0.454722 0.587064 0.893852 -0.213236
C50   C     C_R   0.545278 0.412936 0.106148 -0.213236
C51   C     C_R   0.498506 0.530090 0.925656 0.086735
C52   C     C_R   0.501494 0.469910 0.074343 0.086735
C53   C     C_R   0.573370 0.471321 0.896196 0.128831
C54   C     C_R   0.426630 0.528679 0.103804 0.128831
C55   C     C_R   0.474417 0.529629 0.985493 0.056892
C56   C     C_R   0.525583 0.470371 0.014507 0.056892
C57   C     C_R   0.598180 0.413511 0.982683 -0.183721
C58   C     C_R   0.401820 0.586489 0.017317 -0.183721
C59   C     C_R   0.620830 0.414135 0.924909 -0.184564
C60   C     C_R   0.379170 0.585865 0.075091 -0.184564
H13   H     H_    0.678061 0.369234 0.902435 0.141201
H14   H     H_    0.321939 0.630766 0.097565 0.141201
H15   H     H_    0.599796 0.366019 0.087085 0.096444
H16   H     H_    0.400204 0.633981 0.912915 0.096444
H17   H     H_    0.405397 0.474302 0.236295 0.112199
H18   H     H_    0.594603 0.525698 0.763705 0.112199
H19   H     H_    0.661845 0.425461 0.815551 0.135704
H20   H     H_    0.338155 0.574539 0.184449 0.135704
H21   H     H_    0.640105 0.367274 0.001155 0.126946
H22   H     H_    0.359895 0.632726 0.998845 0.126946
C61   C     C_R   0.367769 0.077192 0.108482 -0.165899
C62   C     C_R   0.632231 0.922808 0.891517 -0.165899
C63   C     C_R   0.529386 0.118379 0.116595 -0.089184
C64   C     C_R   0.470614 0.881621 0.883405 -0.089184
C65   C     C_R   0.679384 0.111662 0.077613 -0.211764
C66   C     C_R   0.320616 0.888338 0.922387 -0.211764
C67   C     C_R   0.667699 0.065149 0.030775 0.092631
C68   C     C_R   0.332301 0.934851 0.969225 0.092631
C69   C     C_R   0.505924 0.023701 0.023345 0.057741
C70   C     C_R   0.494076 0.976299 0.976655 0.057741
C71   C     C_R   0.355945 0.029576 0.062517 0.077651
C72   C     C_R   0.644055 0.970424 0.937483 0.077651
C73   C     C_R   0.814765 0.059395 0.991105 -0.182087
C74   C     C_R   0.185235 0.940604 0.008895 -0.182087
C75   C     C_R   0.803159 0.012426 0.944919 -0.151909
C76   C     C_R   0.196841 0.987574 0.055080 -0.151909
H23   H     H_    0.251959 0.081518 0.138424 0.167828
H24   H     H_    0.748041 0.918482 0.861576 0.167828
H25   H     H_    0.804114 0.143239 0.083290 0.125860
H26   H     H_    0.195886 0.856761 0.916710 0.125860
H27   H     H_    0.939631 0.090962 0.995980 0.137919
H28   H     H_    0.060368 0.909038 0.004020 0.137919
H29   H     H_    0.919432 0.008690 0.915160 0.159343
H30   H     H_    0.080568 0.991310 0.084840 0.159343
F1    F     F_    0.834405 0.149644 0.599771 -0.601187
F2    F     F_    0.165595 0.850356 0.400229 -0.601187
F3    F     F_    0.156775 0.021725 0.254073 -0.655687
F4    F     F_    0.843225 0.978275 0.745927 -0.655687
F5    F     F_    0.813464 0.091299 0.689350 -0.559638
F6    F     F_    0.186536 0.908701 0.310650 -0.559638

loop_
_geom_bond_atom_site_label_1
_geom_bond_atom_site_label_2
_ccdc_geom_bond_type
C26   C30   A    
C4    C63   S    
C34   C36   A    
C41   F1    S    
C47   H18   S    
C42   F2    S    
O13   V3    S    
C17   C18   A    
C61   H23   S    
C44   C48   A    
V1    O19   S    
C31   C33   A    
C15   C17   A    
C16   C22   A    
O9    V1    S    
C30   F3    S    
C23   H7    S    
C11   C13   A    
O3    C1    A    
C63   C65   A    
V2    O20   S    
C74   H28   S    
C13   H3    S    
C50   C52   A    
C14   H4    S    
C31   H10   S    
C36   C42   A    
C69   C70   A    
C28   C30   A    
C21   C23   A    
C27   F5    S    
C25   C29   A    
O7    C3    A    
C40   H12   S    
C57   H21   S    
C67   C73   A    
O7    V1    S    
O6    C8    A    
C52   C56   A    
C8    C11   S    
O8    V2    S    
C69   C71   A    
C60   H14   S    
C65   H25   S    
C44   C50   A    
O3    V1    S    
C38   C39   A    
C35   C41   A    
V4    O20   S    
C19   C24   A    
C28   F6    S    
C66   H26   S    
C20   C23   A    
O4    C2    A    
C15   C21   A    
C27   C35   A    
C49   C51   A    
C21   H5    S    
C2    O12   A    
O5    C7    A    
C26   C32   A    
C48   H17   S    
C61   C63   A    
C22   H6    S    
C18   C20   A    
C62   H24   S    
C66   C68   A    
C45   C47   A    
C74   C76   A    
C29   F4    S    
O11   V3    S    
C73   C75   A    
O17   V3    S    
C22   C24   A    
C27   C29   A    
C10   H2    S    
C51   C55   A    
C9    C19   A    
C62   C72   A    
C10   C20   A    
C40   C42   A    
O8    C4    A    
C55   C56   A    
C39   C41   A    
O13   V1    S    
C1    O11   A    
C33   C35   A    
O15   V3    S    
C72   C75   A    
C32   C34   A    
C53   C59   A    
C37   C40   A    
C71   C76   A    
C3    C64   S    
V3    O19   S    
O10   V2    S    
C5    C25   S    
O1    V3    S    
C65   C67   A    
C32   H9    S    
C58   C60   A    
C50   H15   S    
C28   C36   A    
C70   C72   A    
O14   V4    S    
C6    C26   S    
C52   C54   A    
O18   V4    S    
C46   C48   A    
O15   C5    A    
O16   C6    A    
O1    C3    A    
O12   V4    S    
C39   H11   S    
C1    C43   S    
C45   H19   S    
C24   H8    S    
C58   H22   S    
O16   V4    S    
C17   C19   A    
C25   C31   A    
C75   H29   S    
C16   C18   A    
C68   C70   A    
C59   H13   S    
C54   C60   A    
O5    V1    S    
O4    V2    S    
C7    C12   S    
O17   C7    A    
C76   H30   S    
O6    V2    S    
O10   C6    A    
O18   C8    A    
C46   C54   A    
O2    V4    S    
C12   C14   A    
C45   C53   A    
C13   C15   A    
C49   H16   S    
C55   C58   A    
C14   C16   A    
C34   C38   A    
C33   C37   A    
O9    C5    A    
C56   C57   A    
C9    C11   A    
C43   C49   A    
C62   C64   A    
O14   V2    S    
C37   C38   A    
O2    C4    A    
C64   C66   A    
C43   C47   A    
C10   C12   A    
C57   C59   A    
C2    C44   S    
C51   C53   A    
C46   H20   S    
C9    H1    S    
C61   C71   A    
C68   C74   A    
C67   C69   A    
C73   H27   S    
