data_mof_unit_35749.cif
_audit_creation_date              2012-10-26T21:12:35-0400
_audit_creation_method            fapswitch 2.2
_symmetry_space_group_name_H-M    P1
_symmetry_Int_Tables_number       1
_space_group_crystal_system       triclinic
_cell_length_a                    23.498575
_cell_length_b                    10.752042
_cell_length_c                    9.637559
_cell_angle_alpha                 89.03573
_cell_angle_beta                  90.531302
_cell_angle_gamma                 93.329431
_cell_volume                      2430.46496389

loop_
_atom_site_label
_atom_site_type_symbol
_atom_type_description
_atom_site_fract_x
_atom_site_fract_y
_atom_site_fract_z
_atom_type_partial_charge
C1    C     C_R   0.497908 0.262670 0.500899 0.533353
C2    C     C_R   0.121427 0.599107 0.468943 0.402364
C3    C     C_R   0.239448 0.515877 0.370532 -0.072592
C4    C     C_R   0.391072 0.499520 0.499392 0.529218
C5    C     C_R   0.298838 0.518696 0.372492 -0.166255
C6    C     C_R   0.328435 0.498546 0.497585 -0.006446
C7    C     C_R   0.297583 0.475990 0.620551 -0.147526
C8    C     C_R   0.238198 0.472877 0.618206 -0.060297
C9    C     C_R   0.208950 0.492737 0.493285 0.238976
C10   C     C_R   0.759858 0.471882 0.377568 -0.072522
C11   C     C_R   0.700699 0.475215 0.377101 -0.159401
C12   C     C_R   0.965705 0.261344 0.541013 -0.119283
C13   C     C_R   0.671289 0.488537 0.501833 -0.020414
C14   C     C_R   0.702060 0.493901 0.627517 -0.160287
C15   C     C_R   0.761436 0.490611 0.628347 0.034345
C16   C     C_R   0.498102 0.736922 0.499133 0.540796
C17   C     C_R   0.790487 0.480449 0.502514 0.232203
C18   C     C_R   0.404552 0.120367 0.363163 -0.072669
C19   C     C_R   0.360611 0.051444 0.294882 0.152318
C20   C     C_R   0.362265 0.921809 0.289853 -0.101133
C21   C     C_R   0.406204 0.861274 0.355590 -0.132697
C22   C     C_R   0.450496 0.929510 0.426000 0.012278
C23   C     C_R   0.025123 0.263076 0.539122 -0.122341
C24   C     C_R   0.449852 0.060729 0.429020 -0.005818
C25   C     C_R   0.493605 0.128317 0.502485 0.004877
C26   C     C_R   0.534777 0.067290 0.578082 -0.139896
C27   C     C_R   0.535011 0.939172 0.576510 -0.154024
C28   C     C_R   0.608848 0.496628 0.500600 0.550555
C29   C     C_R   0.494455 0.870441 0.498151 0.006924
C30   C     C_R   0.592463 0.634530 0.135394 0.175525
C31   C     C_R   0.642284 0.657060 0.056943 -0.137291
C32   C     C_R   0.637587 0.668324 0.915117 -0.205702
C33   C     C_R   0.586026 0.636602 0.851781 -0.099049
C34   C     C_R   0.057546 0.375278 0.515560 0.031204
C35   C     C_R   0.542867 0.566651 0.923637 0.132862
C36   C     C_R   0.544244 0.566078 0.072874 0.155960
C37   C     C_R   0.458897 0.436605 0.074166 -0.010168
C38   C     C_R   0.459103 0.436116 0.926655 -0.000111
C39   C     C_R   0.881985 0.592092 0.475940 0.408911
C40   C     C_R   0.877790 0.372501 0.521253 0.412521
C41   C     C_R   0.937476 0.371764 0.519320 0.032002
C42   C     C_R   0.969574 0.484729 0.495096 -0.026503
C43   C     C_R   0.941723 0.596019 0.473010 0.033377
C44   C     C_1   0.792103 0.499388 0.758486 0.232500
C45   C     C_R   0.029666 0.486468 0.493176 -0.027494
C46   C     C_3   0.278656 0.175017 0.322931 -0.275075
C47   C     C_3   0.632219 0.779927 0.315385 -0.287066
C48   C     C_R   0.061740 0.599461 0.469195 0.029476
C49   C     C_R   0.033513 0.709825 0.447014 -0.122001
C50   C     C_R   0.974117 0.708119 0.448893 -0.119199
C51   C     C_R   0.117335 0.379466 0.513982 0.396985
Cu1   Cu    Cu3+1 0.500000 0.499990 0.640660 0.932488
Cu2   Cu    Cu3+1 0.500000 0.500010 0.359340 0.947593
H1    H     H_    0.942012 0.173312 0.559690 0.171439
H2    H     H_    0.045528 0.176316 0.556442 0.167548
H3    H     H_    0.681628 0.694039 0.103470 0.136422
H4    H     H_    0.672659 0.710475 0.855323 0.134378
H5    H     H_    0.581954 0.667970 0.746961 0.181983
H6    H     H_    0.425572 0.383190 0.872242 0.118288
H7    H     H_    0.057193 0.797883 0.428391 0.168537
H8    H     H_    0.953715 0.794891 0.431621 0.169036
H9    H     H_    0.217050 0.531196 0.273609 0.129923
H10   H     H_    0.321506 0.536544 0.276212 0.127448
H11   H     H_    0.319246 0.459795 0.718303 0.127045
H12   H     H_    0.678111 0.468857 0.278843 0.141984
H13   H     H_    0.214820 0.455353 0.713518 0.130878
H14   H     H_    0.782091 0.463658 0.280522 0.142071
H15   H     H_    0.292326 0.059775 0.157662 0.256904
H16   H     H_    0.246344 0.224568 0.262018 0.162072
H17   H     H_    0.303655 0.244763 0.385643 0.154618
H18   H     H_    0.256295 0.105739 0.393313 0.182693
H19   H     H_    0.555737 0.787174 0.208441 0.253015
H20   H     H_    0.617059 0.823417 0.410587 0.138975
H21   H     H_    0.654026 0.854045 0.250162 0.137242
H22   H     H_    0.662839 0.710166 0.346867 0.157243
H23   H     H_    0.680053 0.501253 0.724892 0.137840
H24   H     H_    0.567693 0.119395 0.635968 0.134779
H25   H     H_    0.402285 0.220424 0.365768 0.132772
H26   H     H_    0.328681 0.867050 0.237454 0.119256
H27   H     H_    0.404220 0.760712 0.352849 0.144081
H28   H     H_    0.567893 0.893391 0.634209 0.110304
H29   H     H_    0.425211 0.384221 0.129142 0.122349
N1    N     N_R   0.851500 0.481602 0.500054 -0.398355
N2    N     N_R   0.147879 0.490276 0.491470 -0.397776
N3    N     N_R   0.500540 0.501210 0.147910 -0.238704
N4    N     N_R   0.500560 0.501290 0.852040 -0.240181
N5    N     N_1   0.816713 0.506453 0.862883 -0.280213
N6    N     N_2   0.315194 0.112903 0.229463 -0.534045
N7    N     N_2   0.583915 0.722178 0.240810 -0.447678
O1    O     O_R   0.500000 0.319640 0.618810 -0.494369
O2    O     O_R   0.582120 0.500020 0.618760 -0.521569
O3    O     O_R   0.582120 0.500050 0.381190 -0.467469
O4    O     O_2   0.854491 0.697682 0.455268 -0.490476
O5    O     O_2   0.846226 0.265367 0.544074 -0.483063
O6    O     O_2   0.144778 0.273731 0.534105 -0.510657
O7    O     O_2   0.152841 0.706735 0.447766 -0.497081
O8    O     O_R   0.500000 0.319660 0.381240 -0.501590
O9    O     O_R   0.417880 0.499950 0.618810 -0.501563
O10   O     O_R   0.417880 0.499980 0.381240 -0.523738
O11   O     O_R   0.500000 0.680340 0.618760 -0.515191
O12   O     O_R   0.500000 0.680360 0.381190 -0.483754

loop_
_geom_bond_atom_site_label_1
_geom_bond_atom_site_label_2
_ccdc_geom_bond_type
C8    H13   S    
C33   H5    S    
C22   C29   A    
C4    O9    A    
C27   C29   A    
C41   C42   A    
Cu1   O1    S    
C19   C20   A    
C7    C8    A    
C10   H14   S    
Cu2   O10   S    
C12   C23   A    
C26   C27   A    
C1    O1    A    
C49   H7    S    
C38   N4    A    
C18   C24   A    
C37   N3    A    
C15   C44   S    
C30   C31   A    
C35   N4    A    
C3    H9    S    
C10   C17   A    
C5    H10   S    
C18   C19   A    
Cu1   O9    S    
C39   O4    S    
C46   H16   S    
C2    N2    A    
C35   C36   A    
Cu2   O12   S    
C8    C9    A    
C13   C28   S    
C31   H3    S    
C44   N5    T    
C21   C22   A    
C1    C25   S    
C47   N7    S    
C40   N1    A    
C32   H4    S    
C30   N7    S    
C46   N6    S    
C26   H24   S    
C27   H28   S    
C24   C25   A    
C47   H20   S    
C4    C6    S    
C19   N6    S    
C1    O8    A    
C16   O11   A    
C39   C43   A    
Cu2   O8    S    
C16   C29   S    
Cu1   O11   S    
C17   N1    S    
C42   C45   A    
C14   H23   S    
C37   C38   A    
C3    C9    A    
C31   C32   A    
C18   H25   S    
C23   C34   A    
Cu2   O3    S    
C34   C51   A    
C28   O3    A    
C34   C45   A    
C46   H18   S    
C48   C49   A    
H15   N6    S    
C22   C24   A    
C37   H29   S    
C42   C43   A    
Cu1   Cu2   S    
C12   C41   A    
C45   C48   A    
C15   C17   A    
C40   C41   A    
C20   H26   S    
C47   H21   S    
C40   O5    S    
C3    C5    A    
C43   C50   A    
C23   H2    S    
C6    C7    A    
C36   N3    A    
C30   C36   A    
C2    C48   A    
C32   C33   A    
Cu1   N4    S    
C25   C26   A    
C39   N1    A    
H19   N7    S    
C11   C13   A    
C5    C6    A    
C21   H27   S    
C2    O7    S    
C33   C35   A    
C28   O2    A    
C7    H11   S    
C46   H17   S    
C10   C11   A    
C9    N2    S    
C47   H22   S    
C38   H6    S    
C16   O12   A    
C20   C21   A    
C49   C50   A    
C4    O10   A    
C50   H8    S    
C14   C15   A    
Cu1   O2    S    
Cu2   N3    S    
C13   C14   A    
C51   N2    A    
C12   H1    S    
C11   H12   S    
C51   O6    S    
