data_mof_unit_53289.cif
_audit_creation_date              2012-12-10T17:48:54-0500
_audit_creation_method            fapswitch 2.2
_symmetry_space_group_name_H-M    P1
_symmetry_Int_Tables_number       1
_space_group_crystal_system       triclinic
_cell_length_a                    10.755915
_cell_length_b                    14.79467
_cell_length_c                    14.770851
_cell_angle_alpha                 64.866775
_cell_angle_beta                  104.815247
_cell_angle_gamma                 103.716687
_cell_volume                      2034.90825801

loop_
_atom_site_label
_atom_site_type_symbol
_atom_type_description
_atom_site_fract_x
_atom_site_fract_y
_atom_site_fract_z
_atom_type_partial_charge
C1    C     C_R   0.481252 0.119689 0.312039 0.778186
C2    C     C_R   0.480686 0.361169 0.075686 0.043415
C3    C     C_R   0.433670 0.321948 0.998578 0.050490
C4    C     C_R   0.260230 0.998609 0.502093 0.768484
C5    C     C_R   0.503424 0.467515 0.049405 0.020651
C6    C     C_R   0.473877 0.533842 0.946112 -0.019600
C7    C     C_R   0.409840 0.491982 0.872054 0.188260
C8    C     C_R   0.397522 0.387596 0.897046 0.169987
C9    C     C_R   0.552901 0.510039 0.123562 -0.201530
C10   C     C_R   0.558608 0.612024 0.099560 -0.226170
C11   C     C_R   0.535119 0.679032 0.998514 0.081335
C12   C     C_3   0.878369 0.998026 0.503673 0.076641
C13   C     C_R   0.504804 0.640327 0.921191 0.075504
C14   C     C_R   0.546175 0.784240 0.972967 0.262591
C15   C     C_R   0.536474 0.849852 0.870060 -0.247043
C16   C     C_R   0.520379 0.880438 0.687731 0.808884
C17   C     C_R   0.514370 0.709236 0.821924 -0.212946
C18   C     C_R   0.738740 0.301397 0.647725 0.094357
C19   C     C_R   0.700097 0.215423 0.624046 0.412316
C20   C     C_R   0.503269 0.274506 0.524147 -0.070756
C21   C     C_R   0.539415 0.368030 0.538097 -0.059060
C22   C     C_R   0.660683 0.379300 0.602256 0.057723
C23   C     C_3   0.962223 0.990706 0.608066 -0.438488
C24   C     C_R   0.463017 0.450978 0.490981 0.059558
C25   C     C_R   0.509699 0.540031 0.514748 0.063487
C26   C     C_R   0.630153 0.545462 0.578731 -0.240684
C27   C     C_R   0.703501 0.468071 0.620281 -0.198393
C28   C     C_R   0.740344 0.998601 0.502591 0.777187
C29   C     C_R   0.345212 0.452351 0.418627 0.227588
C30   C     C_R   0.283464 0.537557 0.371325 -0.242847
C31   C     C_R   0.331005 0.624475 0.391576 0.014378
C32   C     C_R   0.439645 0.624897 0.468546 -0.062064
C33   C     C_R   0.274087 0.712801 0.332337 0.127256
C34   C     C_3   0.929158 0.096360 0.419506 -0.367293
C35   C     C_R   0.316770 0.797795 0.358039 0.411052
C36   C     C_R   0.475720 0.712242 0.493456 -0.070625
C37   C     C_3   0.034515 0.906600 0.483985 -0.422880
C38   C     C_3   0.892145 0.906495 0.483382 -0.379364
C39   C     C_3   0.106629 0.990705 0.608485 0.075994
C40   C     C_3   0.073068 0.098270 0.416127 0.108820
C41   C     C_3   0.122039 0.999474 0.502070 0.037407
C42   C     C_3   0.229539 0.047834 0.745082 -0.709024
C43   C     C_3   0.424456 0.340653 0.765933 -0.711942
C44   C     C_3   0.216872 0.568933 0.777290 -0.677108
C45   C     C_R   0.472735 0.187663 0.203767 -0.058176
C46   C     C_3   0.532049 0.918663 0.027396 -0.738085
C47   C     C_3   0.127783 0.887783 0.266603 -0.677570
C48   C     C_3   0.847735 0.285813 0.818270 -0.702701
C49   C     C_3   0.784484 0.070648 0.765685 -0.633362
C50   C     C_3   0.335455 0.384123 0.295601 -0.722976
C51   C     C_3   0.234016 0.742741 0.153580 -0.682247
C52   C     C_3   0.048457 0.199542 0.230234 -0.726954
C53   C     C_R   0.525587 0.812879 0.795216 -0.136337
C54   C     C_R   0.419020 0.216765 0.025472 -0.184756
C55   C     C_R   0.438776 0.150690 0.126811 -0.193619
C56   C     C_R   0.498795 0.291942 0.177599 -0.227054
Cu1   Cu    Cu3+1 0.465900 0.918260 0.475680 0.943468
Cu2   Cu    Cu3+1 0.534100 0.081740 0.524320 0.953432
H1    H     H_    0.066671 0.835177 0.543770 0.162882
H2    H     H_    0.588141 0.467059 0.201876 0.133002
H3    H     H_    0.796362 0.480154 0.666589 0.149983
H4    H     H_    0.551053 0.715583 0.556371 0.141449
H5    H     H_    0.410598 0.252749 0.486171 0.220064
H6    H     H_    0.833439 0.909547 0.408383 0.188451
H7    H     H_    0.855134 0.834612 0.542533 0.164860
H8    H     H_    0.134591 0.916501 0.665377 0.136041
H9    H     H_    0.925876 0.920416 0.669170 0.140516
H10   H     H_    0.132803 0.164395 0.431433 0.125870
H11   H     H_    0.164094 0.142049 0.596413 0.248991
H12   H     H_    0.922051 0.163138 0.433375 0.135448
H13   H     H_    0.143336 0.034660 0.779858 0.220192
H14   H     H_    0.298638 0.112116 0.757478 0.226493
H15   H     H_    0.279483 0.979970 0.782630 0.229607
H16   H     H_    0.264876 0.287684 0.840271 0.250686
H17   H     H_    0.486499 0.281784 0.817108 0.222086
H18   H     H_    0.487452 0.413829 0.735021 0.249358
H19   H     H_    0.367985 0.319709 0.701631 0.233322
H20   H     H_    0.541364 0.929930 0.848042 0.166746
H21   H     H_    0.343579 0.534224 0.715656 0.282060
H22   H     H_    0.149534 0.496365 0.797335 0.225370
H23   H     H_    0.953040 0.054656 0.624972 0.190318
H24   H     H_    0.176428 0.621859 0.701007 0.218252
H25   H     H_    0.224555 0.602835 0.833096 0.234224
H26   H     H_    0.657120 0.809689 0.100063 0.244547
H27   H     H_    0.534503 0.927077 0.099068 0.226605
H28   H     H_    0.431459 0.923099 0.983398 0.233165
H29   H     H_    0.601133 0.981259 0.983966 0.220004
H30   H     H_    0.311865 0.928082 0.231026 0.232830
H31   H     H_    0.091266 0.881840 0.191585 0.234729
H32   H     H_    0.104238 0.960020 0.258423 0.233057
H33   H     H_    0.077141 0.823690 0.324695 0.215302
H34   H     H_    0.518198 0.683110 0.764823 0.184687
H35   H     H_    0.197859 0.534956 0.314568 0.153317
H36   H     H_    0.924362 0.372475 0.685328 0.247172
H37   H     H_    0.804701 0.344934 0.822169 0.221637
H38   H     H_    0.945750 0.281677 0.866541 0.224647
H39   H     H_    0.785769 0.212089 0.849377 0.233525
H40   H     H_    0.877865 0.173094 0.646811 0.226675
H41   H     H_    0.873237 0.089674 0.816218 0.210302
H42   H     H_    0.784840 0.994026 0.769900 0.219457
H43   H     H_    0.697589 0.069820 0.793741 0.210009
H44   H     H_    0.674134 0.611243 0.595536 0.128890
H45   H     H_    0.588382 0.638193 0.161147 0.155914
H46   H     H_    0.189963 0.356753 0.376430 0.239083
H47   H     H_    0.303099 0.313492 0.281640 0.241597
H48   H     H_    0.443044 0.397961 0.309007 0.236676
H49   H     H_    0.296953 0.447864 0.227747 0.237003
H50   H     H_    0.099086 0.665980 0.251849 0.244422
H51   H     H_    0.282519 0.679629 0.164112 0.239769
H52   H     H_    0.305370 0.813042 0.138716 0.238743
H53   H     H_    0.154768 0.754291 0.086430 0.218859
H54   H     H_    0.179036 0.099582 0.314260 0.248847
H55   H     H_    0.099368 0.216679 0.166829 0.226629
H56   H     H_    0.390005 0.183940 0.968990 0.140618
H57   H     H_    0.071656 0.265941 0.251550 0.226678
H58   H     H_    0.942668 0.186783 0.201602 0.237674
H59   H     H_    0.864566 0.101642 0.346103 0.175155
H60   H     H_    0.426038 0.070847 0.144360 0.133987
H61   H     H_    0.530033 0.316794 0.239185 0.149689
H62   H     H_    0.041731 0.908352 0.410272 0.209414
N1    N     N_R   0.585360 0.204570 0.560800 -0.218060
N2    N     N_2   0.289950 0.372988 0.384236 -0.477349
N3    N     N_2   0.180378 0.720177 0.242510 -0.445406
N4    N     N_2   0.088272 0.109919 0.315849 -0.424180
N5    N     N_R   0.414550 0.795430 0.439160 -0.214489
N6    N     N_2   0.190593 0.071075 0.637207 -0.402355
N7    N     N_2   0.336145 0.349329 0.820047 -0.438666
N8    N     N_2   0.343425 0.552490 0.775655 -0.428022
N9    N     N_2   0.569540 0.822162 0.051262 -0.432995
N10   N     N_2   0.267460 0.889841 0.293633 -0.364544
N11   N     N_2   0.859010 0.308928 0.714787 -0.437740
N12   N     N_2   0.785141 0.142280 0.661850 -0.374648
O1    O     O_R   0.455060 0.022100 0.338110 -0.568217
O2    O     O_R   0.512640 0.160150 0.379180 -0.588105
O3    O     O_R   0.288900 0.930980 0.479450 -0.561610
O4    O     O_R   0.346480 0.069030 0.520520 -0.568549
O5    O     O_R   0.487360 0.839850 0.620820 -0.586456
O6    O     O_R   0.544940 0.977900 0.661890 -0.557149
O7    O     O_R   0.653520 0.930970 0.479480 -0.595578
O8    O     O_R   0.711100 0.069020 0.520550 -0.560268

loop_
_geom_bond_atom_site_label_1
_geom_bond_atom_site_label_2
_ccdc_geom_bond_type
H21   N8    S    
C48   H37   S    
C51   N3    S    
C36   N5    A    
C50   N2    S    
H30   N10   S    
C44   H25   S    
C39   H8    S    
C46   N9    S    
C52   N4    S    
C7    C8    A    
C39   C41   S    
C52   H55   S    
Cu2   O2    S    
C48   H39   S    
C17   H34   S    
C12   C23   S    
C26   C27   A    
C29   C30   A    
C12   C28   S    
C34   C40   S    
C15   C53   A    
C10   H45   S    
H54   N4    S    
C30   H35   S    
C44   H24   S    
C49   H43   S    
C30   C31   A    
C11   C14   A    
C1    O1    A    
C15   H20   S    
H46   N2    S    
C4    C41   S    
H26   N9    S    
C43   H18   S    
Cu1   O7    S    
C18   C19   A    
C23   H9    S    
C35   N5    A    
C16   C53   S    
C27   H3    S    
C24   C29   A    
C44   N8    S    
C16   O5    A    
C45   C56   A    
Cu2   N1    S    
C28   O8    A    
C50   H47   S    
C31   C33   A    
C48   N11   S    
C7    N8    S    
C23   H23   S    
C9    C10   A    
C34   H12   S    
C4    O4    A    
C46   H27   S    
Cu2   O6    S    
C25   C32   A    
C51   H51   S    
C39   N6    S    
C21   C22   A    
C12   C38   S    
C47   H31   S    
Cu1   O1    S    
C18   N11   S    
C28   O7    A    
C36   H4    S    
C38   H6    S    
C52   H58   S    
C43   H17   S    
C40   N4    S    
C49   N12   S    
C47   N10   S    
C44   H22   S    
C24   C25   A    
C3    C8    A    
C43   N7    S    
Cu2   O4    S    
C25   C26   A    
C5    C9    A    
C37   C38   S    
C49   H41   S    
C8    N7    S    
H16   N7    S    
C38   H7    S    
C29   N2    S    
C42   H14   S    
Cu1   O5    S    
C35   N10   S    
C20   N1    A    
C37   H1    S    
C3    C54   A    
C4    O3    A    
C40   C41   S    
H11   N6    S    
C51   H52   S    
C22   C27   A    
C50   H49   S    
C56   H61   S    
C2    C5    A    
H50   N3    S    
C12   C34   S    
C1    O2    A    
C17   C53   A    
C50   H48   S    
C46   H29   S    
C52   H57   S    
Cu2   O8    S    
C19   N12   S    
C54   C55   A    
C19   N1    A    
C42   H15   S    
C51   H53   S    
C48   H38   S    
C18   C22   A    
C47   H33   S    
C31   C32   A    
C16   O6    A    
C32   C36   A    
C6    C7    A    
C43   H19   S    
H36   N11   S    
C13   C17   A    
C9    H2    S    
C20   H5    S    
C2    C3    A    
C2    C56   A    
C26   H44   S    
C6    C13   A    
Cu1   N5    S    
C11   C13   A    
C1    C45   S    
Cu1   Cu2   S    
C5    C6    A    
C37   H62   S    
C34   H59   S    
C23   C39   S    
C54   H56   S    
C42   H13   S    
C33   C35   A    
C37   C41   S    
C47   H32   S    
C10   C11   A    
C42   N6    S    
C20   C21   A    
C45   C55   A    
C40   H10   S    
C21   C24   A    
H40   N12   S    
C33   N3    S    
C14   C15   A    
Cu1   O3    S    
C46   H28   S    
C55   H60   S    
C49   H42   S    
C14   N9    S    
