data_mof_unit_18189.cif
_audit_creation_date              2012-10-26T18:41:02-0400
_audit_creation_method            fapswitch 2.2
_symmetry_space_group_name_H-M    P1
_symmetry_Int_Tables_number       1
_space_group_crystal_system       triclinic
_cell_length_a                    19.3813
_cell_length_b                    18.127782
_cell_length_c                    10.821298
_cell_angle_alpha                 90.315469
_cell_angle_beta                  89.841572
_cell_angle_gamma                 90.039241
_cell_volume                      3801.88162071

loop_
_atom_site_label
_atom_site_type_symbol
_atom_type_description
_atom_site_fract_x
_atom_site_fract_y
_atom_site_fract_z
_atom_type_partial_charge
C1    C     C_R   0.367581 0.499833 0.493624 0.586402
C2    C     C_R   0.292148 0.498630 0.475361 -0.052112
C3    C     C_R   0.965597 0.556817 0.493770 -0.114870
C4    C     C_R   0.036915 0.556858 0.485346 -0.112529
C5    C     C_R   0.072126 0.494398 0.442768 0.041327
C6    C     C_R   0.927844 0.494385 0.459512 0.043124
C7    C     C_R   0.035079 0.430814 0.403936 -0.019935
C8    C     C_R   0.962061 0.430568 0.413502 -0.018986
C9    C     C_R   0.447594 0.720680 0.444279 0.036153
C10   C     C_R   0.552537 0.721596 0.554544 0.017995
C11   C     C_R   0.444771 0.798654 0.445884 0.198844
C12   C     C_R   0.632408 0.499600 0.499537 0.623991
C13   C     C_R   0.554899 0.799609 0.551639 0.198278
C14   C     C_R   0.499663 0.839000 0.498727 0.046311
C15   C     C_R   0.500108 0.499945 0.262578 0.512999
C16   C     C_R   0.501578 0.500545 0.737673 0.617472
C17   C     C_R   0.554309 0.962736 0.450452 -0.092549
C18   C     C_R   0.442804 0.960926 0.550052 -0.086399
C19   C     C_R   0.553681 0.040716 0.451239 0.250227
C20   C     C_R   0.441972 0.038677 0.553677 0.250754
C21   C     C_R   0.497458 0.079221 0.503562 0.125988
C22   C     C_R   0.498939 0.922003 0.499460 0.014053
C23   C     C_R   0.852320 0.497418 0.472693 0.020582
C24   C     C_R   0.462485 0.200666 0.410128 0.208863
C25   C     C_R   0.532803 0.201509 0.596077 0.214554
C26   C     C_R   0.463202 0.278879 0.413013 -0.001360
C27   C     C_R   0.535281 0.279528 0.588967 0.012314
C28   C     C_R   0.496900 0.161884 0.504100 0.110582
C29   C     C_R   0.607383 0.575656 0.131041 -0.107612
C30   C     C_R   0.604377 0.583736 0.875366 -0.110908
C31   C     C_R   0.660530 0.612969 0.068942 0.292838
C32   C     C_R   0.657568 0.618365 0.940301 0.268419
C33   C     C_R   0.552231 0.542995 0.936724 -0.041019
C34   C     C_R   0.147989 0.495356 0.449730 0.010070
C35   C     C_R   0.552736 0.540724 0.066415 -0.047506
C36   C     C_R   0.500747 0.500478 0.128889 -0.030898
C37   C     C_R   0.501088 0.502575 0.871877 0.008683
C38   C     C_R   0.448494 0.462035 0.064501 -0.035152
C39   C     C_R   0.448511 0.463967 0.934834 -0.017158
C40   C     C_R   0.739722 0.488731 0.376944 0.219443
C41   C     C_R   0.252389 0.446274 0.540224 0.264925
C42   C     C_R   0.811443 0.493067 0.366973 -0.106781
C43   C     C_R   0.180731 0.447175 0.530660 -0.109287
C44   C     C_2   0.391388 0.425410 0.134663 0.214789
C45   C     C_R   0.821481 0.498463 0.590645 0.247015
C46   C     C_2   0.389355 0.433266 0.864717 0.299536
C47   C     C_3   0.327887 0.818134 0.439038 -0.014327
C48   C     C_3   0.274952 0.875337 0.400249 -0.345483
C49   C     C_3   0.671370 0.820593 0.549959 -0.033821
C50   C     C_3   0.723507 0.881132 0.577955 -0.364575
C51   C     C_3   0.613826 0.073760 0.278573 -0.019154
C52   C     C_3   0.663144 0.132137 0.229834 -0.365384
C53   C     C_3   0.389363 0.077728 0.731051 -0.024963
C54   C     C_3   0.317017 0.080610 0.785694 -0.375050
C55   C     C_3   0.435252 0.188491 0.202386 -0.015159
C56   C     C_R   0.187042 0.543921 0.376556 0.291395
C57   C     C_3   0.416019 0.129292 0.108457 -0.365965
C58   C     C_3   0.560333 0.194411 0.804470 -0.019481
C59   C     C_3   0.571392 0.135608 0.902085 -0.373105
C60   C     C_3   0.706493 0.677037 0.236149 -0.018834
C61   C     C_3   0.771354 0.719099 0.272337 -0.372105
C62   C     C_3   0.705871 0.727437 0.882320 0.004377
C63   C     C_3   0.774289 0.761319 0.843417 -0.354492
C64   C     C_3   0.709600 0.402427 0.233103 0.009917
C65   C     C_3   0.660415 0.385421 0.127408 -0.368065
C66   C     C_3   0.283911 0.326506 0.566422 0.019439
C67   C     C_R   0.748969 0.497199 0.601608 -0.020801
C68   C     C_3   0.329087 0.276068 0.643508 -0.369261
C69   C     C_3   0.879394 0.430291 0.733202 0.001495
C70   C     C_3   0.916513 0.434430 0.856669 -0.377247
C71   C     C_3   0.145257 0.552224 0.180931 0.032421
C72   C     C_3   0.112808 0.604073 0.087717 -0.354723
C73   C     C_2   0.718433 0.488768 0.726472 0.211510
C74   C     C_2   0.301350 0.594932 0.307352 0.218266
C75   C     C_2   0.072031 0.364024 0.357167 0.175102
C76   C     C_2   0.922340 0.363833 0.375125 0.168811
C77   C     C_R   0.259626 0.546585 0.389724 -0.043976
C78   C     C_R   0.708032 0.497144 0.493308 -0.010689
Cu1   Cu    Cu3+1 0.500000 0.573360 0.500000 0.937448
Cu2   Cu    Cu3+1 0.500000 0.426640 0.500000 0.974123
H1    H     H_    0.407882 0.689686 0.397560 0.147119
H2    H     H_    0.150365 0.409712 0.586515 0.126159
H3    H     H_    0.939526 0.605639 0.528353 0.131439
H4    H     H_    0.065119 0.605327 0.515505 0.139065
H5    H     H_    0.375359 0.446898 0.223922 0.102733
H6    H     H_    0.376370 0.375216 0.870471 0.149097
H7    H     H_    0.329952 0.817918 0.542085 0.113735
H8    H     H_    0.310159 0.763325 0.405600 0.185621
H9    H     H_    0.270432 0.876073 0.297966 0.177942
H10   H     H_    0.223852 0.861623 0.440745 0.106829
H11   H     H_    0.290840 0.930911 0.433331 0.172164
H12   H     H_    0.592944 0.691373 0.600665 0.128557
H13   H     H_    0.666231 0.816576 0.447427 0.110588
H14   H     H_    0.691658 0.767587 0.585962 0.127036
H15   H     H_    0.728000 0.889481 0.679218 0.163818
H16   H     H_    0.774762 0.865594 0.539843 0.092314
H17   H     H_    0.706851 0.933756 0.535356 0.175079
H18   H     H_    0.562653 0.082705 0.234267 0.134155
H19   H     H_    0.633946 0.018504 0.251599 0.121372
H20   H     H_    0.714588 0.125832 0.273474 0.175250
H21   H     H_    0.668998 0.126035 0.128245 0.087246
H22   H     H_    0.642722 0.188076 0.250990 0.153030
H23   H     H_    0.597989 0.934003 0.410688 0.122380
H24   H     H_    0.417464 0.128600 0.758562 0.141828
H25   H     H_    0.416111 0.029203 0.772308 0.122399
H26   H     H_    0.288497 0.029434 0.761257 0.158867
H27   H     H_    0.319966 0.085312 0.887859 0.100512
H28   H     H_    0.288452 0.128826 0.749380 0.157739
H29   H     H_    0.490001 0.204689 0.185339 0.112244
H30   H     H_    0.400883 0.236555 0.187171 0.184931
H31   H     H_    0.361448 0.112325 0.121837 0.174981
H32   H     H_    0.422324 0.151214 0.013460 0.088215
H33   H     H_    0.449859 0.080371 0.119314 0.144847
H34   H     H_    0.399683 0.931024 0.589144 0.133207
H35   H     H_    0.507855 0.218263 0.819185 0.099164
H36   H     H_    0.599873 0.238155 0.817983 0.147830
H37   H     H_    0.624015 0.111935 0.893148 0.169034
H38   H     H_    0.565515 0.160392 0.995560 0.084327
H39   H     H_    0.532749 0.090815 0.890870 0.144512
H40   H     H_    0.693225 0.639851 0.313911 0.152839
H41   H     H_    0.664064 0.717607 0.221835 0.102047
H42   H     H_    0.785423 0.758740 0.198513 0.151304
H43   H     H_    0.762611 0.749857 0.359816 0.078544
H44   H     H_    0.814711 0.679949 0.286072 0.167194
H45   H     H_    0.434001 0.310130 0.346516 0.139642
H46   H     H_    0.694161 0.747697 0.977568 0.141969
H47   H     H_    0.664669 0.746708 0.818826 0.145179
H48   H     H_    0.786175 0.746386 0.745998 0.149593
H49   H     H_    0.771698 0.822251 0.852493 0.086535
H50   H     H_    0.816273 0.740758 0.903791 0.178519
H51   H     H_    0.698608 0.362966 0.309413 0.160579
H52   H     H_    0.763147 0.393567 0.198699 0.142461
H53   H     H_    0.669025 0.424574 0.050259 0.185044
H54   H     H_    0.669333 0.328357 0.093107 0.090255
H55   H     H_    0.606258 0.389837 0.159947 0.169266
H56   H     H_    0.565113 0.311112 0.654811 0.155358
H57   H     H_    0.305506 0.327612 0.470748 0.151279
H58   H     H_    0.230849 0.303039 0.563790 0.133781
H59   H     H_    0.306379 0.269314 0.737087 0.146082
H60   H     H_    0.333158 0.221262 0.597884 0.150148
H61   H     H_    0.381595 0.299893 0.652762 0.169533
H62   H     H_    0.914475 0.403476 0.665065 0.175311
H63   H     H_    0.832577 0.395292 0.745161 0.147114
H64   H     H_    0.882372 0.460114 0.927405 0.163878
H65   H     H_    0.930622 0.378067 0.887290 0.102193
H66   H     H_    0.964259 0.467918 0.847521 0.165551
H67   H     H_    0.611573 0.570467 0.229577 0.181944
H68   H     H_    0.110377 0.503946 0.191962 0.163655
H69   H     H_    0.195756 0.533117 0.143040 0.166308
H70   H     H_    0.146794 0.652619 0.073067 0.190527
H71   H     H_    0.105633 0.574883 0.998165 0.103127
H72   H     H_    0.061750 0.623174 0.122012 0.153558
H73   H     H_    0.745566 0.509737 0.806868 0.186203
H74   H     H_    0.354845 0.581992 0.287759 0.102012
H75   H     H_    0.050350 0.309533 0.371074 0.108574
H76   H     H_    0.939928 0.330375 0.297859 0.102174
H77   H     H_    0.606873 0.587170 0.775995 0.165627
H78   H     H_    0.835540 0.490279 0.276574 0.132579
N1    N     N_R   0.500000 0.683620 0.500000 -0.283045
N2    N     N_R   0.500000 0.316380 0.500000 -0.292880
O1    O     O_R   0.400190 0.561980 0.499980 -0.512539
O2    O     O_2   0.354337 0.473757 0.800677 -0.453603
O3    O     O_3   0.392413 0.836141 0.385950 -0.560126
O4    O     O_3   0.608036 0.838085 0.608156 -0.567735
O5    O     O_3   0.609976 0.080107 0.408483 -0.541264
O6    O     O_3   0.384742 0.074642 0.600721 -0.557350
O7    O     O_3   0.425303 0.160539 0.322860 -0.555170
O8    O     O_3   0.568049 0.162067 0.685956 -0.545960
O9    O     O_3   0.720586 0.635829 0.127802 -0.519173
O10   O     O_3   0.711437 0.649875 0.875422 -0.553034
O11   O     O_3   0.700120 0.476201 0.272785 -0.570720
O12   O     O_R   0.599810 0.561980 0.500020 -0.538478
O13   O     O_3   0.283419 0.397555 0.620661 -0.502346
O14   O     O_3   0.862264 0.502463 0.695428 -0.572534
O15   O     O_3   0.153824 0.590062 0.294355 -0.521304
O16   O     O_2   0.665254 0.453903 0.742050 -0.553073
O17   O     O_2   0.276523 0.649556 0.259295 -0.483681
O18   O     O_2   0.126464 0.369047 0.300761 -0.525126
O19   O     O_2   0.870585 0.344528 0.430851 -0.531061
O20   O     O_R   0.400190 0.438070 0.500040 -0.471280
O21   O     O_R   0.599810 0.438070 0.499960 -0.454797
O22   O     O_R   0.500000 0.561970 0.319650 -0.522758
O23   O     O_R   0.500000 0.561970 0.680350 -0.495557
O24   O     O_R   0.500010 0.438060 0.319710 -0.520490
O25   O     O_R   0.499990 0.438060 0.680290 -0.491504
O26   O     O_2   0.362908 0.369933 0.095862 -0.557377

loop_
_geom_bond_atom_site_label_1
_geom_bond_atom_site_label_2
_ccdc_geom_bond_type
C30   H77   S    
C66   C68   S    
C34   C56   A    
C23   C45   A    
C63   H49   S    
C55   H29   S    
C35   C36   A    
C55   O7    S    
C76   O19   D    
C18   H34   S    
C16   O23   A    
C7    C8    A    
C12   O12   A    
C51   O5    S    
C57   H31   S    
C53   C54   S    
C25   C28   A    
C74   O17   D    
C52   H22   S    
C23   C42   A    
C54   H27   S    
C61   H44   S    
C6    C8    A    
C27   H56   S    
Cu2   O20   S    
C19   C21   A    
C24   C26   A    
C16   O25   A    
Cu1   N1    S    
C62   H47   S    
C1    O20   A    
C50   H15   S    
Cu2   N2    S    
C57   H32   S    
C9    N1    A    
C53   H24   S    
C66   H58   S    
C15   O22   A    
C8    C76   S    
C74   H74   S    
C1    C2    S    
C63   H50   S    
C75   O18   D    
C49   O4    S    
C41   O13   S    
C33   C35   A    
C64   H52   S    
C71   O15   S    
C72   H72   S    
C74   C77   S    
C12   C78   S    
C45   C67   A    
Cu2   O25   S    
C66   O13   S    
C26   N2    A    
C70   H66   S    
C49   H14   S    
C58   O8    S    
C65   H54   S    
C16   C37   S    
C47   O3    S    
C3    C6    A    
C51   H18   S    
C40   C42   A    
C71   H68   S    
C1    O1    A    
C59   H37   S    
C48   H10   S    
C13   C14   A    
C5    C34   S    
C58   H36   S    
C41   C43   A    
C42   H78   S    
C67   C78   A    
Cu1   O1    S    
C60   H41   S    
C25   O8    S    
C51   H19   S    
C38   C39   A    
C62   O10   S    
C52   H21   S    
C54   H26   S    
C56   O15   S    
C51   C52   S    
C47   C48   S    
C24   C28   A    
C24   O7    S    
C62   H46   S    
C17   C19   A    
C57   H33   S    
C31   O9    S    
C69   H62   S    
C76   H76   S    
C33   C37   A    
C56   C77   A    
C61   H42   S    
C26   H45   S    
C47   H7    S    
Cu1   O12   S    
C38   C44   S    
C62   C63   S    
C75   H75   S    
C48   H11   S    
C12   O21   A    
C4    H4    S    
C64   H51   S    
C72   H71   S    
C15   O24   A    
C11   O3    S    
C68   H61   S    
C70   H65   S    
Cu2   O21   S    
C9    C11   A    
C65   H55   S    
C39   C46   S    
C67   C73   S    
C21   C28   S    
C59   H38   S    
C72   H70   S    
C48   H9    S    
C55   C57   S    
C55   H30   S    
C3    H3    S    
C58   H35   S    
C40   C78   A    
C58   C59   S    
C25   C27   A    
C69   O14   S    
C60   O9    S    
C44   H5    S    
C15   C36   S    
C13   O4    S    
C5    C7    A    
C32   O10   S    
C50   H17   S    
C59   H39   S    
C30   C33   A    
C18   C22   A    
C31   C32   A    
C34   C43   A    
C63   H48   S    
C4    C5    A    
C10   C13   A    
C52   H20   S    
C29   H67   S    
C7    C75   S    
C69   H63   S    
C20   O6    S    
C29   C35   A    
C70   H64   S    
C17   C22   A    
Cu1   O22   S    
C54   H28   S    
C61   H43   S    
C44   O26   D    
C64   C65   S    
C14   C22   S    
C64   O11   S    
C36   C38   A    
C27   N2    A    
C71   C72   S    
C37   C39   A    
C2    C77   A    
C45   O14   S    
C47   H8    S    
C30   C32   A    
C50   H16   S    
C71   H69   S    
C66   H57   S    
C73   O16   D    
C6    C23   S    
C11   C14   A    
Cu1   O23   S    
C60   H40   S    
C18   C20   A    
Cu2   O24   S    
C17   H23   S    
C69   C70   S    
C68   H60   S    
C10   H12   S    
Cu1   Cu2   S    
C53   H25   S    
C53   O6    S    
C19   O5    S    
C20   C21   A    
C29   C31   A    
C49   C50   S    
C46   O2    D    
C73   H73   S    
C43   H2    S    
C60   C61   S    
C68   H59   S    
C2    C41   A    
C49   H13   S    
C10   N1    A    
C40   O11   S    
C65   H53   S    
C3    C4    A    
C9    H1    S    
C46   H6    S    
