data_mof_unit_24378.cif
_audit_creation_date              2013-03-05T15:55:00-0500
_audit_creation_method            fapswitch 2.2
_symmetry_space_group_name_H-M    P1
_symmetry_Int_Tables_number       1
_space_group_crystal_system       triclinic
_cell_length_a                    22.913023
_cell_length_b                    10.673144
_cell_length_c                    9.925373
_cell_angle_alpha                 91.79805
_cell_angle_beta                  87.920704
_cell_angle_gamma                 93.19043
_cell_volume                      2420.88323358

loop_
_atom_site_label
_atom_site_type_symbol
_atom_site_description
_atom_site_fract_x
_atom_site_fract_y
_atom_site_fract_z
_atom_type_partial_charge
O1    O     O_R   0.500000 0.316780 0.614690 -0.631287
O2    O     O_R   0.500000 0.316750 0.385360 -0.608758
C1    C     C_R   0.506282 0.261134 0.496841 0.904060
O3    O     O_R   0.416160 0.499970 0.614690 -0.604819
O4    O     O_R   0.416150 0.499950 0.385360 -0.631411
C2    C     C_R   0.389110 0.502911 0.502119 0.890517
Zn1   Zn    Zn3+2 0.500000 0.500020 0.653130 0.970005
Zn2   Zn    Zn3+2 0.500000 0.499980 0.346870 0.960050
O5    O     O_R   0.500000 0.683250 0.614640 -0.597706
O6    O     O_R   0.500000 0.683220 0.385310 -0.656927
O7    O     O_R   0.583850 0.500050 0.614640 -0.632206
O8    O     O_R   0.583840 0.500030 0.385310 -0.610846
C3    C     C_R   0.495039 0.739722 0.503439 0.890026
C4    C     C_R   0.611786 0.498026 0.497216 0.873806
C5    C     C_R   0.883695 0.723573 0.509038 0.566184
N1    N     N_R   0.857150 0.620466 0.447488 -0.361696
C6    C     C_R   0.888168 0.538866 0.368414 0.525300
C7    C     C_R   0.947904 0.564732 0.339233 -0.038667
C8    C     C_R   0.977393 0.655930 0.421331 -0.048728
C9    C     C_R   0.945281 0.738358 0.507402 -0.087177
C10   C     C_R   0.979306 0.497480 0.237423 -0.085657
C11   C     C_R   0.041073 0.503657 0.236119 -0.095173
C12   C     C_R   0.071054 0.580091 0.334526 -0.062728
C13   C     C_R   0.038915 0.660013 0.422553 -0.009454
C14   C     C_R   0.068122 0.740430 0.516655 -0.057464
C15   C     C_R   0.036793 0.825926 0.596178 -0.171295
C16   C     C_R   0.976154 0.827696 0.591042 0.212391
C17   C     C_R   0.132045 0.579257 0.350876 0.489798
N2    N     N_R   0.157291 0.643839 0.456666 -0.356776
C18   C     C_R   0.127784 0.728351 0.534517 0.553028
O9    O     O_2   0.850250 0.807681 0.573813 -0.483253
O10   O     O_2   0.861251 0.431027 0.322335 -0.509330
O11   O     O_2   0.166202 0.511552 0.266213 -0.552084
O12   O     O_2   0.155700 0.796974 0.631543 -0.512915
H1    H     H_    0.059360 0.890271 0.665831 0.214620
C19   C     C_R   0.261894 0.696616 0.458629 -0.028607
H2    H     H_    0.254401 0.788268 0.420899 0.178337
C20   C     C_R   0.318575 0.660236 0.469155 -0.194757
H3    H     H_    0.354733 0.725622 0.442279 0.162059
C21   C     C_R   0.328789 0.538246 0.506405 -0.102876
C22   C     C_R   0.282063 0.453177 0.540618 0.119743
C23   C     C_R   0.224335 0.493394 0.541224 -0.031905
C24   C     C_R   0.214827 0.613217 0.491003 0.173315
C25   C     C_R   0.760117 0.591009 0.351510 -0.095301
C26   C     C_R   0.704592 0.529653 0.360293 0.199846
C27   C     C_R   0.676803 0.510608 0.488316 -0.272130
C28   C     C_R   0.711217 0.520543 0.604949 -0.152993
C29   C     C_R   0.771474 0.554467 0.590692 0.257116
C30   C     C_R   0.795163 0.594884 0.465257 0.087152
C31   C     C_R   0.567595 0.124342 0.701473 -0.195649
H4    H     H_    0.592055 0.211524 0.679653 0.148960
C32   C     C_R   0.579318 0.061260 0.817450 0.224209
C33   C     C_R   0.544415 0.954889 0.852080 -0.185192
H5    H     H_    0.547406 0.915288 0.950312 0.211400
C34   C     C_R   0.504288 0.901871 0.760810 0.176601
C35   C     C_R   0.505240 0.946637 0.627754 0.078730
C36   C     C_R   0.528415 0.068733 0.608067 0.030295
C37   C     C_R   0.515274 0.128266 0.490073 -0.134412
C38   C     C_R   0.499884 0.056235 0.375015 0.170624
H6    H     H_    0.475770 0.876060 0.296106 0.196963
C39   C     C_R   0.485542 0.930839 0.387132 -0.216757
C40   C     C_R   0.489565 0.873986 0.510910 -0.142339
C41   C     C_R   0.421722 0.335835 0.140814 -0.196428
H7    H     H_    0.421041 0.330929 0.247722 0.207899
C42   C     C_R   0.386408 0.245075 0.073043 -0.080818
C43   C     C_R   0.388936 0.240095 0.931103 -0.040402
C44   C     C_R   0.424196 0.330081 0.861655 -0.145307
H8    H     H_    0.420870 0.329442 0.754853 0.229929
C45   C     C_R   0.461931 0.417778 0.928597 0.138375
C46   C     C_R   0.461364 0.419118 0.072611 0.187605
N3    N     N_R   0.499460 0.498800 0.142780 -0.155580
C47   C     C_R   0.536943 0.579575 0.069634 -0.004914
H9    H     H_    0.566031 0.640891 0.869310 0.196942
C48   C     C_R   0.536632 0.577943 0.926366 -0.035142
N4    N     N_R   0.499440 0.498720 0.857170 -0.138893
C49   C     C_2   0.948524 0.424567 0.128088 0.608800
H10   H     H_    0.963985 0.334951 0.091707 0.060060
O13   O     O_2   0.907203 0.466989 0.073792 -0.502305
I1    I     I_    0.674568 0.427855 0.183441 -0.112175
C50   C     C_2   0.685871 0.486558 0.739322 0.532343
H11   H     H_    0.657399 0.402539 0.749863 0.064051
O14   O     O_2   0.695248 0.553964 0.838696 -0.466134
I2    I     I_    0.828720 0.531830 0.753520 -0.070024
I3    I     I_    0.515176 0.113780 0.174699 -0.316387
I4    I     I_    0.649441 0.127350 0.936865 -0.166474
I5    I     I_    0.430699 0.796146 0.844058 -0.229671
C51   C     C_2   0.578568 0.670373 0.137047 0.479720
H12   H     H_    0.583430 0.672395 0.244097 0.135178
O15   O     O_2   0.609511 0.745034 0.071904 -0.532851
C52   C     C_2   0.073041 0.427780 0.132723 0.480569
H13   H     H_    0.099223 0.352492 0.162881 0.114650
O16   O     O_2   0.069914 0.448955 0.013091 -0.518769
C53   C     C_2   0.351328 0.153197 0.156955 0.427802
H14   H     H_    0.342317 0.175738 0.262715 0.099496
O17   O     O_2   0.334430 0.050178 0.112430 -0.549035
C54   C     C_2   0.355953 0.141765 0.852329 0.557721
H15   H     H_    0.312293 0.108722 0.885041 0.137973
O18   O     O_2   0.377864 0.095515 0.749745 -0.552045
I6    I     I_    0.938286 0.962564 0.726021 -0.137095
I7    I     I_    0.299312 0.260472 0.559671 -0.276704
C55   C     C_2   0.173428 0.413311 0.592181 0.515843
H16   H     H_    0.129409 0.430814 0.564178 0.047426
O19   O     O_2   0.179304 0.330991 0.672368 -0.497777
C56   C     C_2   0.782610 0.649532 0.223966 0.583349
H17   H     H_    0.828500 0.677955 0.209682 0.072442
O20   O     O_2   0.749592 0.673724 0.135722 -0.459102

loop_
_geom_bond_atom_site_label_1
_geom_bond_atom_site_label_2
_geom_bond_distance
_ccdc_geom_bond_type
C25   C30   1.407219 A    
C51   H12   1.071765 S    
C41   C42   1.398892 A    
C47   C48   1.421813 A    
C21   C22   1.403826 A    
C53   H14   1.084591 S    
C7    C10   1.418889 A    
H9    C48   1.082434 S    
C8    C9    1.422841 A    
C34   C35   1.417451 A    
C56   O20   1.220726 D    
C25   C56   1.491574 S    
C4    C27   1.487992 S    
C33   H5    1.080687 S    
C25   C26   1.399237 A    
Zn1   O7    1.945213 S    
C10   C49   1.490678 S    
C16   I6    2.133867 S    
C15   C16   1.393399 A    
C55   H16   1.083517 S    
C17   N2    1.366202 A    
C49   O13   1.221428 D    
C20   H3    1.084378 S    
O7    C4    1.309326 A    
C5    N1    1.365447 A    
C35   C36   1.396348 A    
C7    C8    1.408890 A    
C22   C23   1.412913 A    
O5    C3    1.285641 A    
C3    C40   1.444790 S    
N1    C6    1.365695 A    
C54   O18   1.221221 D    
C19   H2    1.083037 S    
C31   C32   1.393456 A    
C12   C13   1.417659 A    
C46   N3    1.376438 A    
C42   C53   1.488725 S    
C43   C44   1.401808 A    
C55   O19   1.219980 D    
C10   C11   1.412753 A    
N2    C24   1.431268 S    
C39   C40   1.395437 A    
C28   C50   1.482673 S    
O3    Zn1   1.972048 S    
C56   H17   1.083572 S    
C31   H4    1.082892 S    
C36   C37   1.399837 A    
C33   C34   1.398763 A    
C5    C9    1.410717 A    
C38   C39   1.368202 A    
C48   N4    1.355990 A    
C18   O12   1.349552 S    
C44   H8    1.065316 S    
C13   C14   1.409961 A    
C50   O14   1.220751 D    
Zn1   N4    2.025226 S    
C14   C15   1.399125 A    
C26   C27   1.415778 A    
H6    C39   1.084050 S    
O1    C1    1.302055 A    
N2    C18   1.361630 A    
C52   O16   1.221030 D    
C28   C29   1.410933 A    
C41   C46   1.405954 A    
Zn2   O8    1.972045 S    
C54   H15   1.083933 S    
C6    C7    1.402751 A    
C11   C52   1.484889 S    
C22   I7    2.131330 S    
C26   I1    2.149345 S    
C12   C17   1.413273 A    
C49   H10   1.085127 S    
O3    C2    1.299278 A    
C29   C30   1.410428 A    
O8    C4    1.303373 A    
C17   O11   1.348317 S    
C51   O15   1.221433 D    
C2    C21   1.451573 S    
C23   C24   1.417879 A    
C23   C55   1.490068 S    
N1    C30   1.436890 S    
C47   C51   1.482996 S    
C32   C33   1.396470 A    
C43   C54   1.478846 S    
C14   C18   1.398373 A    
Zn1   O5    2.004336 S    
C27   C28   1.422087 A    
C32   I4    2.107975 S    
Zn2   N3    2.025796 S    
O1    Zn1   1.980829 S    
C31   C36   1.408617 A    
C8    C13   1.408381 A    
Zn2   O6    1.980831 S    
O2    Zn2   2.004335 S    
C50   H11   1.084676 S    
O6    C3    1.305711 A    
O4    Zn2   1.945215 S    
C5    O9    1.345757 S    
C9    C16   1.420092 A    
C38   I3    2.110707 S    
C29   I2    2.145782 S    
C34   I5    2.131855 S    
C19   C20   1.384527 A    
O2    C1    1.288287 A    
C37   C38   1.401248 A    
N3    C47   1.385484 A    
C20   C21   1.398972 A    
C52   H13   1.084896 S    
O4    C2    1.294468 A    
C45   N4    1.378102 A    
C35   C40   1.420571 A    
C45   C46   1.428605 A    
C41   H7    1.063541 S    
C1    C37   1.443459 S    
C15   H1    1.083316 S    
C53   O17   1.220131 D    
C42   C43   1.407351 A    
C6    O10   1.350081 S    
C11   C12   1.423982 A    
C19   C24   1.394473 A    
C44   C45   1.406310 A    
