data_mof_unit_42373.cif
_audit_creation_date              2012-12-10T17:19:56-0500
_audit_creation_method            fapswitch 2.2
_symmetry_space_group_name_H-M    P1
_symmetry_Int_Tables_number       1
_space_group_crystal_system       triclinic
_cell_length_a                    9.69261
_cell_length_b                    10.788698
_cell_length_c                    15.200187
_cell_angle_alpha                 85.922927
_cell_angle_beta                  74.790278
_cell_angle_gamma                 89.70629
_cell_volume                      1529.7838372

loop_
_atom_site_label
_atom_site_type_symbol
_atom_type_description
_atom_site_fract_x
_atom_site_fract_y
_atom_site_fract_z
_atom_type_partial_charge
C1    C     C_R   0.998382 0.262818 0.505078 0.775138
C2    C     C_R   0.702397 0.506535 0.918608 0.097131
C3    C     C_R   0.783307 0.427520 0.963128 0.170095
C4    C     C_R   0.574159 0.558330 0.970145 0.001084
C5    C     C_R   0.512083 0.509653 0.062218 0.035305
C6    C     C_R   0.601184 0.437348 0.107109 0.033299
C7    C     C_R   0.731717 0.393284 0.056054 -0.250111
C8    C     C_R   0.506129 0.658796 0.933783 0.139039
C9    C     C_R   0.363867 0.682283 0.973727 -0.224566
C10   C     C_R   0.290286 0.615144 0.053553 0.050314
C11   C     C_R   0.363656 0.533754 0.102461 0.099635
C12   C     C_R   0.919157 0.494969 0.672705 0.774880
C13   C     C_R   0.142112 0.625623 0.082688 -0.140902
C14   C     C_R   0.064401 0.561750 0.163491 0.036448
C15   C     C_R   0.282235 0.476296 0.186807 -0.169877
C16   C     C_R   0.097288 0.114322 0.646352 -0.191502
C17   C     C_R   0.146753 0.042444 0.711365 -0.128592
C18   C     C_R   0.146734 0.913518 0.711177 -0.098749
C19   C     C_R   0.097106 0.855536 0.646026 -0.154236
C20   C     C_R   0.048808 0.926423 0.578331 0.098747
C21   C     C_R   0.049109 0.057861 0.578442 0.105362
C22   C     C_R   0.995974 0.128416 0.512482 -0.091089
C23   C     C_R   0.998190 0.736728 0.504190 0.804550
C24   C     C_R   0.937322 0.070137 0.451692 -0.209515
C25   C     C_R   0.936902 0.942713 0.451943 -0.194163
C26   C     C_R   0.994990 0.870172 0.512404 -0.098929
C27   C     C_R   0.667874 0.710240 0.418898 0.011441
C28   C     C_R   0.597921 0.821635 0.407222 -0.176669
C29   C     C_R   0.462013 0.813681 0.394634 -0.232726
C30   C     C_R   0.392063 0.699118 0.410340 -0.057727
C31   C     C_R   0.440566 0.600249 0.459556 0.240600
C32   C     C_R   0.586813 0.603805 0.463525 0.091496
C33   C     C_R   0.558561 0.403189 0.538245 -0.041699
C34   C     C_R   0.082509 0.497050 0.326346 0.806447
C35   C     C_R   0.410930 0.403917 0.539205 -0.057969
C36   C     C_R   0.877741 0.478811 0.773193 -0.051223
C37   C     C_R   0.137378 0.504165 0.223670 -0.204698
C38   C     C_R   0.916482 0.384741 0.914087 -0.171445
C39   C     C_R   0.965266 0.413421 0.820029 -0.196089
C40   C     C_R   0.745423 0.521357 0.822459 -0.204011
Cu1   Cu    Cu3+1 0.140660 0.499990 0.500010 0.942202
Cu2   Cu    Cu3+1 0.859340 0.500010 0.499990 0.948611
H1    H     H_    0.797427 0.336229 0.090195 0.116814
H2    H     H_    0.086260 0.676593 0.038661 0.179826
H3    H     H_    0.894685 0.123820 0.401982 0.152409
H4    H     H_    0.094496 0.213767 0.651348 0.133873
H5    H     H_    0.183333 0.086954 0.762949 0.137107
H6    H     H_    0.183352 0.858051 0.762620 0.144822
H7    H     H_    0.094248 0.755168 0.650859 0.157630
H8    H     H_    0.894311 0.901216 0.402627 0.200862
H9    H     H_    0.600013 0.323525 0.569810 0.143368
H10   H     H_    0.658502 0.906657 0.381456 0.167780
H11   H     H_    0.326442 0.408081 0.226140 0.166672
H12   H     H_    0.417362 0.892658 0.364206 0.166040
H13   H     H_    0.305008 0.688990 0.380013 0.201412
H14   H     H_    0.343961 0.324963 0.571772 0.131933
H15   H     H_    0.310242 0.754106 0.942087 0.164229
H16   H     H_    0.982143 0.328036 0.948318 0.135073
H17   H     H_    0.067510 0.378312 0.783274 0.143457
H18   H     H_    0.673964 0.561555 0.784815 0.179356
N1    N     N_R   0.648320 0.501210 0.499140 -0.206520
N2    N     N_R   0.352470 0.501290 0.499110 -0.194959
O1    O     O_R   0.118810 0.319640 0.500010 -0.587237
O2    O     O_R   0.881240 0.319660 0.500000 -0.583159
O3    O     O_R   0.055570 0.499980 0.629840 -0.591756
O4    O     O_R   0.818000 0.500010 0.629830 -0.565121
O5    O     O_R   0.118760 0.680340 0.500000 -0.612377
O6    O     O_R   0.881190 0.680360 0.499990 -0.566798
O7    O     O_R   0.182000 0.499990 0.370170 -0.554803
O8    O     O_R   0.944430 0.500020 0.370160 -0.610281
C41   C     C_2   0.779598 0.686002 0.337853 0.503225
H19   H     H_    0.771445 0.597615 0.312321 0.103831
O9    O     O_2   0.867728 0.763726 0.295419 -0.585950
C42   C     C_2   0.914075 0.533743 0.172063 0.357073
H20   H     H_    0.864130 0.452128 0.213901 0.035767
O10   O     O_2   0.844039 0.601517 0.132968 -0.509614
C43   C     C_2   0.579605 0.424090 0.207407 0.335174
H21   H     H_    0.612234 0.339882 0.239513 0.045518
O11   O     O_2   0.534688 0.510457 0.254176 -0.546730
I1    I     I_    0.613621 0.801239 0.834654 -0.403281

loop_
_geom_bond_atom_site_label_1
_geom_bond_atom_site_label_2
_ccdc_geom_bond_type
C16   C21   A    
C40   H18   S    
C34   C37   S    
Cu1   Cu2   S    
C19   C20   A    
C4    C8    A    
Cu1   O5    S    
C43   H21   S    
C42   O10   D    
C24   H3    S    
C15   H11   S    
C28   C29   A    
C32   N1    A    
C5    C11   A    
C3    C7    A    
C38   C39   A    
C29   H12   S    
Cu2   O8    S    
C18   C19   A    
C23   C26   S    
C23   O5    A    
C25   H8    S    
C15   C37   A    
C38   H16   S    
C11   C15   A    
C3    C38   A    
C8    C9    A    
C14   C42   S    
C7    H1    S    
C12   C36   S    
C9    C10   A    
C34   O8    A    
C27   C32   A    
C1    C22   S    
C21   C22   A    
Cu2   O6    S    
C31   N2    A    
Cu1   N2    S    
C1    O1    A    
C43   O11   D    
C42   H20   S    
C36   C40   A    
Cu2   O4    S    
C24   C25   A    
C16   H4    S    
C41   O9    D    
C16   C17   A    
C6    C43   S    
Cu1   O3    S    
C25   C26   A    
C12   O4    A    
C23   O6    A    
C2    C4    A    
C29   C30   A    
C19   H7    S    
C31   C32   A    
Cu2   N1    S    
C30   C31   A    
C39   H17   S    
C17   C18   A    
C34   O7    A    
C22   C24   A    
Cu1   O1    S    
C1    O2    A    
Cu2   O2    S    
C27   C41   S    
Cu1   O7    S    
C12   O3    A    
C35   H14   S    
C36   C39   A    
C17   H5    S    
C4    C5    A    
C10   C13   A    
C18   H6    S    
C6    C7    A    
C33   H9    S    
C30   H13   S    
C2    C3    A    
C41   H19   S    
C14   C37   A    
C28   H10   S    
C5    C6    A    
C20   C26   A    
C33   C35   A    
C35   N2    A    
C9    H15   S    
C10   C11   A    
C2    C40   A    
C20   C21   A    
C33   N1    A    
C27   C28   A    
C8    I1    S    
C13   C14   A    
C13   H2    S    
