data_mof_unit_47221.cif
_audit_creation_date              2012-12-11T15:55:39-0500
_audit_creation_method            fapswitch 2.2
_symmetry_space_group_name_H-M    P1
_symmetry_Int_Tables_number       1
_space_group_crystal_system       triclinic
_cell_length_a                    8.238731
_cell_length_b                    18.764002
_cell_length_c                    18.997699
_cell_angle_alpha                 98.789162
_cell_angle_beta                  94.571369
_cell_angle_gamma                 91.112427
_cell_volume                      2891.6758978

loop_
_atom_site_label
_atom_site_type_symbol
_atom_type_description
_atom_site_fract_x
_atom_site_fract_y
_atom_site_fract_z
_atom_type_partial_charge
Ba1   Ba    Ba6+2 0.152460 0.535140 0.468980 1.621491
Ba2   Ba    Ba6+2 0.657710 0.464850 0.530960 1.621995
C1    C     C_3   0.344404 0.719326 0.214657 -0.370168
C2    C     C_R   0.083305 0.903381 0.574855 -0.090001
C3    C     C_R   0.219135 0.046744 0.563604 -0.101139
C4    C     C_3   0.905323 0.732994 0.330733 0.373180
C5    C     C_R   0.061205 0.022843 0.533723 0.020467
C6    C     C_R   0.275934 0.117082 0.564207 -0.096500
C7    C     C_R   0.178395 0.167351 0.535128 -0.029141
C8    C     C_R   0.023482 0.144145 0.500409 -0.003879
C9    C     C_R   0.965078 0.071443 0.499037 0.020131
C10   C     C_R   0.231223 0.240195 0.539532 -0.007795
C11   C     C_R   0.127271 0.289531 0.512949 -0.295962
C12   C     C_3   0.379669 0.696876 0.287711 0.342787
C13   C     C_R   0.979170 0.267371 0.474343 0.040785
C14   C     C_R   0.927737 0.193428 0.466492 -0.045216
C15   C     C_R   0.844358 0.928487 0.500456 0.020543
C16   C     C_3   0.915974 0.809887 0.313695 -0.191469
C17   C     C_R   0.785481 0.855935 0.499610 -0.002949
C18   C     C_R   0.881504 0.806694 0.533443 -0.042476
C19   C     C_R   0.025224 0.833114 0.573920 -0.026057
C20   C     C_R   0.784336 0.166932 0.425536 -0.025783
C21   C     C_R   0.726465 0.096549 0.424446 -0.089996
C22   C     C_R   0.810817 0.048190 0.463352 0.009270
C23   C     C_3   0.440451 0.691024 0.672105 0.334915
C24   C     C_R   0.748288 0.977055 0.465694 0.020460
C25   C     C_R   0.590138 0.953198 0.436041 -0.100461
C26   C     C_R   0.629902 0.832863 0.465571 -0.032494
C27   C     C_R   0.532690 0.883040 0.436132 -0.098070
C28   C     C_3   0.791286 0.379692 0.311115 0.313439
C29   C     C_R   0.576188 0.760239 0.462158 -0.003134
C30   C     C_R   0.679625 0.711018 0.489336 -0.283011
C31   C     C_R   0.829750 0.732898 0.526337 0.044009
C32   C     C_R   0.606186 0.531790 0.301003 -0.291911
C33   C     C_R   0.461937 0.492838 0.275807 0.067237
C34   C     C_3   0.357664 0.760144 0.704327 -0.182126
C35   C     C_R   0.410223 0.483729 0.202761 -0.121223
C36   C     C_R   0.503098 0.513475 0.154584 -0.014339
C37   C     C_R   0.651510 0.550695 0.180662 -0.140028
C38   C     C_R   0.704541 0.557985 0.253542 0.012716
C39   C     C_R   0.446524 0.562475 0.039700 -0.068403
C40   C     C_3   0.771465 0.361158 0.230041 -0.398838
C41   C     C_R   0.391541 0.554504 0.966761 0.069467
C42   C     C_R   0.343878 0.484844 0.929117 0.061858
C43   C     C_R   0.343324 0.426254 0.967214 -0.098385
C44   C     C_R   0.393714 0.435506 0.040276 -0.084505
C45   C     C_3   0.897960 0.263003 0.666920 0.381887
C46   C     C_R   0.447895 0.503515 0.077048 0.046064
C47   C     C_R   0.144477 0.438515 0.822856 -0.142081
C48   C     C_R   0.097019 0.432096 0.749323 0.019423
C49   C     C_R   0.348598 0.492065 0.730622 0.057806
C50   C     C_R   0.398962 0.496954 0.803283 -0.112145
C51   C     C_R   0.296033 0.472051 0.850630 -0.016177
C52   C     C_3   0.010713 0.614277 0.686619 0.299704
C53   C     C_R   0.201293 0.457304 0.703591 -0.289024
C54   C     C_3   0.028333 0.629098 0.767892 -0.408347
C55   C     C_3   0.296261 0.318447 0.369111 0.315601
C56   C     C_3   0.884103 0.185910 0.683245 -0.190638
C57   C     C_3   0.291219 0.237007 0.346379 -0.394747
C58   C     C_3   0.614809 0.708138 0.659181 -0.290954
C59   C     C_3   0.429964 0.792494 0.779424 -0.394918
C60   C     C_3   0.020948 0.170618 0.737348 -0.430967
C61   C     C_3   0.376723 0.621473 0.931978 -0.418244
C62   C     C_3   0.770227 0.825873 0.264441 -0.426858
C63   C     C_3   0.428791 0.299871 0.712355 0.353228
C64   C     C_3   0.461719 0.275085 0.784513 -0.371207
C65   C     C_R   0.998812 0.951705 0.535976 0.009512
H1    H     H_    0.322876 0.642372 0.286105 0.083188
H2    H     H_    0.210861 0.719729 0.201084 0.151039
H3    H     H_    0.200691 0.221678 0.299709 0.121754
H4    H     H_    0.413199 0.218850 0.331602 0.118601
H5    H     H_    0.398612 0.680566 0.173752 0.066612
H6    H     H_    0.372605 0.670385 0.620098 0.066274
H7    H     H_    0.365142 0.801545 0.668520 0.059323
H8    H     H_    0.227041 0.747701 0.707470 0.129576
H9    H     H_    0.919745 0.848740 0.364131 0.075679
H10   H     H_    0.818426 0.266479 0.617716 0.084622
H11   H     H_    0.025818 0.275094 0.656782 -0.070457
H12   H     H_    0.736766 0.409278 0.205880 0.067214
H13   H     H_    0.890074 0.147232 0.633258 0.073969
H14   H     H_    0.294744 0.301352 0.700649 -0.059107
H15   H     H_    0.484339 0.354812 0.715964 0.081356
H16   H     H_    0.404434 0.312105 0.825982 0.067414
H17   H     H_    0.594874 0.275272 0.799224 0.151718
H18   H     H_    0.995870 0.729191 0.376326 0.090994
H19   H     H_    0.167012 0.345541 0.518450 0.071726
H20   H     H_    0.397544 0.131347 0.588444 0.110095
H21   H     H_    0.095708 0.799777 0.605385 0.085407
H22   H     H_    0.713357 0.200232 0.393960 0.098347
H23   H     H_    0.125935 0.594106 0.666646 0.001791
H24   H     H_    0.638875 0.655239 0.484956 0.081271
H25   H     H_    0.194650 0.918421 0.607906 0.056250
H26   H     H_    0.615283 0.081419 0.391298 0.058047
H27   H     H_    0.781743 0.722083 0.346932 -0.065902
H28   H     H_    0.505285 0.987983 0.413170 0.070377
H29   H     H_    0.514868 0.523455 0.823291 0.090635
H30   H     H_    0.485752 0.615304 0.067900 0.059927
H31   H     H_    0.298526 0.453063 0.183521 0.082260
H32   H     H_    0.305519 0.372816 0.940081 0.066223
H33   H     H_    0.393513 0.389067 0.067839 0.065404
H34   H     H_    0.913163 0.572394 0.669741 0.092077
H35   H     H_    0.061393 0.420530 0.858393 0.076546
H36   H     H_    0.728128 0.571459 0.144195 0.077807
H37   H     H_    0.161744 0.455557 0.647629 0.064311
H38   H     H_    0.030448 0.817979 0.288255 0.141691
H39   H     H_    0.647618 0.537367 0.357130 0.071994
H40   H     H_    0.882313 0.424929 0.326102 0.068044
H41   H     H_    0.675196 0.318263 0.213545 0.122252
H42   H     H_    0.888183 0.341909 0.209742 0.125512
H43   H     H_    0.256439 0.209242 0.390631 0.061224
H44   H     H_    0.513869 0.694714 0.298569 -0.054111
H45   H     H_    0.131282 0.668041 0.787023 0.125235
H46   H     H_    0.692976 0.718388 0.710265 0.128359
H47   H     H_    0.658130 0.660444 0.625353 0.087943
H48   H     H_    0.621745 0.755958 0.631567 0.021232
H49   H     H_    0.425354 0.752273 0.816520 0.154945
H50   H     H_    0.557763 0.811782 0.778312 0.119397
H51   H     H_    0.357989 0.839388 0.800181 0.108670
H52   H     H_    0.397831 0.774043 0.214360 0.107152
H53   H     H_    0.019818 0.209265 0.787800 0.148052
H54   H     H_    0.004405 0.114967 0.749311 0.123766
H55   H     H_    0.140649 0.175072 0.715036 0.126455
H56   H     H_    0.051626 0.578507 0.789687 0.070098
H57   H     H_    0.764448 0.176880 0.704173 0.146214
H58   H     H_    0.409928 0.219678 0.782516 0.105457
H59   H     H_    0.410735 0.868838 0.412253 0.110428
H60   H     H_    0.304210 0.011929 0.586286 0.069586
H61   H     H_    0.380925 0.670992 0.972541 0.110456
H62   H     H_    0.478326 0.626303 0.897977 0.119474
H63   H     H_    0.258488 0.620048 0.899396 0.122107
H64   H     H_    0.761855 0.787225 0.213697 0.149162
H65   H     H_    0.655981 0.822029 0.291143 0.128297
H66   H     H_    0.784170 0.881459 0.251961 0.123583
H67   H     H_    0.914398 0.651734 0.788200 0.120655
H68   H     H_    0.672924 0.395798 0.330808 0.008808
H69   H     H_    0.173447 0.335912 0.381969 0.007954
H70   H     H_    0.383780 0.331975 0.417073 0.073177
O1    O     O_2   0.118870 0.674530 0.547560 -0.470740
O2    O     O_2   0.760042 0.445727 0.746858 -0.492175
O3    O     O_3   0.846231 0.311269 0.724265 -0.603569
O4    O     O_3   0.870460 0.585330 0.542110 -0.488055
O5    O     O_3   0.436130 0.464210 0.414140 -0.487229
O6    O     O_2   0.629420 0.533310 0.672080 -0.458425
O7    O     O_3   0.439054 0.640656 0.719629 -0.650775
O8    O     O_2   0.565565 0.241468 0.527046 -0.495734
O9    O     O_3   0.499043 0.252044 0.659973 -0.607681
O10   O     O_3   0.354280 0.631750 0.418430 -0.479526
O11   O     O_2   0.239992 0.758025 0.471408 -0.495148
O12   O     O_3   0.344191 0.351102 0.312342 -0.636589
O13   O     O_3   0.972662 0.678591 0.661052 -0.657226
O14   O     O_3   0.313184 0.747042 0.339348 -0.612589
O15   O     O_2   0.180880 0.466650 0.327890 -0.463555
O16   O     O_3   0.939000 0.596010 0.380670 -0.489291
O17   O     O_2   0.042927 0.551898 0.252262 -0.484998
O18   O     O_3   0.941224 0.683856 0.270810 -0.607405
O19   O     O_2   0.691430 0.325420 0.452420 -0.466160
O20   O     O_3   0.939830 0.414660 0.457830 -0.492796
O21   O     O_3   0.456020 0.368240 0.581510 -0.479835
O22   O     O_3   0.842679 0.318417 0.338949 -0.640992
O23   O     O_3   0.374170 0.535780 0.585810 -0.478090
O24   O     O_3   0.871300 0.403980 0.619270 -0.487205
P1    P     P_3+3 0.947550 0.663200 0.567530 0.959708
P2    P     P_3+3 0.354660 0.445020 0.336980 0.985468
P3    P     P_3+3 0.907414 0.596168 0.288489 0.944172
P4    P     P_3+3 0.862750 0.336790 0.432410 0.973085
P5    P     P_3+3 0.892616 0.399295 0.710939 0.946516
P6    P     P_3+3 0.371518 0.725171 0.423813 0.930940
P7    P     P_3+3 0.445068 0.550821 0.676604 0.944935
P8    P     P_3+3 0.437324 0.274786 0.576201 0.929122

loop_
_geom_bond_atom_site_label_1
_geom_bond_atom_site_label_2
_ccdc_geom_bond_type
C56   C60   S    
C28   H40   S    
C25   C27   A    
C52   H34   S    
C25   H28   S    
C17   C18   A    
C58   H46   S    
C41   C61   S    
C52   O13   S    
C43   C44   A    
C42   C43   A    
C5    C9    A    
C24   C25   A    
C4    H18   S    
O7    P7    S    
C32   C38   A    
C15   C24   A    
O17   P3    D    
C26   C27   A    
C1    H2    S    
C40   H42   S    
C22   C24   A    
C38   P3    S    
C36   C37   A    
C32   C33   A    
C47   C51   A    
C55   C57   S    
C30   H24   S    
C13   C14   A    
C9    C22   A    
C57   H43   S    
Ba1   O15   S    
Ba1   Ba2   S    
C61   H63   S    
Ba1   O5    S    
C64   H16   S    
C58   H47   S    
C42   C51   S    
C20   H22   S    
C62   H65   S    
C6    C7    A    
C4    H27   S    
C55   O12   S    
C45   O3    S    
C48   P5    S    
C14   C20   A    
C21   C22   A    
C47   H35   S    
C55   H69   S    
C50   H29   S    
O12   P2    S    
C23   C58   S    
C7    C8    A    
C36   C46   S    
C61   H61   S    
C56   H13   S    
Ba2   O19   S    
O23   P7    S    
C19   H21   S    
O4    P1    S    
C27   H59   S    
Ba2   O6    S    
C39   C41   A    
C49   P7    S    
C28   O22   S    
O13   P1    S    
Ba2   O24   S    
C35   H31   S    
O8    P8    D    
C26   C29   A    
O3    P5    S    
C12   H44   S    
C4    C16   S    
C52   C54   S    
C15   C65   A    
O16   P3    S    
C59   H50   S    
C49   C50   A    
C32   H39   S    
C54   H56   S    
C43   H32   S    
O20   P4    S    
O5    P2    S    
C3    C5    A    
C57   H3    S    
C49   C53   A    
C5    C65   A    
C53   H37   S    
C33   P2    S    
C21   H26   S    
C11   H19   S    
O2    P5    D    
C41   C42   A    
C35   C36   A    
O10   P6    S    
C34   H8    S    
C3    C6    A    
C63   H14   S    
C29   C30   A    
C62   H64   S    
Ba2   O21   S    
C3    H60   S    
C59   H49   S    
C4    O18   S    
C55   H70   S    
O1    P1    D    
C10   C11   A    
Ba1   O16   S    
C17   C26   A    
Ba2   P4    S    
C1    C12   S    
C1    H52   S    
C52   H23   S    
C18   C31   A    
C29   P6    S    
Ba1   P1    S    
C28   H68   S    
C11   C13   A    
Ba2   O5    S    
C12   O14   S    
C39   H30   S    
Ba1   O10   S    
C23   O7    S    
C45   H10   S    
C34   C59   S    
C60   H55   S    
C50   C51   A    
Ba2   O4    S    
C44   H33   S    
C62   H66   S    
C34   H7    S    
C16   H9    S    
C33   C35   A    
C59   H51   S    
C60   H53   S    
Ba1   O23   S    
C28   C40   S    
O24   P5    S    
C2    C65   A    
C54   H67   S    
O21   P8    S    
C37   H36   S    
C10   P8    S    
O18   P3    S    
C56   H57   S    
C48   C53   A    
C64   H58   S    
C6    H20   S    
C30   C31   A    
Ba1   O20   S    
C31   P1    S    
C16   H38   S    
C63   C64   S    
C8    C14   A    
C45   C56   S    
C2    C19   A    
C16   C62   S    
C63   H15   S    
O19   P4    D    
Ba2   O20   S    
O14   P6    S    
C15   C17   A    
C39   C46   A    
C1    H5    S    
C23   H6    S    
C61   H62   S    
C7    C10   A    
O6    P7    D    
O15   P2    D    
Ba1   O4    S    
C8    C9    A    
C23   C34   S    
C64   H17   S    
C37   C38   A    
C44   C46   A    
O22   P4    S    
C40   H12   S    
C18   C19   A    
Ba1   P2    S    
Ba2   O23   S    
C47   C48   A    
O9    P8    S    
O11   P6    D    
C12   H1    S    
C20   C21   A    
C13   P4    S    
C58   H48   S    
C45   H11   S    
C63   O9    S    
C40   H41   S    
C54   H45   S    
C60   H54   S    
Ba1   O1    S    
C57   H4    S    
C2    H25   S    
