data_mof_unit_50996.cif
_audit_creation_date              2012-12-10T19:01:22-0500
_audit_creation_method            fapswitch 2.2
_symmetry_space_group_name_H-M    P1
_symmetry_Int_Tables_number       1
_space_group_crystal_system       triclinic
_cell_length_a                    9.557799
_cell_length_b                    10.891626
_cell_length_c                    15.482065
_cell_angle_alpha                 89.810882
_cell_angle_beta                  73.929014
_cell_angle_gamma                 90.959824
_cell_volume                      1548.42695842

loop_
_atom_site_label
_atom_site_type_symbol
_atom_type_description
_atom_site_fract_x
_atom_site_fract_y
_atom_site_fract_z
_atom_type_partial_charge
C1    C     C_R   0.996782 0.262893 0.504098 0.794651
C2    C     C_R   0.689236 0.533124 0.914058 0.036562
C3    C     C_R   0.787544 0.492450 0.961222 0.013646
C4    C     C_R   0.547142 0.567804 0.963022 0.112491
C5    C     C_R   0.493782 0.534474 0.055184 0.069403
C6    C     C_R   0.592939 0.489733 0.099973 -0.247584
C7    C     C_R   0.738400 0.473785 0.054280 -0.180540
C8    C     C_R   0.460637 0.641783 0.924302 -0.251136
C9    C     C_R   0.320583 0.672865 0.972848 -0.234855
C10   C     C_R   0.257934 0.621567 0.057510 0.180515
C11   C     C_R   0.344227 0.551856 0.099925 0.061598
C12   C     C_R   0.918331 0.502201 0.672639 0.826914
C13   C     C_R   0.110417 0.640718 0.100836 -0.130680
C14   C     C_R   0.048269 0.593709 0.187010 -0.208396
C15   C     C_R   0.277876 0.502415 0.185665 -0.266033
C16   C     C_R   0.116699 0.065527 0.502227 -0.037145
C17   C     C_R   0.990351 0.130271 0.511216 -0.234547
C18   C     C_R   0.858901 0.060449 0.525111 0.467481
C19   C     C_R   0.864805 0.931725 0.517403 -0.298308
C20   C     C_R   0.998418 0.870204 0.501927 -0.138129
C21   C     C_R   0.122527 0.942082 0.494062 0.021837
C22   C     C_3   0.283779 0.939909 0.480175 -0.535066
C23   C     C_R   0.000942 0.737425 0.499456 0.826377
C24   C     C_3   0.275789 0.080282 0.492780 0.384105
C25   C     C_R   0.607898 0.535141 0.425021 0.267747
C26   C     C_R   0.541856 0.452061 0.570102 -0.048116
C27   C     C_R   0.393646 0.449939 0.569284 -0.059970
C28   C     C_R   0.460668 0.534219 0.424860 0.260260
C29   C     C_3   0.476462 0.654984 0.378315 -0.512079
C30   C     C_3   0.634653 0.657494 0.379344 -0.509406
C31   C     C_R   0.082755 0.503308 0.327849 0.801612
C32   C     C_R   0.877169 0.506417 0.772198 -0.190336
C33   C     C_R   0.132913 0.527287 0.230746 -0.061563
C34   C     C_R   0.933693 0.471353 0.914797 0.304743
C35   C     C_R   0.980754 0.487296 0.820543 0.356498
C36   C     C_R   0.733811 0.533233 0.819449 -0.359733
Cu1   Cu    Cu3+1 0.140670 0.499980 0.500000 0.941529
Cu2   Cu    Cu3+1 0.859330 0.500020 0.500000 0.946851
H1    H     H_    0.333128 0.132287 0.430846 0.109281
H2    H     H_    0.569916 0.416839 0.628258 0.123379
H3    H     H_    0.312302 0.410880 0.625850 0.184591
H4    H     H_    0.461751 0.647862 0.309729 0.201944
H5    H     H_    0.337272 0.444998 0.219562 0.148712
H6    H     H_    0.410443 0.724753 0.421871 0.220897
H7    H     H_    0.936619 0.614473 0.220864 0.140806
H8    H     H_    0.656392 0.550748 0.781676 0.176086
H9    H     H_    0.563009 0.472765 0.171491 0.140099
H10   H     H_    0.502995 0.682188 0.858236 0.151596
N1    N     N_R   0.648210 0.500930 0.499430 -0.185767
N2    N     N_R   0.352300 0.500890 0.499430 -0.203092
O1    O     O_R   0.118810 0.319640 0.500000 -0.575825
O2    O     O_R   0.881230 0.319680 0.499990 -0.539038
O3    O     O_R   0.055580 0.499970 0.629840 -0.558325
O4    O     O_R   0.818000 0.500010 0.629830 -0.605343
O5    O     O_R   0.118770 0.680320 0.500010 -0.587018
O6    O     O_R   0.881190 0.680360 0.500000 -0.592023
O7    O     O_R   0.182000 0.499990 0.370170 -0.582718
O8    O     O_R   0.944420 0.500030 0.370160 -0.580348
H11   H     H_    0.811463 0.443277 0.092118 0.182050
H12   H     H_    0.043822 0.693804 0.068596 0.135654
O9    O     O_3   0.723890 0.114603 0.545396 -0.582087
C37   C     C_3   0.679287 0.144653 0.637948 0.119948
H13   H     H_    0.585042 0.206249 0.647867 0.174853
H14   H     H_    0.765138 0.196640 0.659544 0.112814
C38   C     C_3   0.629302 0.030660 0.697962 -0.403743
H15   H     H_    0.552847 0.975000 0.671114 0.236494
H16   H     H_    0.724501 0.973501 0.697877 0.208372
C39   C     C_3   0.554258 0.066359 0.794741 -0.925014
H17   H     H_    0.630738 0.119697 0.823339 0.264012
H18   H     H_    0.518400 0.982145 0.836139 0.262757
H19   H     H_    0.457220 0.122536 0.797523 0.248032
H20   H     H_    0.763479 0.880605 0.526521 0.177345
H21   H     H_    0.316380 0.887922 0.532925 0.196221
H22   H     H_    0.341770 0.915602 0.409952 0.168840
O10   O     O_3   0.314423 0.125721 0.569917 -0.581255
C40   C     C_3   0.229186 0.078751 0.654394 0.061260
H23   H     H_    0.304474 0.055240 0.694780 0.154236
H24   H     H_    0.166992 0.992984 0.650488 0.153108
C41   C     C_3   0.126566 0.176721 0.705631 -0.319647
H25   H     H_    0.191423 0.246989 0.730091 0.227401
H26   H     H_    0.071162 0.222843 0.660902 0.232832
C42   C     C_3   0.010463 0.121208 0.785185 -0.979977
H27   H     H_    0.943721 0.051385 0.761533 0.263776
H28   H     H_    0.937088 0.194436 0.820184 0.251084
H29   H     H_    0.062175 0.077649 0.833322 0.258702
H30   H     H_    0.710582 0.652828 0.310938 0.188338
H31   H     H_    0.660369 0.730824 0.422643 0.218569
H32   H     H_    0.259957 0.736068 0.943674 0.133973
O11   O     O_3   0.033396 0.447620 0.962609 -0.621958
C43   C     C_3   0.065649 0.321583 0.957135 0.045717
H33   H     H_    0.123817 0.296958 0.887014 0.185916
H34   H     H_    0.964220 0.264352 0.980895 0.137879
C44   C     C_3   0.165562 0.294460 0.016339 -0.308302
H35   H     H_    0.268169 0.349365 0.991966 0.230549
H36   H     H_    0.111319 0.321328 0.086707 0.230839
C45   C     C_3   0.202274 0.158518 0.014457 -0.944869
H37   H     H_    0.101603 0.101929 0.040994 0.257045
H38   H     H_    0.276635 0.142226 0.057008 0.263673
H39   H     H_    0.257105 0.129779 0.944703 0.256142
O12   O     O_3   0.126297 0.474123 0.774919 -0.633429
C46   C     C_3   0.209843 0.575252 0.791607 0.075955
H40   H     H_    0.320664 0.541423 0.787022 0.161599
H41   H     H_    0.166437 0.613759 0.859670 0.169946
C47   C     C_3   0.221016 0.678563 0.722403 -0.349371
H42   H     H_    0.251832 0.641383 0.653544 0.262193
H43   H     H_    0.113849 0.723364 0.733830 0.201794
C48   C     C_3   0.335998 0.774316 0.728263 -0.986163
H44   H     H_    0.303359 0.822641 0.793588 0.260176
H45   H     H_    0.348352 0.842260 0.673419 0.247660
H46   H     H_    0.443211 0.730802 0.719597 0.258963

loop_
_geom_bond_atom_site_label_1
_geom_bond_atom_site_label_2
_ccdc_geom_bond_type
C8    C9    A    
C16   C21   A    
C29   H4    S    
C19   C20   A    
C40   C41   S    
C4    C8    A    
C14   C33   A    
C47   H43   S    
C23   O6    A    
Cu2   N1    S    
C25   C28   A    
C26   C27   A    
Cu1   Cu2   S    
C32   C36   A    
C31   O8    A    
C28   C29   S    
C40   H24   S    
C5    C11   A    
C3    C7    A    
C9    H32   S    
C5    C6    A    
Cu1   O1    S    
Cu2   O2    S    
C45   H39   S    
C24   H1    S    
C34   C35   A    
C44   H36   S    
C37   H14   S    
Cu2   O8    S    
C11   C15   A    
C13   H12   S    
C39   H17   S    
C38   H16   S    
C45   H38   S    
C48   H44   S    
C31   C33   S    
C36   H8    S    
C30   H30   S    
C9    C10   A    
C12   O3    A    
C27   N2    A    
Cu1   O3    S    
C16   C24   S    
C21   C22   S    
C12   C32   S    
C48   H45   S    
C19   H20   S    
C28   N2    A    
C7    H11   S    
C47   H42   S    
C14   H7    S    
Cu1   O7    S    
C6    H9    S    
C46   H40   S    
C40   H23   S    
C26   N1    A    
C41   H26   S    
C18   C19   A    
C3    C34   A    
C2    C4    A    
O10   C40   S    
C32   C35   A    
C29   C30   S    
C27   H3    S    
C43   H34   S    
Cu2   O4    S    
C20   C23   S    
C38   C39   S    
C45   H37   S    
C37   H13   S    
C17   C18   A    
C24   O10   S    
C44   H35   S    
C1    O1    A    
C39   H18   S    
C38   H15   S    
C46   C47   S    
C42   H28   S    
C29   H6    S    
C48   H46   S    
C22   C24   S    
C22   H22   S    
C35   O12   S    
C43   C44   S    
C2    C36   A    
C25   C30   S    
C37   C38   S    
C4    C5    A    
C10   C13   A    
C41   C42   S    
C18   O9    S    
C23   O5    A    
C6    C7    A    
C44   C45   S    
C42   H29   S    
C1    C17   S    
C31   O7    A    
C2    C3    A    
C30   H31   S    
C34   O11   S    
C15   H5    S    
C8    H10   S    
Cu1   N2    S    
C26   H2    S    
C43   H33   S    
C16   C17   A    
C39   H19   S    
O12   C46   S    
O9    C37   S    
C1    O2    A    
C25   N1    A    
C10   C11   A    
C41   H25   S    
Cu1   O5    S    
Cu2   O6    S    
C20   C21   A    
C46   H41   S    
C42   H27   S    
C22   H21   S    
O11   C43   S    
C13   C14   A    
C15   C33   A    
C47   C48   S    
C12   O4    A    
