data_mof_unit_64625.cif
_audit_creation_date              2012-12-10T18:24:01-0500
_audit_creation_method            fapswitch 2.2
_symmetry_space_group_name_H-M    P1
_symmetry_Int_Tables_number       1
_space_group_crystal_system       triclinic
_cell_length_a                    22.423848
_cell_length_b                    22.487461
_cell_length_c                    14.630409
_cell_angle_alpha                 89.999433
_cell_angle_beta                  90.014328
_cell_angle_gamma                 89.999906
_cell_volume                      7377.46261924

loop_
_atom_site_label
_atom_site_type_symbol
_atom_type_description
_atom_site_fract_x
_atom_site_fract_y
_atom_site_fract_z
_atom_type_partial_charge
C1    C     C_R   0.419663 0.919749 0.499981 0.828145
C2    C     C_R   0.580337 0.080251 0.500019 0.828144
C3    C     C_R   0.580337 0.919749 0.500020 0.828145
C4    C     C_R   0.419663 0.080251 0.499980 0.828144
C5    C     C_R   0.919663 0.419749 0.499981 0.828144
C6    C     C_R   0.080337 0.580251 0.500019 0.828145
C7    C     C_R   0.080337 0.419749 0.500020 0.828144
C8    C     C_R   0.919663 0.580251 0.499980 0.828145
C9    C     C_1   0.336962 0.162673 0.499972 0.001630
C10   C     C_1   0.663039 0.837328 0.500028 0.001630
C11   C     C_1   0.663037 0.162673 0.500025 0.001630
C12   C     C_1   0.336962 0.837327 0.499975 0.001630
C13   C     C_1   0.836961 0.662672 0.499972 0.001630
C14   C     C_1   0.163038 0.337327 0.500028 0.001630
C15   C     C_1   0.163038 0.662673 0.500025 0.001630
C16   C     C_1   0.836962 0.337327 0.499975 0.001630
C17   C     C_1   0.499982 0.000000 0.194104 0.129038
C18   C     C_1   0.500017 0.000000 0.805896 0.129036
C19   C     C_1   0.999983 0.500000 0.194104 0.129036
C20   C     C_1   0.000018 0.500000 0.805896 0.129037
C21   C     C_3   0.527539 0.049061 0.969231 -0.138670
C22   C     C_3   0.472461 0.950939 0.030769 -0.138670
C23   C     C_3   0.471156 0.048310 0.030767 -0.138725
C24   C     C_3   0.528843 0.951690 0.969233 -0.138725
C25   C     C_3   0.027658 0.548994 0.969231 -0.138674
C26   C     C_3   0.972342 0.451006 0.030769 -0.138674
C27   C     C_3   0.971274 0.548379 0.030767 -0.138721
C28   C     C_3   0.028726 0.451620 0.969233 -0.138721
C29   C     C_3   0.696288 0.724427 0.499242 0.214928
C30   C     C_3   0.303712 0.275573 0.500718 0.214927
C31   C     C_3   0.303713 0.724425 0.500315 0.214926
C32   C     C_3   0.696287 0.275575 0.499686 0.214925
C33   C     C_3   0.196288 0.224427 0.499282 0.214927
C34   C     C_3   0.803712 0.775573 0.500758 0.214927
C35   C     C_3   0.803713 0.224425 0.500314 0.214925
C36   C     C_3   0.196287 0.775575 0.499685 0.214926
C37   C     C_3   0.244251 0.216325 0.424439 -0.208243
C38   C     C_3   0.755733 0.783658 0.575581 -0.208245
C39   C     C_3   0.755912 0.216162 0.575360 -0.208205
C40   C     C_3   0.244088 0.783838 0.424640 -0.208207
C41   C     C_3   0.744267 0.716341 0.424419 -0.208245
C42   C     C_3   0.255749 0.283675 0.575561 -0.208242
C43   C     C_3   0.255912 0.716161 0.575360 -0.208208
C44   C     C_3   0.744088 0.283838 0.424640 -0.208206
C45   C     C_1   0.374749 0.124974 0.499971 -0.145063
C46   C     C_1   0.625251 0.875027 0.500029 -0.145062
C47   C     C_1   0.625251 0.124974 0.500027 -0.145064
C48   C     C_1   0.374749 0.875026 0.499973 -0.145063
C49   C     C_1   0.874749 0.624973 0.499971 -0.145062
C50   C     C_1   0.125251 0.375026 0.500029 -0.145063
C51   C     C_1   0.125251 0.624974 0.500027 -0.145063
C52   C     C_1   0.874749 0.375026 0.499973 -0.145063
C53   C     C_3   0.243703 0.215734 0.574822 -0.208143
C54   C     C_3   0.756314 0.784282 0.425198 -0.208141
C55   C     C_3   0.756135 0.215897 0.424971 -0.208179
C56   C     C_3   0.243865 0.784103 0.575029 -0.208178
C57   C     C_3   0.743686 0.715718 0.574802 -0.208141
C58   C     C_3   0.256297 0.284266 0.425178 -0.208143
C59   C     C_3   0.256135 0.715897 0.424971 -0.208177
C60   C     C_3   0.743865 0.284103 0.575029 -0.208178
C61   C     C_3   0.291258 0.208556 0.499984 0.094761
C62   C     C_3   0.708742 0.791444 0.500016 0.094761
C63   C     C_3   0.708741 0.208557 0.500014 0.094762
C64   C     C_3   0.291258 0.791443 0.499986 0.094762
C65   C     C_3   0.791258 0.708556 0.499984 0.094761
C66   C     C_3   0.208742 0.291444 0.500016 0.094761
C67   C     C_3   0.208742 0.708557 0.500014 0.094762
C68   C     C_3   0.791258 0.291443 0.499986 0.094762
C69   C     C_3   0.556373 0.000752 0.030820 -0.141591
C70   C     C_3   0.443627 0.999249 0.969180 -0.141592
C71   C     C_3   0.056375 0.500615 0.030820 -0.141592
C72   C     C_3   0.943626 0.499385 0.969180 -0.141591
C73   C     C_3   0.499990 0.000000 0.091259 0.074998
C74   C     C_3   0.500009 1.000000 0.908741 0.074998
C75   C     C_3   0.999991 0.500000 0.091259 0.074998
C76   C     C_3   0.000010 0.500000 0.908741 0.074999
Cu1   Cu    Cu3+1 0.500000 1.000000 0.590220 0.998533
Cu2   Cu    Cu3+1 0.500000 0.000000 0.409780 0.998535
Cu3   Cu    Cu3+1 0.000000 0.500000 0.590220 0.998535
Cu4   Cu    Cu3+1 0.000000 0.500000 0.409780 0.998533
H1    H     H_    0.396944 0.998627 0.943941 0.138073
H2    H     H_    0.603055 0.001374 0.056058 0.138073
H3    H     H_    0.896941 0.498876 0.943942 0.138072
H4    H     H_    0.103059 0.501124 0.056059 0.138073
H5    H     H_    0.239920 0.188005 0.362646 0.166712
H6    H     H_    0.760051 0.811966 0.637390 0.166710
H7    H     H_    0.760377 0.187707 0.636986 0.166740
H8    H     H_    0.239623 0.812293 0.363014 0.166740
H9    H     H_    0.739949 0.688034 0.362609 0.166711
H10   H     H_    0.260080 0.311995 0.637354 0.166713
H11   H     H_    0.260377 0.687707 0.636986 0.166739
H12   H     H_    0.739623 0.312293 0.363014 0.166739
H13   H     H_    0.761107 0.813099 0.364034 0.166747
H14   H     H_    0.238922 0.186929 0.636002 0.166745
H15   H     H_    0.239218 0.812775 0.636381 0.166717
H16   H     H_    0.760782 0.187225 0.363619 0.166717
H17   H     H_    0.261078 0.313071 0.363998 0.166744
H18   H     H_    0.738893 0.686900 0.635966 0.166746
H19   H     H_    0.739218 0.312775 0.636381 0.166718
H20   H     H_    0.260782 0.687225 0.363619 0.166718
H21   H     H_    0.447270 0.088315 0.055960 0.139631
H22   H     H_    0.552729 0.911685 0.944040 0.139630
H23   H     H_    0.550344 0.089688 0.944034 0.139726
H24   H     H_    0.449655 0.910312 0.055966 0.139726
H25   H     H_    0.947486 0.588442 0.055961 0.139637
H26   H     H_    0.052515 0.411557 0.944040 0.139638
H27   H     H_    0.050563 0.589566 0.944034 0.139719
H28   H     H_    0.949438 0.410434 0.055966 0.139718
N1    N     N_1   0.499980 0.000000 0.274190 -0.150351
N2    N     N_1   0.500020 0.000000 0.725810 -0.150351
N3    N     N_1   0.999980 0.500000 0.274190 -0.150351
N4    N     N_1   0.000020 0.500000 0.725810 -0.150350
O1    O     O_R   0.439540 0.939530 0.576170 -0.569389
O2    O     O_R   0.560460 0.060470 0.423830 -0.569388
O3    O     O_R   0.560460 0.939530 0.423830 -0.569345
O4    O     O_R   0.439540 0.060470 0.576170 -0.569346
O5    O     O_R   0.939540 0.439530 0.576170 -0.569388
O6    O     O_R   0.060460 0.560470 0.423830 -0.569389
O7    O     O_R   0.060460 0.439530 0.423830 -0.569347
O8    O     O_R   0.939540 0.560470 0.576170 -0.569345
O9    O     O_R   0.439530 0.939530 0.423800 -0.569525
O10   O     O_R   0.560470 0.060470 0.576200 -0.569525
O11   O     O_R   0.560470 0.939530 0.576200 -0.569568
O12   O     O_R   0.439530 0.060470 0.423800 -0.569566
O13   O     O_R   0.939530 0.439530 0.423800 -0.569525
O14   O     O_R   0.060470 0.560470 0.576200 -0.569525
O15   O     O_R   0.060470 0.439530 0.576200 -0.569566
O16   O     O_R   0.939530 0.560470 0.423800 -0.569568
I1    I     I_    0.610197 0.683836 0.498037 -0.297887
I2    I     I_    0.389802 0.316166 0.501860 -0.297888
I3    I     I_    0.389805 0.683830 0.500814 -0.297891
I4    I     I_    0.610196 0.316171 0.499188 -0.297890
I5    I     I_    0.110198 0.183834 0.498140 -0.297888
I6    I     I_    0.889803 0.816164 0.501963 -0.297888
I7    I     I_    0.889804 0.183829 0.500812 -0.297890
I8    I     I_    0.110195 0.816170 0.499186 -0.297890

loop_
_geom_bond_atom_site_label_1
_geom_bond_atom_site_label_2
_ccdc_geom_bond_type
C56   H15   S    
C41   H9    S    
C9    C45   T    
C26   C72   S    
C11   C47   T    
Cu2   O3    S    
C39   H7    S    
C12   C48   T    
C60   H19   S    
C36   C67   S    
C13   C65   S    
Cu1   Cu2   S    
C4    O12   A    
C31   C43   S    
Cu3   N4    S    
C38   H6    S    
C9    C61   S    
C37   H5    S    
C11   C63   S    
C42   C53   S    
C12   C64   S    
C27   C75   S    
Cu4   O13   S    
C34   I6    S    
C30   C58   S    
C22   H24   S    
C20   C76   S    
C31   C59   S    
Cu2   O9    S    
C70   H1    S    
C54   H13   S    
C31   I3    S    
C69   H2    S    
C59   C67   S    
C20   N4    T    
C53   C61   S    
C58   C66   S    
C29   I1    S    
C28   H26   S    
C55   C63   S    
C70   C74   S    
C56   C64   S    
C5    C52   S    
C69   C73   S    
C16   C68   S    
C15   C51   T    
C6    C51   S    
Cu1   O4    S    
Cu2   O12   S    
C24   H22   S    
C37   C58   S    
C44   H12   S    
C72   C76   S    
Cu4   O7    S    
C39   C60   S    
C18   C74   S    
C40   C59   S    
C34   C38   S    
C17   C73   S    
C59   H20   S    
C23   C70   S    
C10   C62   S    
C58   H17   S    
C1    O1    A    
C23   C73   S    
Cu1   O1    S    
C36   I8    S    
C34   C65   S    
C3    O11   A    
C24   C69   S    
C1    O9    A    
C4    C45   S    
C2    O10   A    
C33   C53   S    
Cu4   O6    S    
C35   C55   S    
C7    O7    A    
C36   C40   S    
C6    O14   A    
C35   I7    S    
C41   C65   S    
C54   C62   S    
C30   I2    S    
C21   C74   S    
C33   C37   S    
C5    O5    A    
C42   H10   S    
C35   C39   S    
C10   C46   T    
Cu1   O11   S    
C38   C57   S    
C8    O16   A    
C15   C67   S    
Cu3   O8    S    
C26   C75   S    
C14   C66   S    
C60   C68   S    
C25   C71   S    
C43   C67   S    
Cu3   O14   S    
C29   C57   S    
C34   C54   S    
C21   C23   S    
C13   C49   T    
C44   C68   S    
C28   C71   S    
C25   C27   S    
C32   C60   S    
C26   H28   S    
C28   C76   S    
C32   I4    S    
C25   H27   S    
C71   H4    S    
C8    O8    A    
Cu3   O15   S    
C29   C62   S    
Cu2   O2    S    
C29   C41   S    
C53   H14   S    
Cu1   O10   S    
C31   C64   S    
C4    O4    A    
C16   C52   T    
C7    C50   S    
C57   C65   S    
C55   H16   S    
C17   N1    T    
C37   C61   S    
C1    C48   S    
C19   N3    T    
C2    C47   S    
C32   C63   S    
C39   C63   S    
C3    C46   S    
C26   C28   S    
C40   C64   S    
C25   C76   S    
C40   H8    S    
C19   C75   S    
Cu4   O16   S    
C3    O3    A    
C71   C75   S    
C2    O2    A    
C44   C55   S    
C24   C74   S    
C14   C50   T    
C35   C68   S    
C57   H18   S    
Cu3   O5    S    
Cu4   N3    S    
C36   C56   S    
C22   C70   S    
C5    O13   A    
Cu2   N1    S    
C22   C24   S    
Cu1   N2    S    
C43   H11   S    
C41   C54   S    
C72   H3    S    
C33   C66   S    
C23   H21   S    
Cu3   Cu4   S    
C21   H23   S    
C33   I5    S    
C43   C56   S    
C32   C44   S    
C18   N2    T    
C30   C61   S    
C21   C69   S    
C42   C66   S    
C27   H25   S    
C30   C42   S    
C22   C73   S    
C7    O15   A    
C8    C49   S    
C6    O6    A    
C27   C72   S    
C38   C62   S    
