data_mof_unit_27731.cif
_audit_creation_date              2012-12-10T17:14:08-0500
_audit_creation_method            fapswitch 2.2
_symmetry_space_group_name_H-M    P1
_symmetry_Int_Tables_number       1
_space_group_crystal_system       triclinic
_cell_length_a                    15.906639
_cell_length_b                    12.984166
_cell_length_c                    11.797775
_cell_angle_alpha                 100.832727
_cell_angle_beta                  93.425261
_cell_angle_gamma                 91.778256
_cell_volume                      2386.73034632

loop_
_atom_site_label
_atom_site_type_symbol
_atom_type_description
_atom_site_fract_x
_atom_site_fract_y
_atom_site_fract_z
_atom_type_partial_charge
C1    C     C_R   0.497141 0.299029 0.477597 0.917356
C2    C     C_3   0.951343 0.408547 0.559591 -0.235097
C3    C     C_3   0.916447 0.498026 0.499872 -0.027502
C4    C     C_3   0.954712 0.606334 0.570137 -0.265770
C5    C     C_3   0.055706 0.609794 0.575009 -0.148805
C6    C     C_1   0.823877 0.498791 0.498885 -0.062520
C7    C     C_1   0.176247 0.500820 0.501113 -0.009666
C8    C     C_1   0.251505 0.500232 0.501434 -0.007172
C9    C     C_R   0.497202 0.815071 0.536703 -0.087551
C10   C     C_R   0.490532 0.184297 0.463449 -0.122490
C11   C     C_R   0.428013 0.014121 0.365498 -0.071282
C12   C     C_R   0.340595 0.499798 0.500490 0.863754
C13   C     C_R   0.434800 0.123996 0.375582 -0.107533
C14   C     C_R   0.535219 0.135269 0.544284 -0.047152
C15   C     C_R   0.509767 0.032209 0.551929 -0.001963
C16   C     C_R   0.467299 0.968176 0.453335 0.119953
C17   C     C_R   0.467020 0.859206 0.444140 -0.163530
C18   C     C_R   0.521297 0.880097 0.642832 -0.181426
C19   C     C_R   0.527512 0.988945 0.652446 -0.048593
C20   C     C_R   0.413968 0.403437 0.025911 -0.104196
C21   C     C_R   0.423290 0.416114 0.147122 0.117975
C22   C     C_R   0.538701 0.535756 0.156485 0.089137
C23   C     C_R   0.499720 0.700963 0.522374 0.817473
C24   C     C_R   0.533718 0.526725 0.033886 0.027195
C25   C     C_R   0.468112 0.463221 0.966376 -0.078675
C26   C     C_R   0.458388 0.464577 0.844094 0.122554
C27   C     C_R   0.582069 0.575763 0.856734 0.105431
C28   C     C_R   0.591969 0.581098 0.978241 -0.166160
C29   C     C_R   0.659440 0.500131 0.499508 0.855923
C30   C     C_3   0.049557 0.407053 0.554420 -0.214559
C31   C     C_3   0.043495 0.493321 0.372331 -0.230978
C32   C     C_3   0.944678 0.487800 0.372769 -0.219238
C33   C     C_1   0.748611 0.499478 0.498644 -0.039489
C34   C     C_3   0.083676 0.501483 0.499936 -0.048621
Cu1   Cu    Cu3+1 0.506190 0.507730 0.615930 1.051993
Cu2   Cu    Cu3+1 0.493810 0.492270 0.384070 1.002852
H1    H     H_    0.074099 0.421863 0.646370 0.107632
H2    H     H_    0.938793 0.430172 0.652501 0.143290
H3    H     H_    0.930465 0.665149 0.520750 0.229720
H4    H     H_    0.444122 0.807749 0.364478 0.185994
H5    H     H_    0.534067 0.846330 0.718628 0.238923
H6    H     H_    0.382338 0.371968 0.192230 0.179261
H7    H     H_    0.584870 0.587957 0.211229 0.166335
H8    H     H_    0.060002 0.569023 0.346491 0.132083
H9    H     H_    0.923581 0.560083 0.342927 0.169737
N1    N     N_R   0.515490 0.519350 0.790130 -0.252826
N2    N     N_R   0.484510 0.480650 0.209890 -0.222422
O1    O     O_R   0.504390 0.354460 0.582000 -0.518078
O2    O     O_R   0.493940 0.341410 0.386200 -0.597993
O3    O     O_R   0.384660 0.506540 0.597940 -0.585009
O4    O     O_R   0.374210 0.493480 0.402140 -0.569001
O5    O     O_R   0.506060 0.658590 0.613800 -0.562686
O6    O     O_R   0.495610 0.645540 0.418000 -0.602664
O7    O     O_R   0.625790 0.506520 0.597860 -0.556270
O8    O     O_R   0.615340 0.493460 0.402060 -0.578738
C35   C     C_2   0.903773 0.303208 0.523813 0.529015
H10   H     H_    0.853404 0.290708 0.456108 0.106330
O9    O     O_2   0.918865 0.231965 0.575393 -0.496107
C36   C     C_2   0.372181 0.950143 0.270589 0.378489
H11   H     H_    0.377137 0.959780 0.181954 0.135617
O10   O     O_2   0.318412 0.888414 0.291469 -0.495396
C37   C     C_2   0.541764 0.054320 0.770442 0.828786
O11   O     O_2   0.513317 0.141802 0.792188 -0.584032
O12   O     O_R   0.585539 0.014381 0.857917 -0.739108
H12   H     H_    0.590338 0.065645 0.934517 0.351680
C38   C     C_2   0.379221 0.175306 0.299158 0.858309
O13   O     O_2   0.329020 0.238610 0.341401 -0.544340
O14   O     O_R   0.383605 0.150065 0.179287 -0.782559
H13   H     H_    0.338825 0.184542 0.136504 0.360635
C39   C     C_2   0.617447 0.181614 0.604139 0.442818
H14   H     H_    0.651281 0.143149 0.665646 0.093242
O15   O     O_2   0.652270 0.258661 0.579152 -0.553135
C40   C     C_2   0.381072 0.416249 0.778079 0.873486
O16   O     O_2   0.382631 0.331751 0.712152 -0.556056
O17   O     O_R   0.304844 0.465781 0.795828 -0.742079
H15   H     H_    0.255593 0.424839 0.747505 0.344982
C41   C     C_2   0.085247 0.301173 0.506266 1.008747
O18   O     O_2   0.146913 0.272135 0.556833 -0.560214
O19   O     O_R   0.048414 0.236198 0.406686 -0.668818
H16   H     H_    0.078597 0.168339 0.385219 0.366645
C42   C     C_2   0.649100 0.627680 0.803514 0.887506
O20   O     O_2   0.718581 0.589921 0.797163 -0.556846
O21   O     O_R   0.635817 0.723413 0.769914 -0.771384
H17   H     H_    0.687192 0.751702 0.736865 0.355252
C43   C     C_2   0.351996 0.320119 0.967586 0.379288
H18   H     H_    0.369177 0.262306 0.894855 0.149258
O22   O     O_2   0.281557 0.314004 0.002357 -0.507124
C44   C     C_2   0.665588 0.642830 0.044788 0.379416
H19   H     H_    0.682058 0.720464 0.029153 0.098868
O23   O     O_2   0.711040 0.605089 0.112005 -0.482550
C45   C     C_2   0.080207 0.416686 0.275220 0.965399
O24   O     O_2   0.137172 0.359997 0.294301 -0.533210
O25   O     O_R   0.051476 0.416841 0.160850 -0.721017
H20   H     H_    0.080876 0.364744 0.102869 0.371146
C46   C     C_2   0.899070 0.398841 0.285908 0.894614
O26   O     O_2   0.839690 0.418602 0.223838 -0.526978
O27   O     O_R   0.924759 0.295777 0.274360 -0.717067
H21   H     H_    0.889064 0.245109 0.213020 0.353593
C47   C     C_2   0.095250 0.626204 0.699368 0.356003
H22   H     H_    0.137662 0.570495 0.726672 0.103673
O28   O     O_2   0.084053 0.706223 0.769015 -0.471430
C48   C     C_2   0.090540 0.704463 0.527310 0.919094
O29   O     O_2   0.166824 0.721495 0.529480 -0.564481
O30   O     O_R   0.036981 0.772900 0.482841 -0.741000
H23   H     H_    0.068790 0.831312 0.455059 0.368727
C49   C     C_2   0.917899 0.636696 0.687529 0.538505
H24   H     H_    0.930119 0.591684 0.754950 0.095930
O31   O     O_2   0.874392 0.713032 0.707723 -0.489035

loop_
_geom_bond_atom_site_label_1
_geom_bond_atom_site_label_2
_ccdc_geom_bond_type
C38   O14   S    
O25   H20   S    
C29   C33   S    
C14   C39   S    
C40   O16   D    
C46   O26   D    
C3    C6    S    
C42   O20   D    
C7    C8    T    
C43   H18   S    
C15   C19   A    
O21   H17   S    
C20   C25   A    
C19   C37   S    
C15   C16   A    
O27   H21   S    
C26   C40   S    
C35   H10   S    
Cu2   N2    S    
C18   C19   A    
C32   H9    S    
C37   O12   S    
Cu2   O6    S    
O14   H13   S    
C30   C41   S    
C5    C47   S    
C16   C17   A    
C28   C44   S    
C39   H14   S    
C41   O19   S    
C22   N2    A    
C36   H11   S    
C20   C43   S    
Cu1   O7    S    
C40   O17   S    
C3    C32   S    
C11   C36   S    
Cu1   O1    S    
O30   H23   S    
C42   O21   S    
C23   O6    A    
C13   C38   S    
C43   O22   D    
C36   O10   D    
C31   H8    S    
C30   C34   S    
C27   C42   S    
C24   C25   A    
C10   C14   A    
C18   H5    S    
C45   O24   D    
C9    C23   S    
C29   O8    A    
C25   C26   A    
C41   O18   D    
C4    C49   S    
O19   H16   S    
C30   H1    S    
C17   H4    S    
O17   H15   S    
C37   O11   D    
C45   O25   S    
C11   C16   A    
C2    H2    S    
C31   C32   S    
C4    H3    S    
C8    C12   S    
C5    C34   S    
Cu1   O3    S    
C31   C34   S    
C49   H24   S    
C20   C21   A    
C48   O30   S    
Cu2   O4    S    
C27   N1    A    
C9    C17   A    
C47   O28   D    
C44   O23   D    
C31   C45   S    
C7    C34   S    
C22   C24   A    
C3    C4    S    
Cu1   O5    S    
C12   O4    A    
C5    C48   S    
C1    C10   S    
C24   C28   A    
C4    C5    S    
C10   C13   A    
C12   O3    A    
C46   O27   S    
C1    O1    A    
C6    C33   T    
C2    C30   S    
O12   H12   S    
C2    C3    S    
Cu2   O8    S    
C2    C35   S    
C47   H22   S    
C11   C13   A    
C23   O5    A    
C49   O31   D    
C35   O9    D    
C38   O13   D    
C48   O29   D    
C26   N1    A    
C21   H6    S    
C9    C18   A    
C32   C46   S    
C44   H19   S    
C29   O7    A    
C27   C28   A    
C14   C15   A    
C39   O15   D    
Cu1   Cu2   S    
Cu1   N1    S    
C1    O2    A    
C22   H7    S    
Cu2   O2    S    
C21   N2    A    
