data_mof_unit_13668.cif
_audit_creation_date              2012-12-11T16:44:17-0500
_audit_creation_method            fapswitch 2.2
_symmetry_space_group_name_H-M    P1
_symmetry_Int_Tables_number       1
_space_group_crystal_system       triclinic
_cell_length_a                    27.037676
_cell_length_b                    7.191928
_cell_length_c                    22.774662
_cell_angle_alpha                 89.99985
_cell_angle_beta                  101.908741
_cell_angle_gamma                 89.999738
_cell_volume                      4333.28727047

loop_
_atom_site_label
_atom_site_type_symbol
_atom_type_description
_atom_site_fract_x
_atom_site_fract_y
_atom_site_fract_z
_atom_type_partial_charge
O1    O     O_R   0.707300 0.594030 0.176840 -0.533003
O2    O     O_R   0.292700 0.405970 0.823160 -0.526718
O3    O     O_R   0.792700 0.094030 0.323160 -0.533003
O4    O     O_R   0.207300 0.905970 0.676840 -0.526718
O5    O     O_R   0.697330 0.262360 0.295660 -0.537910
O6    O     O_R   0.302670 0.737640 0.704340 -0.546046
O7    O     O_R   0.802670 0.762360 0.204340 -0.537910
O8    O     O_R   0.197330 0.237640 0.795660 -0.546047
C1    C     C_R   0.685664 0.431635 0.312778 0.685957
C2    C     C_R   0.316193 0.568080 0.689288 0.669716
C3    C     C_R   0.814336 0.931635 0.187222 0.685961
C4    C     C_R   0.183807 0.068080 0.810711 0.669717
O9    O     O_R   0.701410 0.264250 0.175600 -0.533032
O10   O     O_R   0.298590 0.735750 0.824400 -0.537888
O11   O     O_R   0.798590 0.764250 0.324400 -0.533033
O12   O     O_R   0.201410 0.235750 0.675600 -0.537890
O13   O     O_R   0.796800 0.094950 0.202240 -0.537616
O14   O     O_R   0.203200 0.905050 0.797760 -0.532524
O15   O     O_R   0.703200 0.594950 0.297760 -0.537616
O16   O     O_R   0.296800 0.405050 0.702240 -0.532524
C5    C     C_R   0.689683 0.431903 0.153053 0.696904
C6    C     C_R   0.310609 0.567451 0.846653 0.682809
C7    C     C_R   0.810317 0.931902 0.346948 0.696905
C8    C     C_R   0.189391 0.067452 0.653347 0.682810
O17   O     O_3   0.781290 0.427390 0.258880 -0.372575
O18   O     O_3   0.218710 0.572610 0.741120 -0.370103
O19   O     O_3   0.718710 0.927390 0.241120 -0.372575
O20   O     O_3   0.281290 0.072610 0.758880 -0.370102
V1    V     V_3+5 0.744190 0.152150 0.248350 1.387593
V2    V     V_3+5 0.255810 0.847850 0.751650 1.385595
V3    V     V_3+5 0.755810 0.652150 0.251650 1.387593
V4    V     V_3+5 0.244190 0.347850 0.748350 1.385595
C9    C     C_R   0.154923 0.060379 0.593916 -0.051788
C10   C     C_R   0.845886 0.928670 0.405813 -0.055880
C11   C     C_R   0.345077 0.560373 0.906084 -0.051776
C12   C     C_R   0.654115 0.428676 0.094186 -0.055872
C13   C     C_R   0.141230 0.107309 0.486675 -0.154776
C14   C     C_R   0.867097 0.782727 0.503495 -0.154552
C15   C     C_R   0.358766 0.607247 0.013327 -0.154774
C16   C     C_R   0.632907 0.282770 0.996500 -0.154550
C17   C     C_R   0.172937 0.113277 0.543217 -0.165211
C18   C     C_R   0.831539 0.829879 0.452414 -0.173463
C19   C     C_R   0.327060 0.613231 0.956784 -0.165209
C20   C     C_R   0.668463 0.329909 0.047583 -0.173468
C21   C     C_R   0.104314 0.002851 0.587353 -0.209462
C22   C     C_R   0.896802 0.982386 0.411737 -0.207360
C23   C     C_R   0.395688 0.502863 0.912645 -0.209464
C24   C     C_R   0.603197 0.482375 0.088264 -0.207359
C25   C     C_R   0.072614 0.980021 0.529689 0.080882
C26   C     C_R   0.934886 0.915004 0.459922 0.081210
C27   C     C_R   0.427386 0.480013 0.970308 0.080882
C28   C     C_R   0.565115 0.415004 0.040076 0.081210
C29   C     C_R   0.091311 0.042575 0.479584 0.105483
C30   C     C_R   0.918528 0.821459 0.507255 0.110428
C31   C     C_R   0.408687 0.542530 0.020416 0.105487
C32   C     C_R   0.581476 0.321489 0.992739 0.110429
C33   C     C_R   0.022320 0.905982 0.520266 0.003858
C34   C     C_R   0.988301 0.938440 0.463526 0.004442
C35   C     C_R   0.477682 0.405985 0.979729 0.003857
C36   C     C_R   0.511699 0.438424 0.036472 0.004441
C37   C     C_R   0.010455 0.974981 0.412596 0.136570
C38   C     C_R   0.005448 0.786377 0.562410 0.134008
C39   C     C_R   0.489544 0.474932 0.087402 0.136569
C40   C     C_R   0.494557 0.286409 0.937581 0.134010
C41   C     C_R   0.060972 0.033541 0.422257 -0.248414
C42   C     C_R   0.953573 0.754857 0.556340 -0.243359
C43   C     C_R   0.439025 0.533477 0.077743 -0.248412
C44   C     C_R   0.546432 0.254901 0.943651 -0.243359
H1    H     H_    0.077562 0.068350 0.384167 0.115152
H2    H     H_    0.940249 0.669804 0.589251 0.117279
H3    H     H_    0.422434 0.568260 0.115834 0.115152
H4    H     H_    0.559759 0.169869 0.910737 0.117278
H5    H     H_    0.905597 0.075361 0.378559 0.110516
H6    H     H_    0.089565 0.989197 0.627511 0.097753
H7    H     H_    0.594400 0.575330 0.121446 0.110511
H8    H     H_    0.410437 0.489237 0.872487 0.097750
H9    H     H_    0.792733 0.784838 0.448485 0.111253
H10   H     H_    0.211576 0.160512 0.547503 0.104349
H11   H     H_    0.707271 0.284880 0.051511 0.111251
H12   H     H_    0.288420 0.660448 0.952500 0.104344
H13   H     H_    0.155994 0.151777 0.448179 0.111156
H14   H     H_    0.854625 0.706830 0.538925 0.112099
H15   H     H_    0.344000 0.651686 0.051825 0.111154
H16   H     H_    0.645381 0.206892 0.961067 0.112098
C45   C     C_R   0.888871 0.079822 0.157876 -0.211874
C46   C     C_R   0.141380 0.899236 0.882580 -0.178026
C47   C     C_R   0.611130 0.579822 0.342126 -0.211876
C48   C     C_R   0.358619 0.399234 0.617420 -0.178027
H17   H     H_    0.889773 0.179900 0.193640 0.125423
H18   H     H_    0.167798 0.785936 0.882781 0.130891
H19   H     H_    0.610227 0.679902 0.306362 0.125422
H20   H     H_    0.332201 0.285937 0.617218 0.130891
C49   C     C_R   0.925360 0.092725 0.122571 -0.151180
C50   C     C_R   0.105547 0.882131 0.918477 -0.172760
C51   C     C_R   0.574641 0.592724 0.377432 -0.151171
C52   C     C_R   0.394452 0.382127 0.581522 -0.172759
H21   H     H_    0.952767 0.204485 0.130830 0.109461
H22   H     H_    0.104694 0.756222 0.944362 0.121303
H23   H     H_    0.547234 0.704484 0.369173 0.109457
H24   H     H_    0.395305 0.256219 0.555637 0.121304
C53   C     C_R   0.926277 0.963674 0.076749 0.087197
C54   C     C_R   0.071015 0.025138 0.920998 0.070954
C55   C     C_R   0.573725 0.463672 0.423253 0.087196
C56   C     C_R   0.428985 0.525131 0.579003 0.070955
C57   C     C_R   0.888842 0.825976 0.065188 -0.186997
C58   C     C_R   0.073409 0.187173 0.887608 -0.127617
C59   C     C_R   0.611160 0.325975 0.434814 -0.186999
C60   C     C_R   0.426592 0.687164 0.612393 -0.127621
H25   H     H_    0.888850 0.729840 0.028531 0.113837
H26   H     H_    0.048068 0.299265 0.892697 0.116890
H27   H     H_    0.611153 0.229838 0.471471 0.113835
H28   H     H_    0.451934 0.799253 0.607306 0.116891
C61   C     C_R   0.851097 0.812698 0.099392 0.140312
C62   C     C_R   0.107728 0.204990 0.848647 0.116898
C63   C     C_R   0.648904 0.312698 0.400609 0.140317
C64   C     C_R   0.392273 0.704984 0.651353 0.116897
C65   C     C_R   0.851797 0.939484 0.147694 -0.055906
C66   C     C_R   0.143624 0.059221 0.847396 -0.107692
C67   C     C_R   0.648204 0.439484 0.352307 -0.055905
C68   C     C_R   0.356376 0.559219 0.652604 -0.107692
C69   C     C_R   0.016866 0.955820 0.060751 0.158539
C70   C     C_R   0.980144 0.019055 0.936526 0.157107
C71   C     C_R   0.483135 0.455819 0.439250 0.158546
C72   C     C_R   0.519857 0.519038 0.563476 0.157106
C73   C     C_R   0.050398 0.973202 0.021275 -0.233730
C74   C     C_R   0.946829 0.006969 0.976366 -0.235249
C75   C     C_R   0.449603 0.473199 0.478726 -0.233727
C76   C     C_R   0.553172 0.506954 0.523637 -0.235248
H29   H     H_    0.090695 0.959372 0.038589 0.122599
H30   H     H_    0.906466 0.018837 0.959134 0.122323
H31   H     H_    0.409306 0.459374 0.461411 0.122597
H32   H     H_    0.593535 0.518817 0.540869 0.122324
C77   C     C_R   0.032998 0.006421 0.959650 0.042062
C78   C     C_R   0.964307 0.977435 0.038083 0.042249
C79   C     C_R   0.467003 0.506411 0.540351 0.042063
C80   C     C_R   0.535694 0.477428 0.461919 0.042240
C81   C     C_3   0.038290 0.907015 0.125783 -0.357952
C82   C     C_3   0.027124 0.705092 0.139336 -0.749607
H33   H     H_    0.985893 0.681237 0.133774 0.231409
H34   H     H_    0.042424 0.609923 0.109013 0.224766
H35   H     H_    0.045353 0.671768 0.186440 0.210725
H36   H     H_    0.080006 0.925803 0.136362 0.169526
H37   H     H_    0.023322 0.001419 0.156396 0.173347
C83   C     C_3   0.957559 0.038847 0.869993 -0.358350
C84   C     C_3   0.965646 0.864372 0.834932 -0.749323
H38   H     H_    0.005988 0.848782 0.832824 0.237161
H39   H     H_    0.952873 0.738869 0.856073 0.225321
H40   H     H_    0.943512 0.875587 0.788238 0.212213
H41   H     H_    0.916127 0.063199 0.862689 0.171112
H42   H     H_    0.973121 0.161735 0.850797 0.171719
C85   C     C_3   0.461711 0.407030 0.374217 -0.357954
C86   C     C_3   0.472873 0.205106 0.360660 -0.749606
H43   H     H_    0.514104 0.181218 0.366244 0.231411
H44   H     H_    0.457553 0.109934 0.390964 0.224761
H45   H     H_    0.454660 0.171819 0.313547 0.210726
H46   H     H_    0.419997 0.425834 0.363637 0.169526
H47   H     H_    0.476682 0.501434 0.343606 0.173346
C87   C     C_3   0.542441 0.538817 0.630010 -0.358348
C88   C     C_3   0.534351 0.364338 0.665067 -0.749325
H48   H     H_    0.494010 0.348767 0.667179 0.237160
H49   H     H_    0.547118 0.238834 0.643921 0.225323
H50   H     H_    0.556489 0.375535 0.711761 0.212212
H51   H     H_    0.583874 0.563159 0.637314 0.171112
H52   H     H_    0.526880 0.661705 0.649207 0.171719
C89   C     C_3   0.986993 0.917733 0.348128 -0.339322
C90   C     C_3   0.971163 0.713116 0.343314 -0.738158
H53   H     H_    0.939114 0.686221 0.365578 0.233318
H54   H     H_    0.003519 0.623290 0.363993 0.226003
H55   H     H_    0.959042 0.674371 0.295279 0.208060
H56   H     H_    0.955942 0.009016 0.326130 0.156765
H57   H     H_    0.015080 0.933442 0.319001 0.171875
C91   C     C_3   0.040199 0.657134 0.605935 -0.353496
C92   C     C_3   0.072703 0.534685 0.573985 -0.695440
H58   H     H_    0.048412 0.456297 0.536861 0.225729
H59   H     H_    0.100353 0.618804 0.555632 0.231785
H60   H     H_    0.094099 0.433328 0.606357 0.213630
H61   H     H_    0.063830 0.729565 0.644297 0.165015
H62   H     H_    0.017464 0.560207 0.627771 0.171853
C93   C     C_3   0.513006 0.417660 0.151868 -0.339322
C94   C     C_3   0.528841 0.213047 0.156674 -0.738156
H63   H     H_    0.560890 0.186175 0.134409 0.233320
H64   H     H_    0.496486 0.123220 0.135991 0.226004
H65   H     H_    0.540962 0.174283 0.204708 0.208057
H66   H     H_    0.544055 0.508944 0.173871 0.156766
H67   H     H_    0.484918 0.433344 0.180996 0.171874
C95   C     C_3   0.459809 0.157178 0.894049 -0.353493
C96   C     C_3   0.427307 0.034701 0.925992 -0.695441
H68   H     H_    0.451598 0.956304 0.963114 0.225727
H69   H     H_    0.399653 0.118802 0.944348 0.231787
H70   H     H_    0.405913 0.933352 0.893615 0.213620
H71   H     H_    0.436177 0.229621 0.855690 0.165013
H72   H     H_    0.482546 0.060270 0.872209 0.171852
C97   C     C_3   0.809700 0.669053 0.080485 -0.368532
C98   C     C_3   0.759096 0.760735 0.053569 -0.737446
H73   H     H_    0.744661 0.842508 0.087752 0.223057
H74   H     H_    0.763215 0.853854 0.015953 0.218035
H75   H     H_    0.730818 0.652071 0.035887 0.216155
H76   H     H_    0.819278 0.574862 0.045742 0.168517
H77   H     H_    0.806070 0.577056 0.118385 0.196348
C99   C     C_3   0.105512 0.375251 0.808059 -0.311154
C100  C     C_3   0.058190 0.496500 0.801706 -0.822255
H78   H     H_    0.023520 0.411370 0.787335 0.229867
H79   H     H_    0.057340 0.567829 0.844664 0.231041
H80   H     H_    0.058867 0.605167 0.767214 0.223024
H81   H     H_    0.138841 0.464953 0.825040 0.194826
H82   H     H_    0.106917 0.327406 0.762008 0.178485
C101  C     C_3   0.690302 0.169052 0.419514 -0.368533
C102  C     C_3   0.740906 0.260730 0.446429 -0.737448
H83   H     H_    0.755340 0.342509 0.412246 0.223056
H84   H     H_    0.736789 0.353843 0.484048 0.218034
H85   H     H_    0.769185 0.152064 0.464109 0.216155
H86   H     H_    0.680724 0.074860 0.454258 0.168518
H87   H     H_    0.693931 0.077056 0.381614 0.196349
C103  C     C_3   0.394488 0.875245 0.691942 -0.311153
C104  C     C_3   0.441810 0.996492 0.698294 -0.822255
H88   H     H_    0.476481 0.911361 0.712665 0.229866
H89   H     H_    0.442660 0.067820 0.655336 0.231042
H90   H     H_    0.441133 0.105160 0.732786 0.223024
H91   H     H_    0.361160 0.964948 0.674960 0.194827
H92   H     H_    0.393084 0.827399 0.737992 0.178483

loop_
_geom_bond_atom_site_label_1
_geom_bond_atom_site_label_2
_ccdc_geom_bond_type
C91   H61   S    
C89   H57   S    
C98   H74   S    
C81   H36   S    
C48   C52   A    
O1    C5    A    
C89   C90   S    
C56   C79   S    
C47   H19   S    
O19   V1    S    
C9    C21   A    
C100  H78   S    
C16   H16   S    
O3    C7    A    
C10   C18   A    
C70   C83   S    
C55   C80   S    
C11   C23   A    
C40   C95   S    
C84   H38   S    
C39   C93   S    
C33   C38   A    
C5    C12   S    
C42   H2    S    
C92   H58   S    
C91   C92   S    
O7    C3    A    
C6    C11   S    
C35   C40   A    
C99   H81   S    
C58   C62   A    
C36   C39   A    
C85   H47   S    
C57   C61   A    
C75   C79   A    
C23   H8    S    
C14   C18   A    
C63   C101  S    
C103  H91   S    
C76   C80   A    
C58   H26   S    
O4    C8    A    
C51   H23   S    
C44   H4    S    
C98   H75   S    
C50   H22   S    
C73   C77   A    
C97   H76   S    
O1    V3    S    
O13   V1    S    
C31   C43   A    
O2    V4    S    
C69   C81   S    
C95   H71   S    
O3    V1    S    
C96   H70   S    
C83   H42   S    
C46   C50   A    
C45   C49   A    
C1    O15   A    
C15   C31   A    
C48   H20   S    
C2    O16   A    
C99   C100  S    
C16   C32   A    
C72   C87   S    
O2    C6    A    
C85   C86   S    
C88   H49   S    
C54   C58   A    
C10   C22   A    
C69   C78   A    
C48   C68   A    
C11   C19   A    
C16   C20   A    
C37   C89   S    
C104  H89   S    
C94   H65   S    
C87   H52   S    
C39   C43   A    
C72   C76   A    
C13   C29   A    
C34   C37   A    
O11   C7    A    
C98   H73   S    
C81   H37   S    
O15   V3    S    
C35   C36   A    
O12   C8    A    
C62   C99   S    
C14   H14   S    
C90   H54   S    
C100  H79   S    
C24   H7    S    
C13   H13   S    
C47   C67   A    
C61   C97   S    
O10   V2    S    
C76   H32   S    
C84   H39   S    
C51   C55   A    
O5    V1    S    
C92   H59   S    
C53   C57   A    
C71   C85   S    
O7    V3    S    
C38   C42   A    
C101  C102  S    
O8    V4    S    
C64   C103  S    
C46   H18   S    
C104  H90   S    
C49   C53   A    
C17   H10   S    
C45   H17   S    
C103  C104  S    
C102  H83   S    
C15   C19   A    
C27   C31   A    
C19   H12   S    
C32   C44   A    
C64   C68   A    
C47   C51   A    
C21   H6    S    
C26   C34   A    
C70   C74   A    
C104  H88   S    
C70   C77   A    
C69   C73   A    
C83   H41   S    
C73   H29   S    
C71   C75   A    
C88   H48   S    
C14   C30   A    
C86   H45   S    
C21   C25   A    
O8    C4    A    
C7    C10   S    
C88   H50   S    
O9    C5    A    
C46   C66   A    
C26   C30   A    
C85   H46   S    
C45   C65   A    
C59   C63   A    
C62   C66   A    
C82   H34   S    
C87   H51   S    
C18   H9    S    
C61   C65   A    
C102  H84   S    
O6    V2    S    
C86   H44   S    
C63   C67   A    
C52   C56   A    
C90   H53   S    
C1    C67   S    
C100  H80   S    
C4    C66   S    
C12   C20   A    
C27   C35   A    
O9    V1    S    
C3    C65   S    
C40   C44   A    
C49   H21   S    
C56   C60   A    
C84   H40   S    
C29   C41   A    
C94   H63   S    
C55   C59   A    
C93   H66   S    
O16   V4    S    
C92   H60   S    
C91   H62   S    
C89   H56   S    
C57   H25   S    
C3    O13   A    
C99   H82   S    
C94   H64   S    
C72   C79   A    
C59   H27   S    
O17   V3    S    
C20   H11   S    
O5    C1    A    
C83   C84   S    
C82   H35   S    
O6    C2    A    
C25   C33   A    
C23   C27   A    
C101  H86   S    
O11   V3    S    
O18   V4    S    
C53   C78   S    
O12   V4    S    
C38   C91   S    
C81   C82   S    
C22   C26   A    
C8    C9    S    
C71   C80   A    
C9    C17   A    
C13   C17   A    
O10   C6    A    
O20   V2    S    
C54   C77   S    
C15   H15   S    
C96   H68   S    
C101  H87   S    
C97   H77   S    
C60   C64   A    
C33   C34   A    
C87   C88   S    
C102  H85   S    
C41   H1    S    
C52   H24   S    
C93   H67   S    
C12   C24   A    
C43   H3    S    
C37   C41   A    
C95   H72   S    
C75   H31   S    
C96   H69   S    
C25   C29   A    
C2    C68   S    
C82   H33   S    
O14   V2    S    
C93   C94   S    
C60   H28   S    
C24   C28   A    
C86   H43   S    
C74   C78   A    
C90   H55   S    
C28   C36   A    
C97   C98   S    
C4    O14   A    
C74   H30   S    
C103  H92   S    
C95   C96   S    
C30   C42   A    
C22   H5    S    
O4    V2    S    
C28   C32   A    
C50   C54   A    
