data_mof_unit_67930.cif
_audit_creation_date              2013-03-05T16:14:17-0500
_audit_creation_method            fapswitch 2.2
_symmetry_space_group_name_H-M    P1
_symmetry_Int_Tables_number       1
_space_group_crystal_system       triclinic
_cell_length_a                    10.710828
_cell_length_b                    10.985758
_cell_length_c                    10.055376
_cell_angle_alpha                 88.604025
_cell_angle_beta                  91.618818
_cell_angle_gamma                 88.620529
_cell_volume                      1181.9952527

loop_
_atom_site_label
_atom_site_type_symbol
_atom_site_description
_atom_site_fract_x
_atom_site_fract_y
_atom_site_fract_z
_atom_type_partial_charge
O1    O     O_R   0.499990 0.316750 0.614620 -0.564265
O2    O     O_R   0.500010 0.683250 0.385380 -0.564206
O3    O     O_R   0.499990 0.316780 0.385290 -0.611037
O4    O     O_R   0.500010 0.683220 0.614710 -0.611167
C1    C     C_R   0.501657 0.260152 0.501772 0.958065
C2    C     C_R   0.498255 0.739840 0.498222 0.956733
O5    O     O_R   0.316760 0.500000 0.614660 -0.579886
O6    O     O_R   0.683240 0.500000 0.385340 -0.579854
O7    O     O_R   0.316760 0.500020 0.385330 -0.613969
O8    O     O_R   0.683240 0.499980 0.614670 -0.613889
C3    C     C_R   0.260638 0.499029 0.497058 0.972104
C4    C     C_R   0.739348 0.501304 0.502926 0.973053
Zn1   Zn    Zn3+2 0.500000 0.499980 0.653120 1.063313
Zn2   Zn    Zn3+2 0.500000 0.500020 0.346880 1.063278
C5    C     C_R   0.141025 0.882247 0.248609 0.150002
C6    C     C_R   0.857532 0.120535 0.754883 0.151532
C7    C     C_R   0.132185 0.799813 0.356500 0.372711
C8    C     C_R   0.866725 0.202178 0.646217 0.372494
C9    C     C_R   0.110081 0.677453 0.331998 -0.019833
C10   C     C_R   0.890532 0.324377 0.669631 -0.018161
C11   C     C_R   0.112077 0.635823 0.201332 -0.232177
C12   C     C_R   0.890649 0.366675 0.800131 -0.231999
H1    H     H_    0.092303 0.541674 0.181954 0.216903
H2    H     H_    0.912437 0.460553 0.818649 0.216753
C13   C     C_R   0.134294 0.715268 0.094739 0.145867
C14   C     C_R   0.867766 0.288245 0.907573 0.144218
C15   C     C_R   0.147625 0.840123 0.117415 0.146546
C16   C     C_R   0.851788 0.163582 0.885843 0.144895
C17   C     C_R   0.931863 0.605030 0.457546 0.372212
C18   C     C_R   0.068063 0.395764 0.542680 0.371993
C19   C     C_R   0.872522 0.504856 0.511700 -0.216899
C20   C     C_R   0.127452 0.495774 0.488266 -0.217245
C21   C     C_R   0.941030 0.404268 0.565077 -0.022151
C22   C     C_R   0.059047 0.596609 0.435285 -0.022402
C23   C     C_R   0.481673 0.069149 0.383231 -0.169403
C24   C     C_R   0.518103 0.930815 0.616751 -0.168648
H3    H     H_    0.466886 0.121273 0.291204 0.227296
H4    H     H_    0.533011 0.878673 0.708766 0.227257
C25   C     C_R   0.478365 0.943675 0.377735 0.419144
C26   C     C_R   0.521238 0.056289 0.622265 0.420513
C27   C     C_R   0.497721 0.872814 0.495822 -0.158260
C28   C     C_R   0.502036 0.127164 0.504166 -0.157525
C29   C     C_R   0.579017 0.571605 0.070811 0.223238
C30   C     C_R   0.420954 0.428462 0.929250 0.223023
C31   C     C_R   0.580209 0.569982 0.928845 0.136109
C32   C     C_R   0.419897 0.429872 0.071215 0.135880
N1    N     N_R   0.499970 0.499970 0.857200 -0.160893
N2    N     N_R   0.500030 0.500030 0.142800 -0.160977
I1    I     I_    0.182558 0.963018 0.955588 -0.046134
I2    I     I_    0.813779 0.042447 0.048632 -0.045775
I3    I     I_    0.712899 0.673474 0.828425 -0.176740
I4    I     I_    0.287901 0.325356 0.171790 -0.177092
I5    I     I_    0.122060 0.068812 0.285295 -0.004013
I6    I     I_    0.875266 0.933555 0.719319 -0.003832
Cl1   Cl    Cl    0.145939 0.848773 0.522297 -0.475936
Cl2   Cl    Cl    0.851205 0.152278 0.480843 -0.478194
I7    I     I_    0.134183 0.641922 0.901469 -0.226296
I8    I     I_    0.871112 0.362452 0.100543 -0.228914
Cl3   Cl    Cl    0.852196 0.747250 0.442073 -0.502081
Cl4   Cl    Cl    0.147563 0.253626 0.559408 -0.502169
Cl5   Cl    Cl    0.445417 0.884380 0.219872 -0.556492
Cl6   Cl    Cl    0.553717 0.115542 0.780210 -0.555881
I9    I     I_    0.700320 0.691871 0.166464 -0.065490
I10   I     I_    0.299684 0.308300 0.833867 -0.065246

loop_
_geom_bond_atom_site_label_1
_geom_bond_atom_site_label_2
_geom_bond_distance
_ccdc_geom_bond_type
C6    C16   1.412465 A    
O5    C3    1.311713 A    
O7    Zn2   2.011060 S    
C19   C21   1.399085 A    
C5    C7    1.402896 A    
C32   I4    2.107668 S    
C13   C15   1.405907 A    
C29   C31   1.428485 A    
C29   N2    1.377283 A    
C7    Cl1   1.767491 S    
C5    C15   1.411687 A    
C30   N1    1.377383 A    
C8    Cl2   1.768205 S    
O6    C4    1.311664 A    
C16   I2    2.138618 S    
C6    I6    2.098617 S    
C26   C28   1.411454 A    
C9    C22   1.475381 S    
O3    C1    1.312251 A    
C29   I9    2.105418 S    
C25   C27   1.411456 A    
C30   I10   2.103211 S    
C18   C20   1.391098 A    
O7    C3    1.288999 A    
C24   C27   1.400622 A    
O2    C2    1.307418 A    
O3    Zn2   2.040487 S    
C13   I7    2.121857 S    
O1    C1    1.307481 A    
C10   C21   1.475858 S    
O8    C4    1.289059 A    
O4    C2    1.312232 A    
C7    C9    1.397084 A    
C30   C32   1.428331 A    
C3    C20   1.428128 S    
C8    C10   1.396822 A    
C11   H1    1.081962 S    
C4    C19   1.428172 S    
C23   C25   1.382136 A    
O2    Zn2   2.059052 S    
C12   H2    1.082246 S    
O1    Zn1   2.059053 S    
C31   I3    2.105955 S    
C17   Cl3   1.763482 S    
C24   H4    1.082184 S    
C32   N2    1.368510 A    
C5    I5    2.097396 S    
O5    Zn1   1.989638 S    
C25   Cl5   1.760235 S    
C26   Cl6   1.759883 S    
C18   Cl4   1.762589 S    
C1    C28   1.460490 S    
C6    C8    1.403810 A    
C12   C14   1.396214 A    
C31   N1    1.368587 A    
C2    C27   1.460306 S    
O4    Zn1   2.040488 S    
Zn1   N1    2.052108 S    
C23   C28   1.400723 A    
C11   C13   1.394990 A    
C24   C26   1.382062 A    
Zn2   N2    2.052108 S    
O6    Zn2   1.989635 S    
C18   C21   1.386713 A    
C23   H3    1.082046 S    
C17   C19   1.391266 A    
C14   C16   1.405834 A    
C17   C22   1.387995 A    
C14   I8    2.122618 S    
C15   I1    2.135959 S    
C10   C12   1.402670 A    
C9    C11   1.402253 A    
O8    Zn1   2.011058 S    
C20   C22   1.399236 A    
