data_mof_unit_34620.cif
_audit_creation_date              2012-12-11T17:09:31-0500
_audit_creation_method            fapswitch 2.2
_symmetry_space_group_name_H-M    P1
_symmetry_Int_Tables_number       1
_space_group_crystal_system       monoclinic
_cell_length_a                    14.815711
_cell_length_b                    6.949722
_cell_length_c                    13.488457
_cell_angle_alpha                 90.0
_cell_angle_beta                  99.828011
_cell_angle_gamma                 90.0
_cell_volume                      1368.45812905

loop_
_atom_site_label
_atom_site_type_symbol
_atom_type_description
_atom_site_fract_x
_atom_site_fract_y
_atom_site_fract_z
_atom_type_partial_charge
O1    O     O_R   0.586930 0.505770 0.416350 -0.535176
O2    O     O_R   0.413070 0.005770 0.583650 -0.535176
O3    O     O_R   0.397900 0.173100 0.389630 -0.536743
O4    O     O_R   0.602100 0.673100 0.610370 -0.536743
C1    C     C_R   0.364364 0.345399 0.362836 0.723734
C2    C     C_R   0.635636 0.845399 0.637163 0.723734
O5    O     O_R   0.585280 0.175870 0.404330 -0.545863
O6    O     O_R   0.414720 0.675870 0.595670 -0.545863
O7    O     O_R   0.601790 0.008380 0.598460 -0.534158
O8    O     O_R   0.398210 0.508380 0.401540 -0.534159
C3    C     C_R   0.614484 0.344811 0.382665 0.705657
C4    C     C_R   0.385516 0.844811 0.617335 0.705657
O9    O     O_3   0.505200 0.340120 0.563670 -0.368229
O10   O     O_3   0.494800 0.840120 0.436330 -0.368229
V1    V     V_3+5 0.499040 0.064180 0.488190 1.409337
V2    V     V_3+5 0.500960 0.564180 0.511810 1.409337
C5    C     C_R   0.316639 0.009846 0.753182 -0.043688
C6    C     C_R   0.683361 0.509846 0.246818 -0.043688
C7    C     C_R   0.319325 0.853236 0.688174 -0.087715
C8    C     C_R   0.680675 0.353237 0.311826 -0.087715
C9    C     C_R   0.255839 0.703603 0.691840 -0.168111
C10   C     C_R   0.744161 0.203603 0.308159 -0.168111
H1    H     H_    0.254244 0.581810 0.641747 0.130151
H2    H     H_    0.745755 0.081810 0.358253 0.130151
C11   C     C_R   0.188940 0.716946 0.754325 -0.095103
C12   C     C_R   0.811060 0.216946 0.245675 -0.095103
H3    H     H_    0.137161 0.607104 0.750513 0.190153
H4    H     H_    0.862839 0.107104 0.249486 0.190153
C13   C     C_R   0.184378 0.877571 0.816375 -0.140399
C14   C     C_R   0.815622 0.377571 0.183625 -0.140400
C15   C     C_R   0.250356 0.021112 0.815859 -0.009804
C16   C     C_R   0.749644 0.521112 0.184141 -0.009804
C17   C     C_3   0.235659 0.230885 0.792575 0.798273
C18   C     C_3   0.764341 0.730885 0.207425 0.798273
C19   C     C_3   0.311163 0.219360 0.727718 -0.492482
C20   C     C_3   0.688837 0.719360 0.272282 -0.492482
H5    H     H_    0.376110 0.295042 0.756821 0.163433
H6    H     H_    0.623890 0.795042 0.243179 0.163433
H7    H     H_    0.286646 0.244068 0.646118 0.148567
H8    H     H_    0.713354 0.744068 0.353882 0.148567
C21   C     C_1   0.783383 0.877157 0.783016 -0.193539
C22   C     C_1   0.216617 0.377157 0.216984 -0.193540
C23   C     C_1   0.716088 0.860108 0.716920 -0.192612
C24   C     C_1   0.283912 0.360108 0.283080 -0.192612
O11   O     O_R   0.101720 0.231700 0.098560 -0.539336
O12   O     O_R   0.898280 0.731700 0.901440 -0.539336
O13   O     O_R   0.914700 0.558980 0.095690 -0.518173
O14   O     O_R   0.085300 0.058980 0.904310 -0.518173
C25   C     C_R   0.885699 0.389814 0.117523 0.709238
C26   C     C_R   0.114300 0.889814 0.882477 0.709239
O15   O     O_R   0.102080 0.561590 0.110390 -0.540026
O16   O     O_R   0.897920 0.061590 0.889610 -0.540026
O17   O     O_R   0.086950 0.728940 0.916330 -0.534404
O18   O     O_R   0.913050 0.228940 0.083670 -0.534404
C27   C     C_R   0.136097 0.391951 0.137330 0.741864
C28   C     C_R   0.863903 0.891951 0.862669 0.741865
O19   O     O_3   0.994770 0.394510 0.936380 -0.364231
O20   O     O_3   0.005230 0.894510 0.063620 -0.364231
V3    V     V_3+5 0.000970 0.670520 0.011800 1.517775
V4    V     V_3+5 0.999030 0.170520 0.988200 1.517775
O21   O     O_3   0.250084 0.353964 0.878573 -0.531236
C29   C     C_3   0.338257 0.342454 0.938289 -0.287280
H9    H     H_    0.386518 0.439085 0.907809 0.143623
H10   H     H_    0.365921 0.193804 0.947272 0.122374
H11   H     H_    0.333501 0.395576 0.014783 0.159123
O22   O     O_3   0.749916 0.853964 0.121427 -0.531236
C30   C     C_3   0.661743 0.842454 0.061711 -0.287282
H12   H     H_    0.613482 0.939086 0.092191 0.143623
H13   H     H_    0.634079 0.693805 0.052728 0.122374
H14   H     H_    0.666499 0.895576 0.985217 0.159123
O23   O     O_3   0.148268 0.265063 0.735152 -0.656089
H15   H     H_    0.138760 0.178392 0.675670 0.251096
O24   O     O_3   0.851732 0.765063 0.264848 -0.656089
H16   H     H_    0.861240 0.678392 0.324330 0.251096

loop_
_geom_bond_atom_site_label_1
_geom_bond_atom_site_label_2
_ccdc_geom_bond_type
O11   V4    S    
O12   V3    S    
O24   H16   S    
O1    C3    A    
O2    C4    A    
C18   O22   S    
C2    O7    A    
O17   V3    S    
O13   C25   A    
O18   V4    S    
O5    C3    A    
C19   H5    S    
O19   V3    S    
O20   V4    S    
C25   O18   A    
C29   H10   S    
O16   V4    S    
C5    C7    A    
C15   C17   S    
O10   V2    S    
C6    C8    A    
O14   C26   A    
O22   C30   S    
O6    V2    S    
C21   C23   T    
C22   C24   T    
O14   V4    S    
C13   C26   S    
C9    H1    S    
C11   C13   A    
C3    C8    S    
C26   O17   A    
C30   H12   S    
C20   H8    S    
O4    C2    A    
O19   V4    S    
O20   V3    S    
C30   H13   S    
C16   C18   S    
O4    V2    S    
C19   H7    S    
C21   C28   S    
C29   H9    S    
C22   C27   S    
O6    C4    A    
O1    V2    S    
O2    V1    S    
C14   C25   S    
C8    C10   A    
C12   C14   A    
C2    C23   S    
O9    V1    S    
C5    C15   A    
C10   H2    S    
C6    C16   A    
O3    V1    S    
C9    C11   A    
C29   H11   S    
C7    C9    A    
C1    C24   S    
O3    C1    A    
C11   H3    S    
C12   H4    S    
C30   H14   S    
C20   H6    S    
O7    V1    S    
O23   H15   S    
C13   C15   A    
O8    V2    S    
C14   C16   A    
C4    C7    S    
O5    V1    S    
C17   C19   S    
C18   C20   S    
O15   C27   A    
O21   C29   S    
C17   O23   S    
C18   O24   S    
O13   V3    S    
C1    O8    A    
O15   V3    S    
O11   C27   A    
C17   O21   S    
C10   C12   A    
O9    V2    S    
O12   C28   A    
O10   V1    S    
C5    C19   S    
C6    C20   S    
O16   C28   A    
