data_mof_unit_21087.cif
_audit_creation_date              2013-03-05T15:53:06-0500
_audit_creation_method            fapswitch 2.2
_symmetry_space_group_name_H-M    P1
_symmetry_Int_Tables_number       1
_space_group_crystal_system       triclinic
_cell_length_a                    6.962348
_cell_length_b                    20.48802
_cell_length_c                    24.381885
_cell_angle_alpha                 89.790734
_cell_angle_beta                  90.65294
_cell_angle_gamma                 89.76708
_cell_volume                      3477.66892037

loop_
_atom_site_label
_atom_site_type_symbol
_atom_site_description
_atom_site_fract_x
_atom_site_fract_y
_atom_site_fract_z
_atom_type_partial_charge
O1    O     O_R   0.507320 0.423560 0.460500 -0.579082
O2    O     O_R   0.170760 0.556250 0.437010 -0.572426
O3    O     O_R   0.004030 0.576440 0.539500 -0.577818
C1    C     C_R   0.338524 0.576357 0.421216 0.996686
O4    O     O_R   0.177370 0.422820 0.454110 -0.600164
O5    O     O_R   0.010680 0.442050 0.556720 -0.584931
C2    C     C_R   0.345397 0.398890 0.443354 1.036399
O6    O     O_R   0.500680 0.557950 0.443280 -0.592034
O7    O     O_3   0.340380 0.506470 0.533650 -0.276020
V1    V     V_3+5 0.064130 0.498800 0.493760 1.243660
O8    O     O_R   0.681160 0.443750 0.562990 -0.577922
C3    C     C_R   0.850352 0.423701 0.578698 0.993351
O9    O     O_R   0.674560 0.577180 0.545890 -0.596979
C4    C     C_R   0.843271 0.601614 0.555649 1.035375
V2    V     V_3+5 0.564560 0.501200 0.506240 1.243111
O10   O     O_3   0.838180 0.493530 0.466350 -0.279822
C5    C     C_R   0.977609 0.837365 0.911663 -0.215358
C6    C     C_R   0.854359 0.663038 0.587190 -0.334964
C7    C     C_R   0.077634 0.724517 0.902729 -0.177752
C8    C     C_R   0.061488 0.780636 0.934315 -0.000937
C9    C     C_R   0.909887 0.836975 0.856603 -0.063353
C10   C     C_R   0.950332 0.782299 0.821815 0.054356
C11   C     C_R   0.025109 0.724944 0.847151 0.136647
C12   C     C_R   0.924149 0.781901 0.763094 0.052510
C13   C     C_R   0.933274 0.721793 0.733428 0.077597
C14   C     C_R   0.007764 0.666647 0.761182 -0.175030
C15   C     C_R   0.053687 0.668414 0.816603 -0.175501
C16   C     C_R   0.914943 0.840029 0.732346 -0.167517
C17   C     C_R   0.898537 0.839493 0.675633 -0.145897
C18   C     C_R   0.885401 0.780781 0.646291 0.055021
C19   C     C_R   0.891543 0.720484 0.675429 0.064820
C20   C     C_R   0.870421 0.781607 0.588225 -0.153550
C21   C     C_R   0.861576 0.722794 0.558775 0.302943
C22   C     C_R   0.856511 0.661922 0.645129 -0.074544
H1    H     H_    0.115237 0.625083 0.835614 0.159802
H2    H     H_    0.897892 0.886296 0.654881 0.158344
H3    H     H_    0.137802 0.680603 0.921249 0.150379
H4    H     H_    0.048506 0.622849 0.739810 0.153041
H5    H     H_    0.938566 0.887101 0.750692 0.161108
C23   C     C_3   0.818215 0.301177 0.767712 0.264976
C24   C     C_3   0.015502 0.277836 0.790686 -0.218934
H6    H     H_    0.098446 0.302111 0.823910 0.223503
C25   C     C_1   0.964221 0.121201 0.875362 -0.243740
C26   C     C_1   0.860058 0.378168 0.624186 -0.207795
C27   C     C_3   0.742818 0.230638 0.768770 0.123047
C28   C     C_3   0.938430 0.206264 0.791118 -0.135992
C29   C     C_3   0.810789 0.221131 0.709396 0.123554
C30   C     C_3   0.885304 0.292199 0.707902 -0.206554
C31   C     C_3   0.006019 0.197101 0.731470 0.281540
C32   C     C_3   0.081852 0.267744 0.730362 -0.154199
C33   C     C_1   0.955344 0.159399 0.837287 0.285068
C34   C     C_1   0.868780 0.339598 0.661996 0.251727
C35   C     C_3   0.501482 0.719905 0.209890 0.352555
C36   C     C_3   0.303378 0.700300 0.232195 -0.290405
C37   C     C_1   0.346479 0.621959 0.375559 -0.214566
C38   C     C_1   0.477691 0.878340 0.124671 -0.237965
C39   C     C_3   0.580365 0.727158 0.269062 -0.115181
C40   C     C_3   0.381260 0.707722 0.291826 -0.111370
C41   C     C_3   0.519902 0.800215 0.268323 -0.206917
C42   C     C_3   0.442653 0.792928 0.208604 -0.136900
C43   C     C_3   0.321756 0.780644 0.290693 0.264847
C44   C     C_3   0.245141 0.773324 0.231590 0.217208
C45   C     C_1   0.358543 0.660491 0.337731 0.169851
C46   C     C_1   0.465505 0.839972 0.162619 0.250155
C47   C     C_R   0.481107 0.164582 0.086370 -0.193567
C48   C     C_R   0.347009 0.338875 0.409201 -0.330323
C49   C     C_R   0.633341 0.270569 0.099335 0.310328
C50   C     C_R   0.587355 0.217289 0.065498 -0.136869
C51   C     C_R   0.403103 0.169095 0.139206 -0.223148
C52   C     C_R   0.433505 0.224973 0.172738 0.109466
C53   C     C_R   0.566249 0.272238 0.153888 -0.002453
C54   C     C_R   0.351616 0.232476 0.226555 0.014453
C55   C     C_R   0.429229 0.280321 0.263247 0.075100
C56   C     C_R   0.584176 0.318319 0.245209 -0.189749
C57   C     C_R   0.642832 0.317222 0.191150 -0.118718
C58   C     C_R   0.190978 0.196191 0.244640 -0.051113
C59   C     C_R   0.147195 0.193410 0.301011 -0.030621
C60   C     C_R   0.244566 0.234558 0.339077 -0.010654
C61   C     C_R   0.358787 0.286033 0.318194 0.048202
C62   C     C_R   0.222236 0.228930 0.396937 -0.151264
C63   C     C_R   0.274387 0.280862 0.431765 0.302067
C64   C     C_R   0.390381 0.341734 0.352656 -0.046997
H7    H     H_    0.758937 0.349357 0.179774 0.181025
H8    H     H_    0.333981 0.126111 0.155273 0.133555
H9    H     H_    0.666942 0.348355 0.272912 0.148690
O11   O     O_R   0.323550 0.942140 0.056770 -0.587384
O12   O     O_R   0.647080 0.077200 0.045890 -0.598529
O13   O     O_R   0.813610 0.057920 0.943260 -0.587360
C65   C     C_R   0.479337 0.101721 0.056128 0.950539
O14   O     O_R   0.653470 0.943760 0.063000 -0.576889
O15   O     O_R   0.820050 0.923540 0.960490 -0.589095
C66   C     C_R   0.485686 0.923752 0.078865 0.964852
O16   O     O_R   0.317110 0.076520 0.039540 -0.586918
O17   O     O_3   0.483830 0.993580 0.966380 -0.267477
V3    V     V_3+5 0.760140 0.001190 0.006240 1.211957
O18   O     O_R   0.149510 0.922740 0.954070 -0.595090
C67   C     C_R   0.981111 0.898503 0.943976 0.954776
O19   O     O_R   0.143120 0.056170 0.936970 -0.577279
C68   C     C_R   0.973921 0.076072 0.921146 0.970933
V4    V     V_3+5 0.259690 0.998700 0.993700 1.214495
O20   O     O_3   0.986130 0.006420 0.033620 -0.270373
C69   C     C_1   0.873920 0.842644 0.557899 0.242082
N1    N     N_1   0.876787 0.891312 0.533674 -0.007559
N2    N     N_R   0.716008 0.357740 0.788984 0.266412
O21   O     O_R   0.683645 0.362216 0.841256 -0.307056
O22   O     O_R   0.667141 0.405706 0.756598 -0.397293
C70   C     C_1   0.264755 0.289446 0.707568 0.347954
N3    N     N_1   0.407443 0.307287 0.689063 -0.027881
N4    N     N_R   0.109225 0.140976 0.709858 0.278700
O23   O     O_R   0.162161 0.140659 0.658889 -0.281865
O24   O     O_R   0.143635 0.090268 0.740700 -0.329428
N5    N     N_R   0.701622 0.188183 0.666379 0.279232
O25   O     O_R   0.650352 0.127738 0.672975 -0.270464
O26   O     O_R   0.663865 0.217672 0.620169 -0.301080
N6    N     N_R   0.559617 0.208756 0.790402 0.247637
O27   O     O_R   0.456200 0.247732 0.819998 -0.384514
O28   O     O_R   0.513028 0.147518 0.786985 -0.323380
C71   C     C_1   0.188875 0.645553 0.211356 0.312383
N7    N     N_1   0.098857 0.602335 0.194938 -0.003902
N8    N     N_R   0.597884 0.684397 0.166356 0.265328
O29   O     O_R   0.645170 0.623502 0.173681 -0.371593
O30   O     O_R   0.624872 0.711747 0.118870 -0.345078
N9    N     N_R   0.064489 0.800629 0.211151 0.238713
O31   O     O_R   0.947135 0.764638 0.182775 -0.386491
O32   O     O_R   0.033882 0.863151 0.214080 -0.386000
C72   C     C_1   0.796362 0.602105 0.671836 0.047320
N10   N     N_1   0.747582 0.554288 0.692835 -0.035916
N11   N     N_R   0.221370 0.815449 0.333900 0.250946
O33   O     O_R   0.186505 0.877568 0.328701 -0.355245
O34   O     O_R   0.170108 0.785148 0.378298 -0.324789
C73   C     C_1   0.636374 0.854420 0.289237 0.337203
N12   N     N_1   0.727812 0.897209 0.305813 0.004350
C74   C     C_1   0.762435 0.701181 0.290881 0.262156
N13   N     N_1   0.904696 0.680444 0.308730 -0.058053
C75   C     C_1   0.430613 0.405463 0.329375 0.035793
N14   N     N_1   0.461937 0.456471 0.311020 -0.075264
N15   N     N_R   0.243971 0.276226 0.490035 0.234252
O35   O     O_R   0.376649 0.295151 0.524414 -0.358432
O36   O     O_R   0.080243 0.256172 0.508896 -0.355944
C76   C     C_1   0.983031 0.154774 0.317713 0.099350
N16   N     N_1   0.851632 0.124110 0.330634 -0.052881
N17   N     N_R   0.750656 0.322493 0.078495 0.232576
O37   O     O_R   0.916804 0.309759 0.056992 -0.371863
O38   O     O_R   0.689945 0.382598 0.080223 -0.331341
C77   C     C_1   0.650602 0.216677 0.009059 0.231276
N18   N     N_1   0.700723 0.216280 0.963965 -0.032355
N19   N     N_R   0.852397 0.723836 0.499769 0.231856
O39   O     O_R   0.979743 0.692566 0.471266 -0.371036
O40   O     O_R   0.717072 0.756351 0.474380 -0.363049
C78   C     C_1   0.054257 0.168943 0.205517 0.094043
N20   N     N_1   0.944436 0.147474 0.174537 -0.068686
C79   C     C_1   0.165244 0.167821 0.421965 0.252756
N21   N     N_1   0.120550 0.119060 0.442189 -0.008319
C80   C     C_1   0.127808 0.778400 0.990736 0.131201
N22   N     N_1   0.180787 0.776622 0.035889 -0.023296
C81   C     C_1   0.782838 0.889588 0.839412 0.066467
N23   N     N_1   0.680847 0.931644 0.826059 -0.029560

loop_
_geom_bond_atom_site_label_1
_geom_bond_atom_site_label_2
_geom_bond_distance
_ccdc_geom_bond_type
C13   C19   1.440770 A    
C44   N9    1.456437 S    
C72   N10   1.157690 T    
C24   H6    1.109806 S    
C4    C6    1.479045 S    
O2    C1    1.302036 A    
C7    C8    1.391062 A    
C59   C76   1.454096 S    
C54   C58   1.419001 A    
C57   H7    1.082568 S    
N11   O33   1.300143 A    
N5    O26   1.300205 A    
C77   N18   1.157358 T    
C35   N8    1.457498 S    
N9    O31   1.298358 A    
C29   C31   1.534792 S    
C35   C36   1.542563 S    
C47   C65   1.486390 S    
N15   O36   1.301584 A    
C17   H2    1.082550 S    
C41   C73   1.467295 S    
C14   C15   1.385651 A    
C8    C80   1.446587 S    
C16   C17   1.386267 A    
N19   O40   1.301246 A    
C25   C68   1.447688 S    
C51   C52   1.424346 A    
N4    O24   1.300145 A    
O5    C3    1.300035 A    
C18   C19   1.423086 A    
C62   C63   1.409860 A    
C60   C62   1.425335 A    
N9    O32   1.300070 A    
C23   N2    1.457541 S    
N11   O34   1.300102 A    
V2    O10   2.154229 S    
C5    C8    1.406913 A    
C42   C44   1.544945 S    
C55   C56   1.406558 A    
C64   C75   1.451418 S    
C23   C30   1.547716 S    
C71   N7    1.156914 T    
N2    O21   1.300300 A    
C21   N19   1.439440 S    
O8    V2    1.978318 S    
O11   C66   1.299093 A    
N19   O39   1.300858 A    
N6    O28   1.299913 A    
O12   V3    1.999440 S    
V3    O20   1.706091 S    
C24   C28   1.563561 S    
C38   C46   1.215816 T    
C52   C53   1.420145 A    
O1    V2    1.985155 S    
C58   C78   1.454371 S    
C18   C20   1.418427 A    
O11   V4    1.967850 S    
O7    V1    2.151938 S    
C49   C53   1.415252 A    
C1    O6    1.299014 A    
C26   C34   1.212852 T    
C40   C43   1.548849 S    
C30   C32   1.548841 S    
O13   V3    1.962393 S    
C41   C42   1.554354 S    
O9    C4    1.298555 A    
C39   C74   1.466365 S    
C43   C44   1.538955 S    
N2    O22   1.300188 A    
N5    O25   1.300156 A    
O15   C67   1.299927 A    
C35   C42   1.549658 S    
N8    O30   1.300327 A    
C58   C59   1.412202 A    
C27   C29   1.540937 S    
C23   C27   1.539825 S    
C41   C43   1.543219 S    
C56   C57   1.384543 A    
C49   C50   1.406459 A    
C75   N14   1.157862 T    
C76   N16   1.157875 T    
C63   N15   1.441658 S    
O4    C2    1.296531 A    
C35   C39   1.545747 S    
C60   C61   1.419856 A    
C14   H4    1.077929 S    
C36   C44   1.548466 S    
C16   H5    1.077020 S    
C15   H1    1.084436 S    
C13   C14   1.408933 A    
C59   C60   1.424001 A    
C28   C33   1.480247 S    
C5    C9    1.417840 A    
C37   C45   1.215719 T    
C7    C11   1.399542 A    
C17   C18   1.404581 A    
C48   C64   1.415769 A    
C27   N6    1.457516 S    
O14   C66   1.302041 A    
C29   C30   1.548135 S    
C28   C31   1.545521 S    
O17   V4    1.706714 S    
C22   C72   1.451154 S    
C47   C50   1.408315 A    
O18   C67   1.296467 A    
C55   C61   1.436922 A    
C19   C22   1.431640 A    
O17   V3    2.151892 S    
C12   C13   1.432024 A    
C6    C22   1.412676 A    
O16   V4    1.989738 S    
C80   N22   1.157465 T    
O3    C4    1.296391 A    
C23   C24   1.550586 S    
O19   C68   1.299011 A    
O6    V2    1.968081 S    
C11   C15   1.394114 A    
O9    V2    1.987005 S    
C1    C37   1.452384 S    
C32   C70   1.465315 S    
C10   C12   1.441273 A    
C7    H3    1.085601 S    
C70   N3    1.155880 T    
C73   N12   1.156910 T    
O2    V1    1.967166 S    
C36   C71   1.467659 S    
C24   C32   1.560883 S    
N8    O29   1.300205 A    
C31   N4    1.456900 S    
C36   C40   1.554142 S    
C40   C45   1.487093 S    
C62   C79   1.449587 S    
C81   N23   1.157751 T    
O1    C2    1.302536 A    
C10   C11   1.419816 A    
C12   C16   1.405787 A    
C54   C55   1.432808 A    
O14   V3    1.967198 S    
O5    V1    1.962224 S    
C61   C64   1.435822 A    
O8    C3    1.299099 A    
C20   C69   1.450874 S    
N15   O35   1.301514 A    
O19   V4    1.978139 S    
C78   N20   1.157876 T    
C42   C46   1.486207 S    
C20   C21   1.406150 A    
O12   C65   1.296708 A    
O7    V2    1.708035 S    
O4    V1    1.999458 S    
C3    C26   1.447452 S    
C51   H8    1.079737 S    
V1    O10   1.706170 S    
N4    O23   1.300274 A    
C48   C63   1.406218 A    
C53   C57   1.399354 A    
C49   N17   1.438623 S    
C25   C33   1.212894 T    
C39   C40   1.552000 S    
C74   N13   1.156002 T    
C47   C51   1.406938 A    
O18   V4    1.986929 S    
V4    O20   2.154270 S    
C9    C81   1.449334 S    
C43   N11   1.457725 S    
N17   O38   1.301296 A    
C56   H9    1.078917 S    
C65   O16   1.304509 A    
C69   N1    1.157432 T    
C6    C21   1.405864 A    
O13   C68   1.300164 A    
C39   C41   1.553213 S    
O15   V3    1.991828 S    
C27   C28   1.541645 S    
C30   C34   1.482319 S    
C79   N21   1.157776 T    
C31   C32   1.542887 S    
O3    V1    1.991810 S    
N17   O37   1.301335 A    
C52   C54   1.445068 A    
N6    O27   1.299303 A    
C9    C10   1.436471 A    
C38   C66   1.452706 S    
C5    C67   1.482345 S    
C50   C77   1.449682 S    
C29   N5    1.457585 S    
C2    C48   1.487632 S    
