data_mof_unit_27797.cif
_audit_creation_date              2012-12-10T20:31:52-0500
_audit_creation_method            fapswitch 2.2
_symmetry_space_group_name_H-M    P1
_symmetry_Int_Tables_number       1
_space_group_crystal_system       triclinic
_cell_length_a                    9.900181
_cell_length_b                    10.678555
_cell_length_c                    15.461643
_cell_angle_alpha                 90.660478
_cell_angle_beta                  67.904514
_cell_angle_gamma                 90.424026
_cell_volume                      1514.44243164

loop_
_atom_site_label
_atom_site_type_symbol
_atom_type_description
_atom_site_fract_x
_atom_site_fract_y
_atom_site_fract_z
_atom_type_partial_charge
C1    C     C_R   0.499457 0.739800 0.501251 0.887045
C2    C     C_R   0.403470 0.446485 0.915868 0.093627
C3    C     C_R   0.257221 0.477526 0.971647 0.174699
C4    C     C_R   0.504184 0.420322 0.958197 0.065271
C5    C     C_R   0.465037 0.450215 0.053565 0.066496
C6    C     C_R   0.316506 0.470309 0.108968 -0.202791
C7    C     C_R   0.213558 0.482657 0.068450 -0.258712
C8    C     C_R   0.641807 0.365080 0.908979 -0.230898
C9    C     C_R   0.740110 0.346096 0.952260 -0.222817
C10   C     C_R   0.708387 0.389889 0.043006 0.135513
C11   C     C_R   0.574599 0.452027 0.091498 0.055978
C12   C     C_R   0.408699 0.498058 0.676000 0.864315
C13   C     C_R   0.808012 0.371795 0.086385 -0.230835
C14   C     C_R   0.773838 0.412390 0.178010 -0.263983
C15   C     C_R   0.556808 0.514566 0.175819 0.167213
C16   C     C_R   0.390454 0.934868 0.485033 0.179720
C17   C     C_R   0.492480 0.871715 0.510020 -0.180287
C18   C     C_R   0.579883 0.936747 0.548724 -0.208665
C19   C     C_R   0.579054 0.066323 0.549131 -0.210915
C20   C     C_R   0.490403 0.128620 0.511094 -0.100498
C21   C     C_R   0.389068 0.062688 0.485802 0.063158
C22   C     C_3   0.361172 0.068855 0.397339 -0.541170
C23   C     C_R   0.498663 0.260234 0.501447 0.886775
C24   C     C_3   0.364630 0.926784 0.395866 0.231002
C25   C     C_R   0.885941 0.547450 0.574424 0.197551
C26   C     C_R   0.967048 0.442789 0.430769 -0.137843
C27   C     C_R   0.109742 0.439642 0.431308 0.438146
C28   C     C_R   0.028012 0.547312 0.574499 0.127263
C29   C     C_3   0.013150 0.677424 0.612491 -0.463200
C30   C     C_3   0.860221 0.678296 0.611475 -0.483846
C31   C     C_R   0.591160 0.500045 0.324087 0.885479
C32   C     C_R   0.351338 0.486744 0.777400 -0.055967
C33   C     C_R   0.646579 0.481605 0.223331 -0.095719
C34   C     C_R   0.157916 0.505556 0.929517 -0.213964
C35   C     C_R   0.204780 0.509861 0.832494 -0.199840
C36   C     C_R   0.448040 0.452674 0.819163 -0.269701
H1    H     H_    0.101011 0.501057 0.112649 0.157713
H2    H     H_    0.908578 0.321062 0.051162 0.156059
H3    H     H_    0.652259 0.888234 0.574747 0.165885
H4    H     H_    0.651602 0.117058 0.574965 0.169527
H5    H     H_    0.252028 0.108438 0.409132 0.241898
H6    H     H_    0.453195 0.111721 0.339062 0.169353
H7    H     H_    0.456779 0.883936 0.337011 0.101880
H8    H     H_    0.944554 0.397595 0.374582 0.163256
H9    H     H_    0.014357 0.680521 0.684083 0.188798
H10   H     H_    0.088621 0.744391 0.562841 0.269479
H11   H     H_    0.773266 0.683306 0.682404 0.196964
H12   H     H_    0.848102 0.744913 0.560215 0.220793
H13   H     H_    0.844821 0.387517 0.213960 0.168784
H14   H     H_    0.842389 0.299295 0.913967 0.150494
H15   H     H_    0.045694 0.528424 0.971483 0.151898
H16   H     H_    0.128057 0.534972 0.800874 0.154750
H17   H     H_    0.560801 0.438146 0.775142 0.158359
H18   H     H_    0.277712 0.472539 0.184061 0.196855
H19   H     H_    0.672728 0.329222 0.838627 0.145750
N1    N     N_R   0.856900 0.500860 0.500610 -0.138290
N2    N     N_R   0.142540 0.500820 0.500610 -0.148668
O1    O     O_R   0.385310 0.683210 0.499990 -0.590008
O2    O     O_R   0.614650 0.683240 0.500000 -0.614271
O3    O     O_R   0.319830 0.499970 0.632240 -0.615063
O4    O     O_R   0.549170 0.500000 0.632250 -0.617103
O5    O     O_R   0.385350 0.316760 0.500000 -0.639050
O6    O     O_R   0.614690 0.316790 0.500010 -0.620200
O7    O     O_R   0.450830 0.500000 0.367750 -0.604748
O8    O     O_R   0.680170 0.500030 0.367760 -0.620442
Zn1   Zn    Zn3+2 0.346870 0.499980 0.499990 0.957484
Zn2   Zn    Zn3+2 0.653130 0.500020 0.500010 0.938110
O9    O     O_3   0.228278 0.873692 0.410041 -0.752616
H20   H     H_    0.220760 0.871502 0.347848 0.337749
O10   O     O_3   0.212259 0.373459 0.360618 -0.806843
H21   H     H_    0.281555 0.339074 0.385883 0.374688
N3    N     N_2   0.465599 0.622112 0.207733 -0.310809
H22   H     H_    0.360598 0.609681 0.254904 0.259827
C37   C     C_3   0.491644 0.726172 0.144301 -0.801417
H23   H     H_    0.434661 0.810437 0.183376 0.231927
H24   H     H_    0.449590 0.705072 0.088608 0.254139
H25   H     H_    0.610167 0.747383 0.112327 0.249506

loop_
_geom_bond_atom_site_label_1
_geom_bond_atom_site_label_2
_ccdc_geom_bond_type
C8    C9    A    
C16   C21   A    
C19   C20   A    
C25   N1    A    
N2    Zn1   S    
C4    C8    A    
C14   C33   A    
C26   H8    S    
C28   N2    A    
C25   C28   A    
C15   N3    S    
C26   C27   A    
C37   H24   S    
C32   C36   A    
C30   H12   S    
C28   C29   S    
C5    C11   A    
C3    C7    A    
C1    O2    A    
C5    C6    A    
C22   H5    S    
C18   C19   A    
C34   C35   A    
C36   H17   S    
O2    Zn2   S    
O9    H20   S    
C11   C15   A    
O1    Zn1   S    
C23   O5    A    
C16   C17   A    
O8    Zn2   S    
C37   H25   S    
C31   C33   S    
O10   H21   S    
C9    C10   A    
C23   O6    A    
O3    Zn1   S    
C16   C24   S    
C13   C14   A    
C12   C32   S    
C6    H18   S    
C8    H19   S    
C19   H4    S    
O6    Zn2   S    
C37   H23   S    
O5    Zn1   S    
C32   C35   A    
C30   H11   S    
N3    C37   S    
C27   N2    A    
N3    H22   S    
C3    C34   A    
C34   H15   S    
C29   H9    S    
O7    Zn1   S    
C2    C4    A    
C18   H3    S    
C29   C30   S    
O4    Zn2   S    
C20   C23   S    
C17   C18   A    
C7    H1    S    
C13   H2    S    
C27   O10   S    
C22   C24   S    
C14   H13   S    
C2    C36   A    
C25   C30   S    
C31   O8    A    
C31   O7    A    
C9    H14   S    
C4    C5    A    
C10   C13   A    
C26   N1    A    
C6    C7    A    
N1    Zn2   S    
C1    C17   S    
C29   H10   S    
C2    C3    A    
C1    O1    A    
C12   O4    A    
C22   H6    S    
C10   C11   A    
C24   O9    S    
C12   O3    A    
C20   C21   A    
C35   H16   S    
C24   H7    S    
C21   C22   S    
C15   C33   A    
