data_mof_unit_67444.cif
_audit_creation_date              2012-12-10T16:45:22-0500
_audit_creation_method            fapswitch 2.2
_symmetry_space_group_name_H-M    P1
_symmetry_Int_Tables_number       1
_space_group_crystal_system       triclinic
_cell_length_a                    7.611396
_cell_length_b                    8.84322
_cell_length_c                    15.769479
_cell_angle_alpha                 95.191417
_cell_angle_beta                  76.020308
_cell_angle_gamma                 103.130874
_cell_volume                      1002.35104727

loop_
_atom_site_label
_atom_site_type_symbol
_atom_type_description
_atom_site_fract_x
_atom_site_fract_y
_atom_site_fract_z
_atom_type_partial_charge
C1    C     C_R   0.542729 0.799058 0.504893 0.745768
C2    C     C_R   0.456812 0.200723 0.495867 0.765181
C3    C     C_R   0.285510 0.464673 0.086203 0.340033
C4    C     C_R   0.722625 0.577693 0.918848 0.364315
C5    C     C_R   0.163020 0.389918 0.033747 0.367385
C6    C     C_R   0.840401 0.655505 0.972233 0.473372
C7    C     C_2   0.556383 0.966555 0.516699 0.140764
C8    C     C_2   0.443253 0.032958 0.484862 0.170406
C9    C     C_R   0.385366 0.486799 0.666020 0.834164
C10   C     C_R   0.614461 0.515477 0.334186 0.818525
C11   C     C_R   0.314534 0.470690 0.761991 -0.274438
C12   C     C_R   0.685443 0.548191 0.239901 -0.271237
C13   C     C_R   0.082372 0.359657 0.889961 0.442714
C14   C     C_R   0.913995 0.683914 0.118084 0.426143
C15   C     C_R   0.138285 0.379537 0.798593 0.240021
C16   C     C_R   0.852833 0.656929 0.208724 0.191941
C17   C     C_R   0.430291 0.542576 0.818004 0.383743
C18   C     C_R   0.580528 0.474989 0.180012 0.518377
C19   C     C_R   0.393630 0.493553 0.904672 -0.123496
C20   C     C_R   0.612138 0.540723 0.097620 -0.129834
C21   C     C_R   0.211908 0.412547 0.942813 -0.115209
C22   C     C_R   0.790097 0.629801 0.062651 -0.177021
C23   C     C_R   0.530602 0.528269 0.955637 -0.130875
C24   C     C_R   0.475175 0.511732 0.047250 -0.066230
Cu1   Cu    Cu3+1 0.322120 0.483240 0.490330 1.076267
Cu2   Cu    Cu3+1 0.677880 0.516760 0.509670 1.055251
N1    N     N_2   0.945180 0.542040 0.524240 0.109289
N2    N     N_2   0.054820 0.457960 0.475760 0.158642
O1    O     O_R   0.384450 0.714270 0.493720 -0.473380
O2    O     O_R   0.615550 0.285730 0.506280 -0.542199
O3    O     O_R   0.684880 0.742590 0.510050 -0.620561
O4    O     O_R   0.315120 0.257410 0.489950 -0.640680
O5    O     O_R   0.265540 0.477900 0.617090 -0.600272
O6    O     O_R   0.734460 0.522100 0.382910 -0.527577
O7    O     O_R   0.565970 0.506210 0.633420 -0.584793
O8    O     O_R   0.434030 0.493790 0.366580 -0.514054
O9    O     O_3   0.998560 0.291891 0.072019 -0.577728
C25   C     C_3   0.041958 0.157955 0.097818 0.045836
H1    H     H_    0.153681 0.188240 0.133081 0.169810
H2    H     H_    0.087216 0.083457 0.040310 0.197930
C26   C     C_3   0.877523 0.064741 0.159959 -0.822934
H3    H     H_    0.779847 0.995219 0.122371 0.244146
H4    H     H_    0.924820 0.983817 0.194548 0.243939
H5    H     H_    0.810291 0.142858 0.210180 0.250204
O10   O     O_3   0.007359 0.750448 0.934585 -0.538384
C27   C     C_3   0.966339 0.879654 0.902625 0.088143
H6    H     H_    0.886240 0.944644 0.956311 0.156727
H7    H     H_    0.885855 0.842344 0.851658 0.202733
C28   C     C_3   0.142308 0.988607 0.859444 -0.838289
H8    H     H_    0.209691 0.931941 0.799636 0.228478
H9    H     H_    0.106400 0.088616 0.837012 0.251636
H10   H     H_    0.238076 0.026951 0.903872 0.243430
O11   O     O_3   0.459120 0.332887 0.200453 -0.565105
C29   C     C_3   0.511144 0.216174 0.137363 0.021192
H11   H     H_    0.663065 0.231058 0.116209 0.234194
H12   H     H_    0.459918 0.219745 0.077651 0.142613
C30   C     C_3   0.431574 0.055084 0.174465 -0.805234
H13   H     H_    0.477095 0.965487 0.125398 0.216641
H14   H     H_    0.477190 0.046694 0.235302 0.266931
H15   H     H_    0.278962 0.028578 0.188970 0.259909
O12   O     O_3   0.566740 0.673865 0.791787 -0.565550
C31   C     C_3   0.477492 0.798774 0.796590 0.043811
H16   H     H_    0.373021 0.800225 0.859667 0.220644
H17   H     H_    0.411585 0.788414 0.739997 0.135587
C32   C     C_3   0.613205 0.954672 0.792723 -0.812087
H18   H     H_    0.725158 0.958233 0.733403 0.261346
H19   H     H_    0.541514 0.049390 0.789436 0.226177
H20   H     H_    0.669469 0.977016 0.852237 0.231372
O13   O     O_3   0.960544 0.736724 0.264098 -0.702590
H21   H     H_    0.876826 0.766744 0.318323 0.337343
O14   O     O_3   0.023652 0.299818 0.746430 -0.751361
H22   H     H_    0.992392 0.378165 0.714957 0.359771
O15   O     O_3   0.904646 0.282713 0.928250 -0.718331
H23   H     H_    0.827692 0.257125 0.884464 0.344295
O16   O     O_3   0.089805 0.768120 0.083475 -0.704113
H24   H     H_    0.167571 0.777008 0.126420 0.367188
O17   O     O_3   0.223453 0.487089 0.175495 -0.657471
H25   H     H_    0.086880 0.453422 0.192004 0.365362
O18   O     O_3   0.803101 0.548922 0.832543 -0.724638
H26   H     H_    0.727538 0.452410 0.811952 0.330628
O19   O     O_3   0.672435 0.054117 0.566872 -0.767477
H27   H     H_    0.743203 0.987143 0.585330 0.327531
O20   O     O_3   0.323664 0.943751 0.436985 -0.696471
H28   H     H_    0.231319 0.002257 0.431704 0.337524
O21   O     O_3   0.037787 0.685445 0.541067 -0.436145
C33   C     C_3   0.963305 0.730290 0.627247 0.187906
H29   H     H_    0.976544 0.648683 0.673859 0.167057
H30   H     H_    0.816499 0.736800 0.636633 0.194525
C34   C     C_3   0.072433 0.891240 0.645644 -0.813425
H31   H     H_    0.012029 0.935487 0.711052 0.222080
H32   H     H_    0.218007 0.886566 0.642912 0.233402
H33   H     H_    0.068705 0.973253 0.597145 0.260261
O22   O     O_3   0.992288 0.385594 0.406763 -0.437343
C35   C     C_3   0.979688 0.225073 0.410469 0.177624
H34   H     H_    0.840538 0.164321 0.401990 0.148714
H35   H     H_    0.996024 0.187320 0.473059 0.165740
C36   C     C_3   0.114639 0.171910 0.333498 -0.802226
H36   H     H_    0.258265 0.210781 0.341648 0.296666
H37   H     H_    0.080036 0.043341 0.326252 0.208158
H38   H     H_    0.103345 0.222775 0.274359 0.291253

loop_
_geom_bond_atom_site_label_1
_geom_bond_atom_site_label_2
_ccdc_geom_bond_type
O22   C35   S    
C6    O10   S    
C5    O9    S    
C8    O20   S    
O15   H23   S    
C36   H36   S    
C7    C8    D    
O17   H25   S    
Cu1   N2    S    
C27   C28   S    
Cu2   N1    S    
O9    C25   S    
C19   C21   A    
O13   H21   S    
C25   H1    S    
C33   H30   S    
C30   H14   S    
C6    C22   A    
C1    O3    A    
C2    O4    A    
C26   H3    S    
N1    O21   S    
C31   H17   S    
C18   O11   S    
C17   O12   S    
C27   H6    S    
C11   C15   A    
Cu2   O6    S    
C20   C24   A    
C28   H9    S    
C23   C24   A    
C34   H32   S    
C28   H10   S    
Cu1   O4    S    
Cu2   O3    S    
C9    O5    A    
C26   H4    S    
C3    C24   A    
C35   H34   S    
C36   H37   S    
O19   H27   S    
C27   H7    S    
Cu1   O1    S    
C29   H12   S    
C12   C16   A    
C25   C26   S    
C4    C6    A    
C4    C23   A    
C33   H29   S    
C30   H15   S    
C35   C36   S    
C32   H19   S    
Cu1   Cu2   S    
O21   C33   S    
N2    O22   S    
C19   C23   A    
O16   H24   S    
C31   H16   S    
O20   H28   S    
C32   H20   S    
C1    O1    A    
C13   C21   A    
C10   O6    A    
C34   H33   S    
C35   H35   S    
C9    C11   S    
C10   C12   S    
C4    O18   S    
C7    O19   S    
C20   C22   A    
Cu2   O2    S    
C13   C15   A    
C26   H5    S    
C14   C16   A    
C3    O17   S    
C36   H38   S    
C29   H11   S    
C11   C17   A    
C31   C32   S    
C1    C7    S    
C2    C8    S    
C16   O13   S    
C13   O15   S    
C3    C5    A    
C33   C34   S    
O11   C29   S    
C15   O14   S    
C2    O2    A    
C14   O16   S    
C14   C22   A    
O14   H22   S    
C25   H2    S    
C30   H13   S    
C17   C19   A    
C18   C20   A    
C32   H18   S    
O12   C31   S    
Cu1   O8    S    
O18   H26   S    
O10   C27   S    
Cu2   O7    S    
C5    C21   A    
C28   H8    S    
C12   C18   A    
N1    N2    D    
C9    O7    A    
C10   O8    A    
C34   H31   S    
Cu1   O5    S    
C29   C30   S    
