data_mof_unit_35480.cif
_audit_creation_date              2012-12-10T17:33:03-0500
_audit_creation_method            fapswitch 2.2
_symmetry_space_group_name_H-M    P1
_symmetry_Int_Tables_number       1
_space_group_crystal_system       triclinic
_cell_length_a                    12.410381
_cell_length_b                    13.260236
_cell_length_c                    14.312079
_cell_angle_alpha                 93.909242
_cell_angle_beta                  108.127222
_cell_angle_gamma                 116.955287
_cell_volume                      1933.38810247

loop_
_atom_site_label
_atom_site_type_symbol
_atom_type_description
_atom_site_fract_x
_atom_site_fract_y
_atom_site_fract_z
_atom_type_partial_charge
C1    C     C_R   0.648421 0.713342 0.505424 0.831189
C2    C     C_R   0.820283 0.467705 0.916900 0.075501
C3    C     C_R   0.789237 0.508736 0.993821 0.073465
C4    C     C_R   0.923114 0.440437 0.943484 0.081473
C5    C     C_R   0.991497 0.451748 0.047366 0.069305
C6    C     C_R   0.943751 0.474502 0.119237 -0.211418
C7    C     C_R   0.845756 0.503292 0.093100 -0.158046
C8    C     C_R   0.964712 0.408587 0.870387 -0.179900
C9    C     C_R   0.073144 0.393982 0.898567 -0.215724
C10   C     C_R   0.146623 0.413469 0.000365 0.138703
C11   C     C_R   0.106684 0.442116 0.075972 0.089268
C12   C     C_R   0.614522 0.511782 0.685974 0.819599
C13   C     C_R   0.262346 0.408139 0.027391 -0.128831
C14   C     C_R   0.340645 0.432760 0.129062 -0.142530
C15   C     C_R   0.187545 0.466207 0.177980 -0.225554
C16   C     C_R   0.164459 0.957614 0.397988 -0.180850
C17   C     C_R   0.253491 0.161602 0.472044 -0.058938
C18   C     C_R   0.712234 0.921720 0.548683 -0.173276
C19   C     C_R   0.796787 0.039004 0.560495 -0.132846
C20   C     C_R   0.903604 0.072730 0.532674 -0.157349
C21   C     C_R   0.925184 0.988471 0.487911 0.094938
C22   C     C_R   0.828780 0.868915 0.463695 0.100384
C23   C     C_R   0.346636 0.285244 0.487216 0.818825
C24   C     C_R   0.039077 0.018532 0.466350 0.080680
C25   C     C_R   0.050191 0.930355 0.415160 0.153507
C26   C     C_R   0.946092 0.816351 0.379692 -0.213024
C27   C     C_R   0.835247 0.786867 0.400532 -0.212069
C28   C     C_R   0.143597 0.133344 0.495681 -0.244634
C29   C     C_R   0.266150 0.072692 0.426979 -0.157215
C30   C     C_R   0.728683 0.835467 0.503014 -0.076124
C31   C     C_R   0.258743 0.724261 0.603550 -0.277745
C32   C     C_R   0.654670 0.330582 0.372513 0.108526
C33   C     C_R   0.730128 0.278275 0.366372 -0.123427
C34   C     C_R   0.379536 0.481004 0.313020 0.799225
C35   C     C_R   0.865515 0.342306 0.418204 -0.262913
C36   C     C_R   0.927658 0.457594 0.474560 -0.025757
C37   C     C_R   0.846396 0.500949 0.491972 0.174393
C38   C     C_R   0.068243 0.530563 0.516119 -0.010773
C39   C     C_R   0.122813 0.650156 0.559640 0.133402
C40   C     C_R   0.042229 0.693978 0.566293 -0.307756
C41   C     C_R   0.913517 0.617414 0.553866 0.011414
C42   C     C_R   0.158044 0.492144 0.513796 0.012576
C43   C     C_R   0.341008 0.680231 0.603652 0.086191
C44   C     C_R   0.670141 0.508100 0.791593 -0.084418
C45   C     C_R   0.303041 0.460740 0.204970 -0.082025
C46   C     C_R   0.699582 0.550957 0.968420 0.000900
C47   C     C_R   0.642935 0.551730 0.867472 -0.245852
C48   C     C_R   0.750570 0.459428 0.815852 -0.175579
Cu1   Cu    Cu3+1 0.416420 0.526630 0.522910 0.942223
Cu2   Cu    Cu3+1 0.583580 0.473370 0.477090 0.970006
H1    H     H_    0.815127 0.521229 0.152116 0.184891
H2    H     H_    0.293528 0.386957 0.969742 0.166270
H3    H     H_    0.950290 0.749370 0.335613 0.178990
H4    H     H_    0.174110 0.890115 0.360496 0.155150
H5    H     H_    0.635000 0.898782 0.577156 0.147135
H6    H     H_    0.965786 0.165407 0.545837 0.120705
H7    H     H_    0.782079 0.104638 0.594763 0.139960
H8    H     H_    0.754406 0.699176 0.364422 0.177375
H9    H     H_    0.164390 0.492337 0.238377 0.158850
H10   H     H_    0.087932 0.785024 0.605528 0.175327
H11   H     H_    0.301400 0.815793 0.638731 0.143042
H12   H     H_    0.124995 0.404688 0.475443 0.123293
H13   H     H_    0.921129 0.301839 0.409624 0.180358
H14   H     H_    0.431043 0.431329 0.148044 0.213327
H15   H     H_    0.102560 0.371526 0.840118 0.147737
H16   H     H_    0.757461 0.415969 0.753671 0.169051
H17   H     H_    0.980348 0.471406 0.197171 0.147240
N1    N     N_R   0.290690 0.566960 0.557640 -0.183234
N2    N     N_R   0.709100 0.433710 0.442970 -0.259300
O1    O     O_R   0.545970 0.684450 0.528810 -0.597740
O2    O     O_R   0.687130 0.639470 0.490120 -0.584151
O3    O     O_R   0.519670 0.535100 0.660030 -0.581831
O4    O     O_R   0.660830 0.490120 0.621340 -0.576963
O5    O     O_R   0.312870 0.360530 0.509880 -0.599176
O6    O     O_R   0.454030 0.315550 0.471190 -0.556773
O7    O     O_R   0.339170 0.509880 0.378660 -0.581753
O8    O     O_R   0.480330 0.464900 0.339970 -0.588647
H18   H     H_    0.352582 0.092030 0.411680 0.210026
H19   H     H_    0.141745 0.203113 0.536751 0.148348
H20   H     H_    0.445766 0.738495 0.636133 0.126391
C49   C     C_2   0.530471 0.289678 0.285500 0.926089
O9    O     O_2   0.535047 0.314087 0.205509 -0.638208
O10   O     O_R   0.410036 0.216469 0.290497 -0.745266
H21   H     H_    0.333504 0.193808 0.224554 0.328973
C50   C     C_2   0.670307 0.157390 0.304139 0.858741
O11   O     O_2   0.553375 0.088440 0.278313 -0.582052
O12   O     O_R   0.748816 0.121008 0.277555 -0.762447
H22   H     H_    0.697540 0.036702 0.237033 0.344032
C51   C     C_2   0.899468 0.644722 0.649041 0.924763
O13   O     O_2   0.917922 0.591911 0.713335 -0.626513
O14   O     O_R   0.888168 0.742527 0.673097 -0.773997
H23   H     H_    0.885741 0.754850 0.742944 0.322244
C52   C     C_2   0.668828 0.602500 0.044801 0.825792
O15   O     O_2   0.556582 0.581813 0.025451 -0.610001
O16   O     O_R   0.768566 0.679941 0.136029 -0.781398
H24   H     H_    0.734853 0.712100 0.179272 0.334917
H25   H     H_    0.578981 0.588464 0.848376 0.184848
H26   H     H_    0.918460 0.397109 0.790233 0.164465

loop_
_geom_bond_atom_site_label_1
_geom_bond_atom_site_label_2
_ccdc_geom_bond_type
C41   C51   S    
O12   H22   S    
Cu2   O8    S    
C52   O15   D    
C40   H10   S    
Cu1   N1    S    
C37   N2    A    
C17   C29   A    
C31   H11   S    
O16   H24   S    
C20   H6    S    
C49   O9    D    
C50   O11   D    
C19   H7    S    
C32   C49   S    
C26   C27   A    
C17   C23   S    
C31   C43   A    
C36   C37   A    
Cu2   N2    S    
C5    C11   A    
C3    C7    A    
C34   O8    A    
C5    C6    A    
C18   C19   A    
C28   H19   S    
C8    H26   S    
C33   C50   S    
C33   C35   A    
C11   C15   A    
C29   H18   S    
C19   C20   A    
C43   N1    A    
Cu1   O3    S    
C18   C30   A    
C51   O14   S    
C9    C10   A    
C42   H12   S    
C44   C47   A    
C4    C8    A    
C12   O3    A    
C52   O16   S    
C21   C22   A    
C42   N1    A    
C12   O4    A    
C49   O10   S    
C14   C45   A    
C9    H15   S    
C50   O12   S    
C24   C25   A    
Cu2   O4    S    
C39   C40   A    
C8    C9    A    
C2    C48   A    
C16   C29   A    
C10   C13   A    
C35   C36   A    
C2    C4    A    
Cu2   O2    S    
C13   H2    S    
O10   H21   S    
C14   H14   S    
Cu1   O7    S    
C34   C45   S    
C1    O2    A    
C32   N2    A    
C18   H5    S    
C40   C41   A    
Cu1   O1    S    
C15   C45   A    
C23   O5    A    
C26   H3    S    
O14   H23   S    
C16   C25   A    
C46   C47   A    
C6    H17   S    
C22   C30   A    
C17   C28   A    
C15   H9    S    
C24   C28   A    
C23   O6    A    
C4    C5    A    
C27   H8    S    
C38   C42   A    
C6    C7    A    
C3    C46   A    
C1    O1    A    
C47   H25   S    
C22   C27   A    
C32   C33   A    
C36   C38   A    
C2    C3    A    
C25   C26   A    
C7    H1    S    
C12   C44   S    
Cu2   O6    S    
C38   C39   A    
C46   C52   S    
C1    C30   S    
C43   H20   S    
C31   C39   A    
C37   C41   A    
C16   H4    S    
C10   C11   A    
C20   C21   A    
Cu1   Cu2   S    
C21   C24   A    
Cu1   O5    S    
C35   H13   S    
C48   H16   S    
C51   O13   D    
C13   C14   A    
C44   C48   A    
C34   O7    A    
