data_mof_unit_58973.cif
_audit_creation_date              2012-12-10T17:32:13-0500
_audit_creation_method            fapswitch 2.2
_symmetry_space_group_name_H-M    P1
_symmetry_Int_Tables_number       1
_space_group_crystal_system       triclinic
_cell_length_a                    15.493467
_cell_length_b                    15.503456
_cell_length_c                    15.506271
_cell_angle_alpha                 91.65065
_cell_angle_beta                  71.909372
_cell_angle_gamma                 111.839289
_cell_volume                      3270.5124144

loop_
_atom_site_label
_atom_site_type_symbol
_atom_type_description
_atom_site_fract_x
_atom_site_fract_y
_atom_site_fract_z
_atom_type_partial_charge
C1    C     C_R   0.461596 0.258222 0.463796 0.824623
C2    C     C_R   0.419325 0.298089 0.939357 0.539257
C3    C     C_R   0.457961 0.364355 0.994130 -0.225899
C4    C     C_R   0.482535 0.460958 0.973957 -0.043524
C5    C     C_R   0.465791 0.489734 0.896400 -0.126069
C6    C     C_R   0.524416 0.529882 0.027749 0.040484
C7    C     C_R   0.554448 0.626214 0.999733 -0.037182
C8    C     C_R   0.533970 0.652988 0.925197 0.393431
C9    C     C_R   0.481222 0.584888 0.879940 0.422643
C10   C     C_R   0.534026 0.506382 0.110680 -0.217587
C11   C     C_R   0.607271 0.669761 0.131578 -0.216146
C12   C     C_R   0.534456 0.741250 0.536758 0.809164
C13   C     C_R   0.434062 0.422604 0.837335 -0.101974
C14   C     C_R   0.327164 0.006326 0.448922 0.491643
C15   C     C_R   0.442969 0.160464 0.454034 -0.087039
C16   C     C_R   0.649810 0.896081 0.552451 -0.283924
C17   C     C_R   0.688677 0.992001 0.532391 -0.245671
C18   C     C_R   0.637971 0.036124 0.502318 0.530895
C19   C     C_R   0.538481 0.984761 0.505417 -0.019737
C20   C     C_R   0.499073 0.886199 0.527528 0.029782
C21   C     C_R   0.477641 0.025866 0.484475 0.029210
C22   C     C_R   0.384552 0.967483 0.477098 0.032149
C23   C     C_R   0.756652 0.551990 0.462681 0.849153
C24   C     C_R   0.346896 0.872131 0.503781 -0.215861
C25   C     C_R   0.401324 0.833133 0.532446 -0.167615
C26   C     C_R   0.502461 0.122871 0.476780 -0.231715
C27   C     C_R   0.356441 0.102860 0.438959 -0.296173
C28   C     C_R   0.558408 0.841969 0.543717 -0.065665
C29   C     C_R   0.023809 0.622349 0.334617 -0.309519
C30   C     C_R   0.860482 0.571694 0.443950 -0.083338
C31   C     C_R   0.064911 0.360559 0.625861 0.386084
C32   C     C_R   0.966355 0.349500 0.649825 0.432169
C33   C     C_R   0.939174 0.404295 0.601596 -0.358626
C34   C     C_R   0.242446 0.447272 0.534299 0.845560
C35   C     C_R   0.006653 0.462809 0.521977 0.050164
C36   C     C_R   0.104123 0.465673 0.492133 -0.064069
C37   C     C_R   0.980050 0.517570 0.470268 0.081395
C38   C     C_R   0.048773 0.567566 0.385791 -0.032564
C39   C     C_R   0.140110 0.559146 0.351705 0.474178
C40   C     C_R   0.166825 0.509491 0.404741 -0.238625
C41   C     C_R   0.886630 0.523114 0.498904 -0.307980
C42   C     C_R   0.928635 0.621439 0.361331 0.452846
C43   C     C_R   0.135953 0.422842 0.549541 -0.256159
C44   C     C_R   0.551772 0.551689 0.259001 0.768694
C45   C     C_R   0.448458 0.449887 0.742440 0.901373
C46   C     C_R   0.599630 0.694972 0.050086 -0.127505
C47   C     C_R   0.571857 0.575739 0.163123 0.013725
C48   C     C_R   0.405336 0.327544 0.862274 -0.325293
H1    H     H_    0.635572 0.723774 0.172914 0.137242
H2    H     H_    0.273441 0.827276 0.505427 0.183485
H3    H     H_    0.561633 0.170819 0.497382 0.208124
H4    H     H_    0.695277 0.863668 0.567383 0.182344
H5    H     H_    0.762475 0.031951 0.533277 0.160819
H6    H     H_    0.365375 0.760240 0.558495 0.166321
H7    H     H_    0.076812 0.663331 0.272002 0.177818
H8    H     H_    0.830228 0.486815 0.561395 0.145610
H9    H     H_    0.864033 0.397931 0.627819 0.159195
H10   H     H_    0.236307 0.502656 0.373637 0.183454
H11   H     H_    0.624346 0.768633 0.029398 0.180363
H12   H     H_    0.504446 0.435362 0.140722 0.122959
H13   H     H_    0.378125 0.276457 0.818243 0.162047
H14   H     H_    0.469792 0.337563 0.050891 0.149109
H15   H     H_    0.309087 0.132792 0.423833 0.144506
O1    O     O_3   0.500000 0.500000 0.500000 -0.483760
O2    O     O_R   0.708210 0.582550 0.530770 -0.646720
O3    O     O_R   0.270260 0.395900 0.573760 -0.618495
O4    O     O_R   0.537060 0.322180 0.411040 -0.634853
O5    O     O_R   0.484470 0.699370 0.484430 -0.644099
O6    O     O_R   0.404710 0.279110 0.530840 -0.656195
O7    O     O_R   0.573760 0.699350 0.573690 -0.629895
O8    O     O_R   0.714470 0.499570 0.411000 -0.647809
O9    O     O_R   0.307050 0.521980 0.484470 -0.646187
O10   O     O_R   0.588830 0.499590 0.285390 -0.647857
O11   O     O_R   0.395900 0.395880 0.699370 -0.668747
O12   O     O_R   0.493280 0.582590 0.315890 -0.632364
O13   O     O_R   0.521980 0.521940 0.699340 -0.603529
Zn1   Zn    Zn3+2 0.574690 0.574670 0.574650 0.992939
Zn2   Zn    Zn3+2 0.583640 0.456100 0.403530 0.957587
Zn3   Zn    Zn3+2 0.447120 0.574690 0.447120 0.967737
Zn4   Zn    Zn3+2 0.394550 0.394550 0.574700 0.955752
O14   O     O_3   0.236450 0.951118 0.441662 -0.656630
C49   C     C_3   0.249061 0.911363 0.357489 0.072392
H16   H     H_    0.187434 0.842358 0.368253 0.186726
H17   H     H_    0.318088 0.897567 0.332487 0.134762
C50   C     C_3   0.244671 0.973120 0.284917 -0.357899
H18   H     H_    0.175603 0.986137 0.310496 0.236370
H19   H     H_    0.307848 0.041325 0.270950 0.215198
C51   C     C_3   0.248082 0.927036 0.196248 -0.911196
H20   H     H_    0.317183 0.914386 0.168843 0.267848
H21   H     H_    0.245343 0.973608 0.144927 0.269299
H22   H     H_    0.184247 0.859572 0.207996 0.265749
O15   O     O_3   0.689540 0.128382 0.467282 -0.642570
C52   C     C_3   0.734248 0.131423 0.372518 -0.340061
H23   H     H_    0.678650 0.098473 0.337704 0.172249
H24   H     H_    0.788755 0.097722 0.357320 0.166777
H25   H     H_    0.774293 0.205596 0.344046 0.199890
O16   O     O_3   0.902194 0.671942 0.309074 -0.655438
C53   C     C_3   0.897845 0.629950 0.227587 0.075461
H26   H     H_    0.854025 0.553227 0.241716 0.158658
H27   H     H_    0.973209 0.642444 0.180974 0.127580
C54   C     C_3   0.848692 0.673464 0.180104 -0.309954
H28   H     H_    0.774678 0.664723 0.227170 0.220113
H29   H     H_    0.893481 0.749438 0.162458 0.220862
C55   C     C_3   0.838032 0.628076 0.093319 -0.947070
H30   H     H_    0.789310 0.552964 0.110062 0.275454
H31   H     H_    0.805090 0.663205 0.058987 0.270567
H32   H     H_    0.911055 0.634844 0.045627 0.260358
O17   O     O_3   0.206970 0.603347 0.267834 -0.644861
C56   C     C_3   0.186974 0.546102 0.197896 0.061885
H33   H     H_    0.212779 0.592980 0.134520 0.167942
H34   H     H_    0.106876 0.505262 0.211205 0.117455
C57   C     C_3   0.243023 0.480570 0.181150 -0.360606
H35   H     H_    0.322241 0.521740 0.170140 0.247346
H36   H     H_    0.213804 0.428823 0.241395 0.201694
C58   C     C_3   0.232199 0.427452 0.098356 -0.936872
H37   H     H_    0.153383 0.387631 0.106827 0.261802
H38   H     H_    0.269411 0.377486 0.090703 0.277770
H39   H     H_    0.266447 0.476784 0.035809 0.256530
O18   O     O_3   0.554339 0.746046 0.903549 -0.591742
C59   C     C_3   0.639730 0.780581 0.826631 -0.272481
H40   H     H_    0.627832 0.745257 0.765421 0.209080
H41   H     H_    0.703573 0.773694 0.840026 0.136455
H42   H     H_    0.658264 0.855970 0.811191 0.186027
O19   O     O_3   0.092305 0.315272 0.681961 -0.594105
C60   C     C_3   0.085289 0.226677 0.651842 0.122816
H43   H     H_    0.121573 0.231585 0.576671 0.114207
H44   H     H_    0.006837 0.178874 0.669392 0.134348
C61   C     C_3   0.136084 0.185537 0.699644 -0.305938
H45   H     H_    0.213564 0.234520 0.685882 0.262292
H46   H     H_    0.098138 0.176207 0.774465 0.218027
C62   C     C_3   0.135076 0.091549 0.666708 -0.941780
H47   H     H_    0.058302 0.040617 0.681458 0.260898
H48   H     H_    0.172834 0.063948 0.702417 0.267978
H49   H     H_    0.174137 0.099639 0.592247 0.279868
O20   O     O_3   0.899115 0.292020 0.727463 -0.615426
C63   C     C_3   0.825485 0.218747 0.703621 0.069797
H50   H     H_    0.858526 0.183112 0.646833 0.119572
H51   H     H_    0.776834 0.245671 0.682922 0.147002
C64   C     C_3   0.762348 0.147189 0.786521 -0.315414
H52   H     H_    0.809714 0.121009 0.810219 0.226654
H53   H     H_    0.726485 0.181255 0.842617 0.225143
C65   C     C_3   0.683311 0.064831 0.763979 -0.980682
H54   H     H_    0.637772 0.089705 0.736184 0.273189
H55   H     H_    0.634927 0.017118 0.826762 0.271349
H56   H     H_    0.717753 0.025424 0.713171 0.266425
O21   O     O_3   0.393289 0.204316 0.964640 -0.651474
C66   C     C_3   0.441050 0.161322 0.893906 0.069607
H57   H     H_    0.480747 0.128973 0.922351 0.168986
H58   H     H_    0.497693 0.210552 0.834164 0.119102
C67   C     C_3   0.364493 0.084014 0.862514 -0.338481
H59   H     H_    0.313720 0.031213 0.921182 0.231757
H60   H     H_    0.320402 0.113736 0.837805 0.217686
C68   C     C_3   0.412770 0.035982 0.786060 -0.943652
H61   H     H_    0.463867 0.087364 0.726432 0.262065
H62   H     H_    0.355395 0.981570 0.763993 0.271852
H63   H     H_    0.453790 0.002003 0.810393 0.273313
O22   O     O_3   0.446125 0.613827 0.818942 -0.575343
C69   C     C_3   0.345966 0.596879 0.861980 -0.301671
H64   H     H_    0.334087 0.631203 0.926345 0.168912
H65   H     H_    0.300810 0.520707 0.875165 0.149902
H66   H     H_    0.320272 0.626952 0.815522 0.188233

loop_
_geom_bond_atom_site_label_1
_geom_bond_atom_site_label_2
_ccdc_geom_bond_type
C16   C28   A    
C21   C26   A    
C52   H23   S    
C17   H5    S    
C46   H11   S    
O1    Zn1   S    
C11   C47   A    
C35   C36   A    
C66   H57   S    
C62   H49   S    
C61   H45   S    
C34   O3    A    
C55   H31   S    
O16   C53   S    
O20   C63   S    
C50   H18   S    
C12   O5    A    
C54   H28   S    
C31   C43   A    
C12   C28   S    
C45   O13   A    
O6    Zn4   S    
C22   C24   A    
C66   H58   S    
C31   O19   S    
C11   C46   A    
O9    Zn3   S    
C56   H34   S    
C38   C39   A    
C29   C42   A    
C64   C65   S    
C50   C51   S    
C20   C25   A    
C58   H37   S    
O17   C56   S    
C57   C58   S    
C18   C19   A    
C57   H35   S    
C69   H66   S    
C1    O4    A    
O22   C69   S    
C19   C20   A    
C8    C9    A    
C58   H38   S    
C67   C68   S    
C29   C38   A    
C60   C61   S    
O10   Zn2   S    
C30   C41   A    
C1    C15   S    
C14   C27   A    
C68   H62   S    
C5    C13   A    
C59   H42   S    
O5    Zn3   S    
C52   H24   S    
O11   Zn4   S    
C21   C22   A    
O7    Zn1   S    
C69   H65   S    
O1    Zn4   S    
C65   H56   S    
O4    Zn2   S    
C63   C64   S    
C57   H36   S    
C55   H30   S    
C59   H41   S    
O14   C49   S    
C50   H19   S    
C24   H2    S    
C39   O17   S    
O2    Zn1   S    
C7    C46   A    
C23   O8    A    
C36   C40   A    
C66   C67   S    
C40   H10   S    
C24   C25   A    
C63   H51   S    
C56   C57   S    
C39   C40   A    
C16   C17   A    
C15   C26   A    
C29   H7    S    
C2    C48   A    
C1    O6    A    
C45   O11   A    
C44   O12   A    
C10   H12   S    
C23   C30   S    
C41   H8    S    
C5    C9    A    
C37   C38   A    
C11   H1    S    
C32   O20   S    
C15   C27   A    
C31   C32   A    
C51   H22   S    
C9    O22   S    
C64   H52   S    
C58   H39   S    
C17   C18   A    
O13   Zn1   S    
C68   H63   S    
C20   C28   A    
C27   H15   S    
C25   H6    S    
C4    C6    A    
C51   H21   S    
C49   H16   S    
C52   H25   S    
C53   H27   S    
C69   H64   S    
O1    Zn3   S    
C67   H60   S    
C42   O16   S    
C3    C4    A    
C53   C54   S    
C61   C62   S    
C34   O9    A    
C59   H40   S    
O21   C66   S    
C3    H14   S    
C12   O7    A    
C33   H9    S    
C35   C37   A    
C65   H54   S    
O1    Zn2   S    
C34   C43   S    
C16   H4    S    
C63   H50   S    
C62   H48   S    
C61   H46   S    
C6    C10   A    
C13   C48   A    
O18   C59   S    
C44   C47   S    
C6    C7    A    
C2    O21   S    
C49   C50   S    
O3    Zn4   S    
C49   H17   S    
C18   O15   S    
C32   C33   A    
C14   C22   A    
C2    C3    A    
C26   H3    S    
C13   C45   S    
C64   H53   S    
C23   O2    A    
C48   H13   S    
C60   H43   S    
O15   C52   S    
C33   C35   A    
C65   H55   S    
C55   H32   S    
C37   C41   A    
C44   O10   A    
C7    C8    A    
C4    C5    A    
C51   H20   S    
C54   H29   S    
C53   H26   S    
C10   C47   A    
C60   H44   S    
C67   H59   S    
C30   C42   A    
C36   C43   A    
C54   C55   S    
C14   O14   S    
C68   H61   S    
C56   H33   S    
O12   Zn3   S    
O8    Zn2   S    
C62   H47   S    
C8    O18   S    
O19   C60   S    
C19   C21   A    
