data_mof_unit_62562.cif
_audit_creation_date              2012-10-26T19:14:30-0400
_audit_creation_method            fapswitch 2.2
_symmetry_space_group_name_H-M    P1
_symmetry_Int_Tables_number       1
_space_group_crystal_system       triclinic
_cell_length_a                    13.808895
_cell_length_b                    15.127002
_cell_length_c                    17.165444
_cell_angle_alpha                 89.852196
_cell_angle_beta                  86.921763
_cell_angle_gamma                 89.737228
_cell_volume                      3580.42021874

loop_
_atom_site_label
_atom_site_type_symbol
_atom_type_description
_atom_site_fract_x
_atom_site_fract_y
_atom_site_fract_z
_atom_type_partial_charge
C1    C     C_R   0.499496 0.670234 0.502537 0.577870
C2    C     C_R   0.424565 0.188110 0.471319 -0.131046
C3    C     C_R   0.579506 0.903621 0.467048 -0.106290
C4    C     C_R   0.424497 0.096483 0.467742 -0.110305
C5    C     C_R   0.499188 0.951736 0.496571 0.005542
C6    C     C_R   0.501451 0.048277 0.496445 0.001034
C7    C     C_R   0.896443 0.436223 0.459798 -0.132428
C8    C     C_R   0.109362 0.560431 0.455505 -0.130695
C9    C     C_R   0.794484 0.437024 0.459901 0.070072
C10   C     C_R   0.211328 0.559503 0.455629 0.063625
C11   C     C_R   0.787190 0.563131 0.540917 0.082929
C12   C     C_R   0.500187 0.329746 0.502494 0.572674
C13   C     C_R   0.207022 0.440339 0.544992 0.080784
C14   C     C_R   0.889176 0.565176 0.542219 0.081975
C15   C     C_R   0.104859 0.438542 0.546450 0.080409
C16   C     C_R   0.488360 0.501425 0.650222 0.599139
C17   C     C_R   0.511619 0.498380 0.349997 0.551447
C18   C     C_R   0.945515 0.500739 0.501110 0.035279
C19   C     C_R   0.054387 0.499563 0.501151 0.036923
C20   C     C_R   0.485862 0.497426 0.735246 -0.024720
C21   C     C_R   0.513438 0.488257 0.265752 -0.038138
C22   C     C_R   0.550906 0.548199 0.777468 0.060476
C23   C     C_R   0.418706 0.907917 0.530902 -0.098055
C24   C     C_R   0.530457 0.404629 0.231113 0.051339
C25   C     C_R   0.561420 0.529194 0.856885 0.093335
C26   C     C_R   0.507924 0.391707 0.152798 0.088345
C27   C     C_R   0.507717 0.459718 0.892765 0.013975
C28   C     C_R   0.468845 0.462598 0.110572 0.011896
C29   C     C_R   0.440936 0.411746 0.850587 0.098313
C30   C     C_R   0.452989 0.545357 0.146065 0.092980
C31   C     C_R   0.429788 0.431646 0.772517 -0.109701
C32   C     C_R   0.475225 0.557504 0.223091 -0.124289
C33   C     C_2   0.520762 0.440291 0.975108 -0.062173
C34   C     C_R   0.578009 0.091983 0.529794 -0.098865
C35   C     C_2   0.448109 0.453476 0.028231 -0.061689
C36   C     C_2   0.606743 0.621161 0.738611 0.613234
C37   C     C_2   0.566085 0.330014 0.278031 0.597932
C38   C     C_2   0.335433 0.774628 0.582585 0.597932
C39   C     C_2   0.655126 0.225005 0.580638 0.593435
C40   C     C_R   0.418199 0.815831 0.537452 0.052235
C41   C     C_R   0.577643 0.184015 0.536345 0.045722
C42   C     C_R   0.498602 0.767062 0.504842 0.007678
C43   C     C_R   0.500888 0.232902 0.504694 -0.008140
C44   C     C_R   0.578904 0.811973 0.470602 -0.132764
Cu1   Cu    Cu3+1 0.403570 0.500010 0.500000 1.013104
Cu2   Cu    Cu3+1 0.596430 0.499990 0.500000 1.049253
H1    H     H_    0.936885 0.385437 0.427591 0.138268
H2    H     H_    0.594040 0.430248 0.993732 0.173257
H3    H     H_    0.358344 0.946181 0.556194 0.162396
H4    H     H_    0.635524 0.053657 0.554432 0.163886
H5    H     H_    0.641034 0.776054 0.445514 0.143528
H6    H     H_    0.365349 0.224108 0.446806 0.161686
H7    H     H_    0.642274 0.937106 0.440643 0.141778
H8    H     H_    0.364810 0.063087 0.442003 0.146002
H9    H     H_    0.736605 0.678805 0.715848 0.355220
H10   H     H_    0.543758 0.206504 0.319422 0.345164
H11   H     H_    0.191548 0.775636 0.610150 0.368812
H12   H     H_    0.073509 0.608420 0.419890 0.132714
H13   H     H_    0.796139 0.224697 0.605888 0.368070
H14   H     H_    0.757968 0.386897 0.427824 0.183673
H15   H     H_    0.252611 0.606658 0.420094 0.138581
H16   H     H_    0.744453 0.612283 0.573064 0.156462
H17   H     H_    0.245249 0.393849 0.580326 0.144988
H18   H     H_    0.459469 0.620625 0.250839 0.142445
H19   H     H_    0.381567 0.391768 0.739484 0.155054
H20   H     H_    0.377137 0.473413 0.009784 0.178290
I1    I     I_    0.953273 0.664895 0.608729 -0.293240
I2    I     I_    0.031336 0.344557 0.619518 -0.284341
I3    I     I_    0.360635 0.303141 0.898407 -0.228379
I4    I     I_    0.396168 0.655762 0.086403 -0.265044
I5    I     I_    0.530169 0.264858 0.099154 -0.182444
I6    I     I_    0.651517 0.610016 0.925511 -0.177224
N1    N     N_R   0.741310 0.499980 0.500000 -0.247099
N2    N     N_R   0.258690 0.500020 0.500000 -0.240793
O1    O     O_R   0.418570 0.628550 0.499990 -0.485534
O2    O     O_R   0.707037 0.626295 0.745042 -0.639896
O3    O     O_2   0.642386 0.336859 0.310397 -0.513320
O4    O     O_R   0.511728 0.252504 0.286166 -0.665190
O5    O     O_2   0.349191 0.713466 0.627464 -0.444985
O6    O     O_R   0.241829 0.808588 0.576213 -0.686066
O7    O     O_2   0.635813 0.285196 0.626401 -0.480285
O8    O     O_R   0.749837 0.191931 0.572429 -0.680194
O9    O     O_R   0.581430 0.371450 0.500010 -0.467534
O10   O     O_R   0.581440 0.628540 0.499990 -0.517680
O11   O     O_R   0.418560 0.371460 0.500010 -0.524848
O12   O     O_R   0.409120 0.500020 0.613600 -0.482557
O13   O     O_R   0.590880 0.499980 0.386400 -0.476280
O14   O     O_R   0.571990 0.500010 0.613600 -0.470677
O15   O     O_R   0.428010 0.499990 0.386400 -0.511374
O16   O     O_2   0.565128 0.675597 0.699384 -0.486876

loop_
_geom_bond_atom_site_label_1
_geom_bond_atom_site_label_2
_ccdc_geom_bond_type
C30   C32   A    
C27   C29   A    
C3    H7    S    
C14   C18   A    
Cu1   O11   S    
H13   O8    S    
C11   H16   S    
C39   C41   S    
Cu1   Cu2   S    
C27   C33   S    
C1    O10   A    
C15   C19   A    
C9    N1    A    
C12   O11   A    
C24   C26   A    
C12   C43   S    
C5    C6    S    
C11   C14   A    
C23   H3    S    
C38   O5    D    
C23   C40   A    
H10   O4    S    
C31   H19   S    
C18   C19   S    
C36   O2    S    
C8    H12   S    
C28   C35   S    
C22   C25   A    
C13   H17   S    
C14   I1    S    
Cu1   O15   S    
C29   I3    S    
C40   C42   A    
C16   O12   A    
C26   I5    S    
C41   C43   A    
H11   O6    S    
C34   C41   A    
C42   C44   A    
C30   I4    S    
Cu2   O14   S    
C21   C32   A    
C3    C44   A    
C34   H4    S    
C8    C19   A    
C1    O1    A    
C17   O15   A    
C32   H18   S    
C4    C6    A    
C11   N1    A    
C35   H20   S    
C37   O3    D    
C17   C21   S    
C6    C34   A    
C12   O9    A    
Cu1   N2    S    
C7    H1    S    
C2    C4    A    
C5    C23   A    
C2    C43   A    
C16   C20   S    
C7    C18   A    
C24   C37   S    
C25   I6    S    
C39   O7    D    
C2    H6    S    
Cu2   O10   S    
H9    O2    S    
C44   H5    S    
C20   C22   A    
C13   C15   A    
C10   H15   S    
Cu2   O13   S    
C36   O16   D    
C7    C9    A    
C4    H8    S    
C17   O13   A    
C39   O8    S    
C3    C5    A    
C25   C27   A    
C22   C36   S    
C37   O4    S    
C26   C28   A    
Cu1   O1    S    
C9    H14   S    
C28   C30   A    
Cu1   O12   S    
C29   C31   A    
C38   C40   S    
C10   N2    A    
C38   O6    S    
C15   I2    S    
C33   C35   D    
Cu2   O9    S    
C1    C42   S    
C13   N2    A    
C8    C10   A    
C21   C24   A    
C16   O14   A    
C33   H2    S    
Cu2   N1    S    
C20   C31   A    
