data_mof_unit_25430.cif
_audit_creation_date              2012-12-10T17:02:55-0500
_audit_creation_method            fapswitch 2.2
_symmetry_space_group_name_H-M    P1
_symmetry_Int_Tables_number       1
_space_group_crystal_system       triclinic
_cell_length_a                    9.799709
_cell_length_b                    11.067858
_cell_length_c                    13.420977
_cell_angle_alpha                 94.214649
_cell_angle_beta                  81.428699
_cell_angle_gamma                 111.170722
_cell_volume                      1341.95207389

loop_
_atom_site_label
_atom_site_type_symbol
_atom_type_description
_atom_site_fract_x
_atom_site_fract_y
_atom_site_fract_z
_atom_type_partial_charge
C1    C     C_R   0.556060 0.745061 0.507934 0.830347
C2    C     C_R   0.436435 0.490011 0.971815 0.085782
C3    C     C_R   0.471972 0.533673 0.871361 -0.043496
C4    C     C_R   0.546417 0.535653 0.037853 0.027582
C5    C     C_R   0.685362 0.632160 0.005568 0.054708
C6    C     C_R   0.713388 0.684653 0.909404 0.465939
C7    C     C_R   0.604993 0.637598 0.844675 -0.258385
C8    C     C_R   0.522180 0.488319 0.135710 -0.202981
C9    C     C_R   0.764338 0.631497 0.169065 -0.218027
C10   C     C_R   0.372250 0.474075 0.800120 -0.177755
C11   C     C_2   0.586951 0.883311 0.514518 -0.293991
C12   C     C_R   0.422188 0.489871 0.690854 0.801838
C13   C     C_2   0.482210 0.929973 0.504144 -0.278467
C14   C     C_2   0.412459 0.115680 0.491649 -0.491241
C15   C     C_2   0.513944 0.068718 0.510450 0.649281
C16   C     C_2   0.921985 0.488968 0.492142 -0.010345
C17   C     C_2   0.076857 0.508996 0.509337 -0.041966
C18   C     C_R   0.443425 0.254577 0.493840 0.893020
C19   C     C_R   0.578325 0.513989 0.309642 0.790809
C20   C     C_R   0.794035 0.676636 0.071115 -0.141249
C21   C     C_R   0.626487 0.540037 0.202344 -0.044904
C22   C     C_R   0.230495 0.384319 0.832966 0.487461
C23   C     C_R   0.189544 0.355297 0.934796 -0.221568
C24   C     C_R   0.291179 0.404242 0.002805 -0.245069
Cu1   Cu    Cu3+1 0.362000 0.479240 0.482530 0.963204
Cu2   Cu    Cu3+1 0.638000 0.520760 0.517470 0.966192
H1    H     H_    0.846051 0.672901 0.220134 0.154960
H2    H     H_    0.372735 0.865708 0.489828 0.147379
H3    H     H_    0.305367 0.050679 0.473580 0.108896
H4    H     H_    0.696693 0.947205 0.528313 0.202705
H5    H     H_    0.125333 0.576700 0.568137 0.153954
H6    H     H_    0.872463 0.419380 0.434699 0.175236
H7    H     H_    0.106410 0.384986 0.400429 0.195253
H8    H     H_    0.895698 0.618419 0.596946 0.174449
H9    H     H_    0.900943 0.749411 0.047975 0.182136
H10   H     H_    0.421185 0.412695 0.163765 0.138359
H11   H     H_    0.250698 0.375052 0.079609 0.149709
H12   H     H_    0.079030 0.290371 0.960843 0.164846
H13   H     H_    0.623828 0.686324 0.774344 0.168136
N1    N     N_2   0.845330 0.551960 0.543750 -0.287563
N2    N     N_2   0.154690 0.448120 0.456210 -0.279562
O1    O     O_R   0.426290 0.668220 0.490680 -0.577285
O2    O     O_R   0.659360 0.703290 0.520190 -0.589884
O3    O     O_R   0.326580 0.473880 0.629020 -0.528676
O4    O     O_R   0.559660 0.508940 0.658530 -0.576847
O5    O     O_R   0.340640 0.296710 0.479810 -0.582371
O6    O     O_R   0.573710 0.331780 0.509320 -0.497626
O7    O     O_R   0.440340 0.491060 0.341470 -0.578037
O8    O     O_R   0.673420 0.526120 0.370980 -0.587159
O9    O     O_3   0.841681 0.790139 0.883852 -0.585536
C25   C     C_3   0.919547 0.765176 0.792273 -0.346213
H14   H     H_    0.872818 0.783875 0.727077 0.167230
H15   H     H_    0.922290 0.665071 0.787518 0.167357
H16   H     H_    0.035510 0.833313 0.787496 0.185119
O10   O     O_3   0.129559 0.327449 0.766001 -0.560474
C26   C     C_3   0.126939 0.200271 0.742701 -0.253197
H17   H     H_    0.081862 0.137533 0.809762 0.162374
H18   H     H_    0.238558 0.199598 0.711251 0.135628
H19   H     H_    0.053120 0.157889 0.684141 0.200551
F1    F     F_    0.648346 0.148108 0.534660 -0.650563

loop_
_geom_bond_atom_site_label_1
_geom_bond_atom_site_label_2
_ccdc_geom_bond_type
Cu1   O1    S    
C2    C4    A    
C23   C24   A    
C13   H2    S    
C6    C7    A    
C12   O4    A    
C16   H6    S    
C23   H12   S    
C15   F1    S    
C14   C18   S    
C9    C20   A    
C1    C11   S    
C26   H19   S    
C7    H13   S    
C4    C8    A    
C25   H16   S    
H7    N2    S    
C18   O6    A    
O10   C26   S    
C24   H11   S    
C12   O3    A    
C3    C10   A    
C10   C22   A    
C11   C13   D    
Cu1   O7    S    
Cu2   N1    S    
C22   O10   S    
C10   C12   S    
Cu2   O6    S    
C16   N1    D    
H8    N1    S    
C18   O5    A    
Cu1   O3    S    
C19   C21   S    
C26   H18   S    
Cu2   O2    S    
O9    C25   S    
C3    C7    A    
C13   C15   S    
C2    C24   A    
C5    C6    A    
C17   H5    S    
C17   N2    D    
C14   H3    S    
C25   H14   S    
C9    C21   A    
C1    O1    A    
C26   H17   S    
C9    H1    S    
C8    H10   S    
Cu2   O8    S    
Cu1   N2    S    
C5    C20   A    
C19   O8    A    
C14   C15   D    
C16   C17   S    
C2    C3    A    
Cu2   O4    S    
Cu1   Cu2   S    
C19   O7    A    
C20   H9    S    
Cu1   O5    S    
C1    O2    A    
C22   C23   A    
C6    O9    S    
C11   H4    S    
C4    C5    A    
C25   H15   S    
C8    C21   A    
