data_mof_unit_32728.cif
_audit_creation_date              2012-10-26T19:57:17-0400
_audit_creation_method            fapswitch 2.2
_symmetry_space_group_name_H-M    P1
_symmetry_Int_Tables_number       1
_space_group_crystal_system       triclinic
_cell_length_a                    12.998017
_cell_length_b                    10.947001
_cell_length_c                    9.742707
_cell_angle_alpha                 89.986096
_cell_angle_beta                  96.25807
_cell_angle_gamma                 89.871319
_cell_volume                      1378.01849981

loop_
_atom_site_label
_atom_site_type_symbol
_atom_type_description
_atom_site_fract_x
_atom_site_fract_y
_atom_site_fract_z
_atom_type_partial_charge
C1    C     C_R   0.501957 0.265244 0.500033 0.571589
C2    C     C_2   0.514220 0.132264 0.500606 0.262535
C3    C     C_2   0.426397 0.544536 0.912354 0.126568
C4    C     C_R   0.300766 0.504865 0.473880 0.557070
C5    C     C_2   0.419273 0.522342 0.063930 0.109347
C6    C     C_R   0.495959 0.734111 0.499587 0.530853
C7    C     C_R   0.699399 0.498125 0.526179 0.549978
C8    C     C_R   0.812659 0.495819 0.542002 0.028755
C9    C     C_R   0.188052 0.518316 0.458826 -0.013246
C10   C     C_R   0.025342 0.585442 0.332773 0.245013
C11   C     C_R   0.133434 0.572810 0.340870 0.176830
C12   C     C_R   0.028493 0.490735 0.560996 -0.022268
C13   C     C_R   0.135219 0.480434 0.568476 -0.178254
C14   C     C_3   0.622192 0.656117 0.123766 -0.242042
C15   C     C_3   0.795621 0.270781 0.753249 -0.294239
C16   C     C_3   0.226125 0.743445 0.257605 -0.281396
C17   C     C_R   0.972032 0.540278 0.441640 0.011267
C18   C     C_R   0.863959 0.539876 0.432861 -0.161019
C19   C     C_R   0.870096 0.449978 0.662552 0.137631
C20   C     C_R   0.977779 0.448666 0.671081 -0.109418
C21   C     C_2   0.489658 0.932337 0.387501 -0.135129
C22   C     C_2   0.481268 0.864813 0.499850 -0.103328
C23   C     C_2   0.475130 0.065785 0.389721 0.250355
Cu1   Cu    Cu3+1 0.500020 0.500020 0.638640 0.988317
Cu2   Cu    Cu3+1 0.499980 0.499980 0.361360 0.986903
H1    H     H_    0.818406 0.571788 0.340276 0.127075
H2    H     H_    0.652728 0.470618 0.153346 0.281899
H3    H     H_    0.689107 0.673250 0.064749 0.133056
H4    H     H_    0.645243 0.681302 0.232877 0.160463
H5    H     H_    0.556946 0.715064 0.080409 0.127762
H6    H     H_    0.858844 0.415881 0.868787 0.258945
H7    H     H_    0.751921 0.238973 0.838206 0.144531
H8    H     H_    0.867671 0.215652 0.754588 0.144308
H9    H     H_    0.747101 0.256459 0.653466 0.160911
H10   H     H_    0.919102 0.694717 0.248882 0.314454
H11   H     H_    0.149246 0.610097 0.135404 0.279718
H12   H     H_    0.367864 0.601823 0.856465 0.055022
H13   H     H_    0.274281 0.769491 0.174890 0.125224
H14   H     H_    0.274992 0.749056 0.358259 0.149267
H15   H     H_    0.160635 0.808922 0.257229 0.162687
H16   H     H_    0.398083 0.059690 0.207317 0.316342
H17   H     H_    0.343715 0.530191 0.099938 0.101370
H18   H     H_    0.021699 0.410844 0.762394 0.111214
H19   H     H_    0.177337 0.440068 0.659721 0.138010
H20   H     H_    0.503297 0.889634 0.290407 0.116193
H21   H     H_    0.459827 0.905598 0.594275 0.161258
H22   H     H_    0.594850 0.137432 0.681908 0.326490
H23   H     H_    0.593453 0.370849 0.840472 0.367789
N1    N     N_2   0.498860 0.498660 0.846770 -0.055442
N2    N     N_2   0.498840 0.498630 0.152900 -0.102746
N3    N     N_2   0.594492 0.528074 0.112237 -0.344859
N4    N     N_2   0.820542 0.398784 0.772287 -0.496725
N5    N     N_2   0.187438 0.620639 0.233159 -0.494354
O1    O     O_R   0.500020 0.321960 0.617050 -0.528876
O2    O     O_3   0.543079 0.396879 0.903606 -0.583743
O3    O     O_3   0.975361 0.643691 0.218542 -0.722197
O4    O     O_3   0.422040 0.122867 0.276415 -0.689416
O5    O     O_R   0.499980 0.321920 0.382890 -0.436700
O6    O     O_R   0.349010 0.500000 0.598060 -0.525664
O7    O     O_R   0.348980 0.499950 0.363910 -0.475616
O8    O     O_R   0.500020 0.678080 0.617110 -0.503702
O9    O     O_R   0.499980 0.678040 0.382950 -0.524827
O10   O     O_R   0.651020 0.500050 0.636090 -0.471816
O11   O     O_R   0.650990 0.500000 0.401940 -0.540111
O12   O     O_3   0.572742 0.075926 0.610330 -0.759869

loop_
_geom_bond_atom_site_label_1
_geom_bond_atom_site_label_2
_ccdc_geom_bond_type
C12   C17   A    
H23   O2    S    
C1    O1    A    
C16   H15   S    
Cu1   O8    S    
Cu2   O7    S    
C10   O3    S    
C16   H14   S    
C15   H9    S    
C19   C20   A    
C11   N5    S    
H6    N4    S    
C5    H17   S    
C2    O12   S    
C18   H1    S    
C4    O7    A    
C17   C18   A    
C3    N1    D    
H16   O4    S    
C7    C8    S    
N1    O2    S    
C15   N4    S    
Cu1   Cu2   S    
C4    C9    S    
C9    C11   A    
C7    O10   A    
C6    O9    A    
C1    O5    A    
C12   C20   A    
C14   H5    S    
Cu1   O6    S    
C4    O6    A    
C22   H21   S    
H2    N3    S    
N2    N3    S    
Cu1   O10   S    
C21   H20   S    
Cu2   O9    S    
C21   C23   S    
C7    O11   A    
C5    N2    D    
C8    C19   A    
C10   C11   A    
C14   H4    S    
Cu1   O1    S    
C6    C22   S    
C3    C5    S    
Cu1   N1    S    
C20   H18   S    
C12   C13   A    
C6    O8    A    
C1    C2    S    
Cu2   O5    S    
C16   H13   S    
C2    C23   D    
C23   O4    S    
C9    C13   A    
Cu2   N2    S    
H11   N5    S    
C10   C17   A    
C14   H3    S    
H10   O3    S    
C21   C22   D    
C19   N4    S    
H22   O12   S    
C13   H19   S    
C8    C18   A    
C14   N3    S    
C3    H12   S    
C15   H8    S    
C16   N5    S    
Cu2   O11   S    
C15   H7    S    
