data_mof_unit_33656.cif
_audit_creation_date              2012-12-10T17:47:48-0500
_audit_creation_method            fapswitch 2.2
_symmetry_space_group_name_H-M    P1
_symmetry_Int_Tables_number       1
_space_group_crystal_system       triclinic
_cell_length_a                    14.880857
_cell_length_b                    15.161064
_cell_length_c                    14.369633
_cell_angle_alpha                 74.830443
_cell_angle_beta                  103.904101
_cell_angle_gamma                 116.077484
_cell_volume                      2780.94092131

loop_
_atom_site_label
_atom_site_type_symbol
_atom_type_description
_atom_site_fract_x
_atom_site_fract_y
_atom_site_fract_z
_atom_type_partial_charge
C1    C     C_R   0.879837 0.313071 0.511692 0.790597
C2    C     C_R   0.120242 0.686794 0.488270 0.785418
C3    C     C_R   0.639869 0.076854 0.511946 0.091291
C4    C     C_R   0.362150 0.920247 0.488011 0.054201
C5    C     C_R   0.678998 0.002332 0.541996 0.000552
C6    C     C_R   0.324235 0.995213 0.462709 0.088516
C7    C     C_R   0.534077 0.049040 0.489042 0.076703
C8    C     C_R   0.467884 0.947407 0.508916 0.062595
C9    C     C_R   0.508710 0.876803 0.557298 -0.232908
C10   C     C_R   0.492930 0.119412 0.440268 -0.260382
C11   C     C_R   0.612879 0.902650 0.575386 -0.022975
C12   C     C_R   0.388985 0.094383 0.426721 0.043472
C13   C     C_R   0.701477 0.646531 0.321488 -0.153875
C14   C     C_R   0.300184 0.355494 0.679466 -0.179964
C15   C     C_R   0.787008 0.622889 0.354218 0.122389
C16   C     C_R   0.215052 0.380108 0.647472 0.146479
C17   C     C_R   0.716720 0.514728 0.494548 -0.021198
C18   C     C_R   0.281773 0.482964 0.503642 -0.007227
C19   C     C_R   0.628113 0.535745 0.464669 -0.067536
C20   C     C_R   0.370572 0.462332 0.533446 0.000629
C21   C     C_R   0.627836 0.612601 0.383571 0.091347
C22   C     C_R   0.372281 0.387443 0.616145 -0.044270
C23   C     C_R   0.001232 0.499496 0.669031 0.800330
C24   C     C_R   0.998764 0.500502 0.330968 0.805641
C25   C     C_R   0.540165 0.483275 0.512468 0.021356
C26   C     C_R   0.457838 0.514026 0.484663 0.076068
C27   C     C_R   0.468456 0.600353 0.414277 -0.356288
C28   C     C_R   0.529435 0.396915 0.582761 -0.227767
C29   C     C_R   0.553272 0.651963 0.366934 0.038058
C30   C     C_R   0.446275 0.347315 0.632849 -0.023700
C31   C     C_1   0.003440 0.499024 0.772151 -0.159484
C32   C     C_1   0.996549 0.500966 0.227844 -0.154622
C33   C     C_1   0.002956 0.499222 0.857437 0.013964
C34   C     C_1   0.997030 0.500761 0.142558 0.007761
C35   C     C_1   0.000984 0.499739 0.957590 0.016152
C36   C     C_1   0.998998 0.500237 0.042406 0.012455
C37   C     C_R   0.811453 0.205922 0.514191 -0.131192
C38   C     C_R   0.189553 0.793281 0.487284 -0.095968
C39   C     C_R   0.782009 0.030345 0.535630 -0.041431
C40   C     C_R   0.224007 0.968256 0.477392 -0.048542
C41   C     C_R   0.846956 0.132649 0.517019 -0.040299
C42   C     C_R   0.156237 0.866802 0.489526 -0.095801
C43   C     C_R   0.707770 0.177255 0.508597 -0.237067
C44   C     C_R   0.292967 0.820511 0.491008 -0.255866
Cu1   Cu    Cu3+1 0.081740 0.475690 0.523180 0.941867
Cu2   Cu    Cu3+1 0.918260 0.524310 0.476820 0.951360
H1    H     H_    0.414568 0.633733 0.400022 0.123651
H2    H     H_    0.582658 0.363043 0.595822 0.174519
H3    H     H_    0.318914 0.763530 0.493438 0.158388
H4    H     H_    0.680598 0.233995 0.503472 0.165471
H5    H     H_    0.460277 0.801811 0.587058 0.152758
H6    H     H_    0.540916 0.193549 0.408230 0.143400
H7    H     H_    0.272020 0.532586 0.436814 0.130161
H8    H     H_    0.725424 0.463310 0.560205 0.135788
N1    N     N_R   0.795420 0.560790 0.441960 -0.194338
N2    N     N_R   0.204580 0.439210 0.558040 -0.214275
O1    O     O_R   0.977910 0.338120 0.530560 -0.597055
O2    O     O_R   0.022090 0.661880 0.469440 -0.590649
O3    O     O_R   0.839850 0.379180 0.491410 -0.574304
O4    O     O_R   0.160150 0.620820 0.508590 -0.578673
O5    O     O_R   0.069040 0.479460 0.643530 -0.555873
O6    O     O_R   0.930960 0.520540 0.356470 -0.536027
O7    O     O_R   0.930990 0.520530 0.604380 -0.570390
O8    O     O_R   0.069010 0.479470 0.395620 -0.568924
C45   C     C_R   0.649134 0.827378 0.641548 0.084433
C46   C     C_R   0.722964 0.853277 0.723241 -0.085711
C47   C     C_R   0.755725 0.782240 0.786147 -0.090644
C48   C     C_R   0.713751 0.684326 0.769412 -0.116419
C49   C     C_R   0.638778 0.657207 0.689876 -0.143122
C50   C     C_R   0.606753 0.728310 0.626032 -0.168961
H9    H     H_    0.755264 0.928493 0.738072 0.137390
H10   H     H_    0.813272 0.802994 0.848243 0.144609
H11   H     H_    0.738978 0.629351 0.818333 0.141200
H12   H     H_    0.605789 0.581150 0.677592 0.153607
H13   H     H_    0.549075 0.706362 0.564511 0.144424
C51   C     C_R   0.350280 0.169429 0.363483 0.151129
C52   C     C_R   0.400887 0.271004 0.371634 -0.110286
C53   C     C_R   0.368236 0.341945 0.308396 -0.145153
C54   C     C_R   0.283993 0.312341 0.237187 -0.118336
C55   C     C_R   0.232807 0.211853 0.228503 -0.118987
C56   C     C_R   0.266143 0.140828 0.290550 -0.168081
H14   H     H_    0.465944 0.295430 0.426594 0.137727
H15   H     H_    0.408038 0.419864 0.314749 0.164102
H16   H     H_    0.258358 0.367258 0.188764 0.146770
H17   H     H_    0.167768 0.189063 0.173007 0.148913
H18   H     H_    0.226949 0.063752 0.280823 0.124271
C57   C     C_R   0.053651 0.836723 0.511640 0.123354
C58   C     C_R   0.979482 0.853788 0.437662 -0.170967
C59   C     C_R   0.879190 0.811659 0.453741 -0.132733
C60   C     C_R   0.852304 0.752817 0.543659 -0.045517
C61   C     C_R   0.926528 0.738837 0.619007 -0.055684
C62   C     C_R   0.027266 0.780928 0.603292 -0.076819
H19   H     H_    0.998740 0.896293 0.366622 0.111103
H20   H     H_    0.822164 0.823870 0.395872 0.161638
H21   H     H_    0.774100 0.719138 0.554998 0.127730
H22   H     H_    0.905770 0.693949 0.688808 0.114929
H23   H     H_    0.083959 0.766749 0.660856 0.110800
C63   C     C_R   0.947419 0.163720 0.489627 0.171782
C64   C     C_R   0.963902 0.205556 0.392478 -0.143268
C65   C     C_R   0.061536 0.246250 0.368443 -0.138756
C66   C     C_R   0.142497 0.245156 0.441220 -0.087128
C67   C     C_R   0.125522 0.201855 0.537365 -0.133267
C68   C     C_R   0.028714 0.161647 0.561817 -0.073536
H24   H     H_    0.901700 0.208982 0.336256 0.125759
H25   H     H_    0.074584 0.279814 0.293920 0.134156
H26   H     H_    0.218384 0.277766 0.423635 0.168237
H27   H     H_    0.187486 0.200079 0.593848 0.181093
H28   H     H_    0.017355 0.131068 0.637205 0.148520
C69   C     C_2   0.816566 0.953464 0.533170 0.355294
H29   H     H_    0.765170 0.891080 0.497437 0.101125
O9    O     O_2   0.899456 0.956498 0.574408 -0.553331
C70   C     C_2   0.196783 0.042246 0.499888 0.348212
H30   H     H_    0.119443 0.035916 0.483437 0.115843
O10   O     O_2   0.261094 0.108686 0.541876 -0.583774
C71   C     C_2   0.565215 0.752917 0.310796 0.388052
H31   H     H_    0.498764 0.767553 0.275250 0.086543
O11   O     O_2   0.648292 0.822006 0.308702 -0.600000
C72   C     C_2   0.432548 0.246884 0.692226 0.398339
H32   H     H_    0.357676 0.191564 0.705022 0.130570
O12   O     O_2   0.504529 0.223980 0.725950 -0.536396
C73   C     C_2   0.136928 0.340405 0.711920 0.522575
H33   H     H_    0.060056 0.292108 0.688513 0.052258
O13   O     O_2   0.158175 0.362469 0.792679 -0.528827
C74   C     C_2   0.867412 0.666250 0.291752 0.366172
H34   H     H_    0.942443 0.717497 0.316153 0.088251
O14   O     O_2   0.849529 0.645616 0.210750 -0.557191
C75   C     C_2   0.686158 0.698467 0.219236 0.498806
H35   H     H_    0.749429 0.759219 0.186693 0.079501
O15   O     O_2   0.602998 0.671302 0.169569 -0.534218
C76   C     C_2   0.318297 0.303877 0.781360 0.375573
H36   H     H_    0.394069 0.328527 0.821905 0.094400
O16   O     O_2   0.250716 0.231135 0.818803 -0.526545

loop_
_geom_bond_atom_site_label_1
_geom_bond_atom_site_label_2
_ccdc_geom_bond_type
C44   H3    S    
C7    C10   A    
C57   C58   A    
Cu1   O4    S    
C66   C67   A    
Cu2   O3    S    
C27   C29   A    
C35   C36   T    
C9    H5    S    
C4    C8    A    
C10   H6    S    
C16   N2    A    
C7    C8    A    
C40   C70   S    
C52   C53   A    
C25   C28   A    
C3    C43   A    
C65   H25   S    
Cu2   O6    S    
C19   C21   A    
C5    C11   A    
C3    C7    A    
C1    O3    A    
C6    C12   A    
C54   H16   S    
C2    O4    A    
C23   O7    A    
C45   C50   A    
C47   H10   S    
C59   H20   S    
C72   H32   S    
C18   H7    S    
C17   C19   A    
C61   H22   S    
C53   H15   S    
C64   C65   A    
Cu1   N2    S    
C8    C9    A    
C71   O11   D    
Cu2   N1    S    
C31   C33   T    
C68   H28   S    
C17   N1    A    
C18   C20   A    
C56   H18   S    
C18   N2    A    
C40   C42   A    
C64   H24   S    
C29   C71   S    
C24   O8    A    
C57   C62   A    
Cu2   O2    S    
C49   C50   A    
C75   O15   D    
C70   O10   D    
C70   H30   S    
C62   H23   S    
C15   C74   S    
C47   C48   A    
C60   H21   S    
C6    C40   A    
C51   C52   A    
C39   C41   A    
C61   C62   A    
C53   C54   A    
C48   C49   A    
C4    C44   A    
C23   C31   S    
C48   H11   S    
Cu1   Cu2   S    
C21   C29   A    
C15   N1    A    
C37   C43   A    
C76   O16   D    
C16   C73   S    
C24   C32   S    
C38   C44   A    
C55   H17   S    
C1    O1    A    
C2    C38   S    
C46   H9    S    
C23   O5    A    
Cu1   O1    S    
C26   C27   A    
C13   C21   A    
C49   H12   S    
C9    C11   A    
C73   H33   S    
C10   C12   A    
C4    C6    A    
C20   C22   A    
C45   C46   A    
C13   C15   A    
C14   C16   A    
C75   H35   S    
C67   H27   S    
C74   O14   D    
C14   C76   S    
C27   H1    S    
C66   H26   S    
C5    C39   A    
C58   H19   S    
C28   H2    S    
C24   O6    A    
C22   C30   A    
C55   C56   A    
C3    C5    A    
C51   C56   A    
C2    O2    A    
C43   H4    S    
C38   C42   A    
C1    C37   S    
C30   C72   S    
Cu1   O8    S    
Cu2   O7    S    
C14   C22   A    
C12   C51   S    
C76   H36   S    
C25   C26   A    
C28   C30   A    
C63   C68   A    
C69   H29   S    
C60   C61   A    
C20   C26   A    
C52   H14   S    
C69   O9    D    
Cu1   O5    S    
C65   C66   A    
C33   C35   S    
C46   C47   A    
C34   C36   S    
C37   C41   A    
C67   C68   A    
C19   C25   A    
C72   O12   D    
C73   O13   D    
C54   C55   A    
C13   C75   S    
C11   C45   S    
C39   C69   S    
C58   C59   A    
C63   C64   A    
C50   H13   S    
C41   C63   S    
C42   C57   S    
C59   C60   A    
C17   H8    S    
C71   H31   S    
C32   C34   T    
C74   H34   S    
