data_mof_unit_17885.cif
_audit_creation_date              2012-10-26T19:06:29-0400
_audit_creation_method            fapswitch 2.2
_symmetry_space_group_name_H-M    P1
_symmetry_Int_Tables_number       1
_space_group_crystal_system       triclinic
_cell_length_a                    12.391146
_cell_length_b                    13.131295
_cell_length_c                    14.329428
_cell_angle_alpha                 77.967599
_cell_angle_beta                  101.077764
_cell_angle_gamma                 116.718901
_cell_volume                      2023.88873313

loop_
_atom_site_label
_atom_site_type_symbol
_atom_type_description
_atom_site_fract_x
_atom_site_fract_y
_atom_site_fract_z
_atom_type_partial_charge
C1    C     C_R   0.854485 0.285875 0.508823 0.540240
C2    C     C_R   0.439773 0.976213 0.463235 0.054018
C3    C     C_R   0.400131 0.055697 0.402483 0.057669
C4    C     C_R   0.000437 0.500103 0.668678 0.527943
C5    C     C_R   0.485590 0.164014 0.368152 -0.129534
C6    C     C_R   0.608582 0.197148 0.399039 -0.110383
C7    C     C_R   0.351703 0.868670 0.497815 -0.104532
C8    C     C_R   0.189898 0.914639 0.406266 -0.126274
C9    C     C_R   0.771520 0.161390 0.512875 -0.009541
C10   C     C_R   0.339081 0.321256 0.645034 -0.133203
C11   C     C_R   0.757783 0.637416 0.368986 0.066416
C12   C     C_1   0.999314 0.500614 0.228709 -0.036943
C13   C     C_R   0.653180 0.648631 0.325470 -0.157940
C14   C     C_R   0.546488 0.586374 0.368484 -0.119705
C15   C     C_R   0.545430 0.520514 0.460299 -0.021556
C16   C     C_R   0.145085 0.713702 0.486631 0.556382
C17   C     C_R   0.651131 0.501838 0.496176 0.145532
C18   C     C_R   0.442251 0.466523 0.514467 -0.068281
C19   C     C_R   0.440845 0.380362 0.593846 0.035422
C20   C     C_R   0.542271 0.355942 0.623194 0.221252
C21   C     C_R   0.645815 0.417697 0.575806 -0.076614
C22   C     C_R   0.342443 0.497043 0.497343 0.122953
C23   C     C_R   0.275496 0.024749 0.375229 -0.124394
C24   C     C_R   0.242211 0.350856 0.621580 0.031397
C25   C     C_R   0.999814 0.500364 0.331259 0.541729
C26   C     C_1   0.001107 0.500324 0.771144 -0.050370
C27   C     C_1   0.001138 0.500613 0.856567 -0.054665
C28   C     C_1   0.000806 0.500841 0.957189 -0.016013
C29   C     C_1   0.000196 0.500815 0.042581 -0.008934
C30   C     C_1   0.999525 0.500720 0.143228 -0.043404
C31   C     C_3   0.606127 0.312970 0.780301 -0.003804
C32   C     C_3   0.593898 0.213941 0.861732 -0.254767
C33   C     C_3   0.662952 0.258156 0.955945 -0.483257
C34   C     C_R   0.228309 0.835564 0.466374 0.007133
C35   C     C_1   0.343952 0.596000 0.430256 0.245110
C36   C     C_3   0.917942 0.094001 0.720271 0.005488
C37   C     C_3   0.905340 0.191777 0.752880 -0.275720
C38   C     C_3   0.898666 0.170743 0.860846 -0.488521
C39   C     C_1   0.777626 0.874711 0.610415 0.212036
C40   C     C_R   0.810365 0.079013 0.569676 0.256985
C41   C     C_R   0.733228 0.961160 0.570736 -0.016470
C42   C     C_R   0.611484 0.926266 0.534536 -0.175716
C43   C     C_R   0.565916 0.007621 0.489701 0.011674
C44   C     C_R   0.649697 0.123582 0.467172 -0.016266
Cu1   Cu    Cu3+1 0.098280 0.475420 0.520190 0.963156
Cu2   Cu    Cu3+1 0.901720 0.524580 0.479810 0.915226
H1    H     H_    0.094613 0.890206 0.380744 0.127311
H2    H     H_    0.554731 0.834736 0.539251 0.123404
H3    H     H_    0.670289 0.279900 0.366265 0.151273
H4    H     H_    0.163999 0.305387 0.661172 0.146332
H5    H     H_    0.571076 0.369039 0.800843 0.135309
H6    H     H_    0.704228 0.363759 0.770290 0.132213
H7    H     H_    0.496213 0.161063 0.871554 0.173820
H8    H     H_    0.630148 0.158319 0.842601 0.173434
H9    H     H_    0.761092 0.310017 0.948162 0.155646
H10   H     H_    0.652727 0.184105 0.013300 0.150668
H11   H     H_    0.626381 0.311989 0.977570 0.151298
H12   H     H_    0.334737 0.253539 0.704245 0.146448
H13   H     H_    0.003648 0.090233 0.757587 0.149548
H14   H     H_    0.842965 0.009997 0.744107 0.131032
H15   H     H_    0.985181 0.273691 0.735232 0.180044
H16   H     H_    0.821724 0.199590 0.715046 0.157786
H17   H     H_    0.818110 0.089817 0.880425 0.148597
H18   H     H_    0.890285 0.243163 0.882165 0.153940
H19   H     H_    0.982360 0.164924 0.900773 0.149499
H20   H     H_    0.839741 0.682265 0.333686 0.126076
H21   H     H_    0.465217 0.585377 0.324953 0.133150
H22   H     H_    0.653343 0.701220 0.256351 0.104830
H23   H     H_    0.719168 0.394330 0.602454 0.181048
H24   H     H_    0.457276 0.223912 0.317904 0.106078
H25   H     H_    0.244553 0.084766 0.328103 0.110648
H26   H     H_    0.377200 0.808457 0.549498 0.121953
N1    N     N_R   0.246290 0.438200 0.550780 -0.241710
N2    N     N_R   0.754310 0.561180 0.449760 -0.224036
N3    N     N_1   0.345866 0.675609 0.376048 -0.322557
N4    N     N_1   0.813089 0.805345 0.642052 -0.295932
O1    O     O_R   0.972510 0.318130 0.525390 -0.442416
O2    O     O_3   0.925818 0.114193 0.619972 -0.552811
O3    O     O_R   0.806530 0.359650 0.491290 -0.535485
O4    O     O_R   0.083010 0.479240 0.641000 -0.496186
O5    O     O_R   0.917030 0.520750 0.606900 -0.491971
O6    O     O_R   0.193470 0.640350 0.508710 -0.486830
O7    O     O_R   0.027490 0.681870 0.474610 -0.493385
O8    O     O_R   0.082970 0.479250 0.393100 -0.469225
O9    O     O_R   0.916990 0.520760 0.359000 -0.501888
O10   O     O_3   0.538277 0.266731 0.695893 -0.577907

loop_
_geom_bond_atom_site_label_1
_geom_bond_atom_site_label_2
_ccdc_geom_bond_type
C33   H9    S    
C15   C18   A    
C1    O1    A    
C41   C42   A    
C3    C23   A    
C2    C7    A    
C31   H6    S    
C36   H13   S    
C37   H16   S    
C39   C41   S    
Cu1   Cu2   S    
C22   C35   S    
C35   N3    T    
C26   C27   T    
C29   C30   S    
C28   C29   T    
C10   H12   S    
C4    O4    A    
C5    C6    A    
C24   N1    A    
Cu1   O6    S    
C8    C23   A    
Cu1   N1    S    
C18   C19   A    
C16   C34   S    
C4    O5    A    
C19   C20   A    
C20   O10   S    
C25   O8    A    
C14   H21   S    
C2    C43   A    
C11   H20   S    
Cu2   O9    S    
C33   H10   S    
C31   O10   S    
C6    C44   A    
C13   C14   A    
C32   H8    S    
C38   H18   S    
C24   H4    S    
C23   H25   S    
C1    C9    S    
C7    H26   S    
C42   H2    S    
C10   C24   A    
C11   N2    A    
C9    C40   A    
C17   C21   A    
C21   H23   S    
C43   C44   A    
C37   C38   S    
Cu2   O5    S    
C4    C26   S    
C31   C32   S    
C38   H19   S    
C10   C19   A    
C25   O9    A    
C8    C34   A    
C39   N4    T    
C40   C41   A    
C17   N2    A    
C1    O3    A    
C7    C34   A    
C40   O2    S    
Cu1   O8    S    
C42   C43   A    
C3    C5    A    
C32   H7    S    
Cu2   N2    S    
C38   H17   S    
C15   C17   A    
C36   C37   S    
C9    C44   A    
C33   H11   S    
C12   C30   T    
C18   C22   A    
C31   H5    S    
C36   H14   S    
C5    H24   S    
C37   H15   S    
C12   C25   S    
C32   C33   S    
C2    C3    A    
C8    H1    S    
C36   O2    S    
C11   C13   A    
Cu2   O3    S    
Cu1   O4    S    
C16   O7    A    
C6    H3    S    
Cu2   O7    S    
C20   C21   A    
C16   O6    A    
C27   C28   S    
C14   C15   A    
Cu1   O1    S    
C22   N1    A    
C13   H22   S    
