data_mof_unit_40725.cif
_audit_creation_date              2013-03-05T16:46:58-0500
_audit_creation_method            fapswitch 2.2
_symmetry_space_group_name_H-M    P1
_symmetry_Int_Tables_number       1
_space_group_crystal_system       triclinic
_cell_length_a                    15.05495
_cell_length_b                    8.929255
_cell_length_c                    8.099621
_cell_angle_alpha                 89.84591
_cell_angle_beta                  89.41242
_cell_angle_gamma                 90.113849
_cell_volume                      1088.76449824

loop_
_atom_site_label
_atom_site_type_symbol
_atom_site_description
_atom_site_fract_x
_atom_site_fract_y
_atom_site_fract_z
_atom_type_partial_charge
O1    O     O_R   0.500000 0.285350 0.636850 -0.612329
O2    O     O_R   0.500000 0.714650 0.363150 -0.607569
O3    O     O_R   0.500000 0.714650 0.636850 -0.622501
O4    O     O_R   0.500000 0.285350 0.363150 -0.621033
H1    H     H_    0.918278 0.213757 0.776656 0.153532
H2    H     H_    0.081799 0.782041 0.218304 0.153138
H3    H     H_    0.924008 0.778908 0.213164 0.177785
H4    H     H_    0.076058 0.212742 0.777148 0.176712
C1    C     C_R   0.499872 0.217973 0.500145 0.927150
C2    C     C_R   0.499837 0.782021 0.499859 0.935299
O5    O     O_R   0.367850 0.500000 0.636890 -0.632657
O6    O     O_R   0.632150 0.500000 0.363110 -0.643317
O7    O     O_R   0.632150 0.500000 0.636890 -0.596197
O8    O     O_R   0.367850 0.500000 0.363110 -0.601074
C3    C     C_R   0.326569 0.498201 0.501122 0.920874
C4    C     C_R   0.673496 0.502414 0.498887 0.939702
Zn1   Zn    Zn3+2 0.500000 0.500000 0.682780 0.981905
Zn2   Zn    Zn3+2 0.500000 0.500000 0.317220 0.980166
N1    N     N_1   0.500000 0.500000 0.073640 -0.040724
N2    N     N_1   0.500000 0.500000 0.926360 -0.039646
C5    C     C_R   0.815842 0.600810 0.392477 0.092920
C6    C     C_R   0.184604 0.400912 0.610136 0.088412
C7    C     C_R   0.812808 0.400665 0.601735 0.114941
C8    C     C_R   0.187369 0.600302 0.399695 0.118958
C9    C     C_R   0.768964 0.500761 0.496288 -0.173512
C10   C     C_R   0.231193 0.499294 0.503918 -0.179769
C11   C     C_R   0.905728 0.398618 0.602041 0.059835
C12   C     C_R   0.094496 0.601093 0.397979 0.057755
C13   C     C_R   0.908385 0.600657 0.394955 0.087956
C14   C     C_R   0.091938 0.399067 0.605437 0.091761
C15   C     C_R   0.953506 0.499707 0.499315 0.006071
C16   C     C_R   0.046786 0.500008 0.500911 0.006375
C17   C     C_R   0.951914 0.296003 0.700303 -0.229100
C18   C     C_R   0.048272 0.701265 0.296688 -0.231092
C19   C     C_R   0.956635 0.700302 0.294430 -0.185001
C20   C     C_R   0.043579 0.295612 0.701058 -0.192484
C21   C     C_1   0.499851 0.065186 0.500199 -0.206097
C22   C     C_1   0.499848 0.934808 0.499794 -0.206882
N3    N     N_2   0.770970 0.706027 0.289767 -0.314007
H5    H     H_    0.724183 0.663144 0.211066 0.259813
C23   C     C_3   0.745427 0.843693 0.370514 -0.793305
H6    H     H_    0.697007 0.820953 0.471868 0.233192
H7    H     H_    0.714441 0.920337 0.279686 0.243224
H8    H     H_    0.805049 0.899690 0.421221 0.246927
N4    N     N_2   0.230260 0.298547 0.715580 -0.312221
H9    H     H_    0.287945 0.253304 0.667723 0.229700
C24   C     C_3   0.237467 0.345341 0.886222 -0.727186
H10   H     H_    0.279913 0.446634 0.896243 0.259243
H11   H     H_    0.267581 0.253813 0.959881 0.229467
H12   H     H_    0.171018 0.370803 0.939853 0.232148
N5    N     N_2   0.761988 0.304378 0.707727 -0.281153
H13   H     H_    0.782817 0.298919 0.828429 0.225292
C25   C     C_3   0.739510 0.160718 0.637567 -0.774448
H14   H     H_    0.800193 0.091652 0.622416 0.227404
H15   H     H_    0.707183 0.175470 0.515907 0.239104
H16   H     H_    0.692405 0.101091 0.721236 0.245917
N6    N     N_2   0.238255 0.701395 0.299420 -0.284095
H17   H     H_    0.219341 0.709447 0.177795 0.222081
C26   C     C_3   0.258001 0.843564 0.376188 -0.766092
H18   H     H_    0.196030 0.908520 0.396743 0.232253
H19   H     H_    0.303304 0.909306 0.294670 0.238953
H20   H     H_    0.291499 0.825716 0.496232 0.237526

loop_
_geom_bond_atom_site_label_1
_geom_bond_atom_site_label_2
_geom_bond_distance
_ccdc_geom_bond_type
C25   H14   1.109213 S    
C21   C22   1.164192 T    
C14   C20   1.401847 A    
O2    Zn2   1.953415 S    
C8    C12   1.398445 A    
C23   H6    1.110309 S    
C13   C19   1.401312 A    
O1    Zn1   1.953416 S    
N1    N2    1.192911 T    
C5    N3    1.428631 S    
O7    Zn1   2.020183 S    
C2    C22   1.364273 S    
O4    Zn2   1.951452 S    
C17   C20   1.380091 A    
C1    C21   1.364268 S    
C12   C18   1.402725 A    
C26   H18   1.110880 S    
C13   C15   1.413719 A    
O3    C2    1.260765 A    
C7    C9    1.404923 A    
C11   C17   1.402304 A    
C25   H16   1.110116 S    
C14   C16   1.414695 A    
C23   H7    1.110314 S    
H3    C19   1.082920 S    
N6    H17   1.030616 S    
O5    C3    1.268797 A    
C24   H11   1.110780 S    
C8    C10   1.403964 A    
O3    Zn1   1.951451 S    
C24   H12   1.110703 S    
C7    C11   1.399078 A    
C25   H15   1.111135 S    
H4    C20   1.082424 S    
C23   H8    1.109624 S    
C26   H19   1.110319 S    
N6    C26   1.446749 S    
C7    N5    1.428821 S    
N3    H5    1.028860 S    
C11   C15   1.416177 A    
N5    H13   1.030819 S    
O2    C2    1.261558 A    
C24   H10   1.110032 S    
H2    C18   1.080549 S    
C12   C16   1.416620 A    
C6    N4    1.430972 S    
N4    C24   1.450053 S    
N3    C23   1.444898 S    
C18   C19   1.379906 A    
C6    C10   1.408881 A    
O7    C4    1.273924 A    
O6    Zn2   2.027677 S    
C4    C9    1.437322 S    
O8    Zn2   2.020184 S    
O8    C3    1.273460 A    
Zn2   N1    1.972906 S    
C3    C10   1.435871 S    
C5    C9    1.408700 A    
C6    C14   1.396058 A    
N5    C25   1.445372 S    
O4    C1    1.260773 A    
N4    H9    1.031006 S    
C5    C13   1.393581 A    
Zn1   N2    1.972906 S    
C15   C16   1.404505 A    
O5    Zn1   2.027678 S    
O1    C1    1.261586 A    
O6    C4    1.269433 A    
C8    N6    1.428956 S    
C26   H20   1.111150 S    
H1    C17   1.080688 S    
