data_mof_unit_13432.cif
_audit_creation_date              2012-12-11T17:07:27-0500
_audit_creation_method            fapswitch 2.2
_symmetry_space_group_name_H-M    P1
_symmetry_Int_Tables_number       1
_space_group_crystal_system       triclinic
_cell_length_a                    6.960658
_cell_length_b                    14.52198
_cell_length_c                    16.083879
_cell_angle_alpha                 89.967984
_cell_angle_beta                  89.995613
_cell_angle_gamma                 90.02394
_cell_volume                      1625.79888173

loop_
_atom_site_label
_atom_site_type_symbol
_atom_type_description
_atom_site_fract_x
_atom_site_fract_y
_atom_site_fract_z
_atom_type_partial_charge
O1    O     O_R   0.505720 0.583900 0.413310 -0.537620
O2    O     O_R   0.175940 0.594920 0.586080 -0.543146
O3    O     O_R   0.005640 0.416100 0.586690 -0.534047
C1    C     C_R   0.344846 0.616993 0.614796 0.695648
O4    O     O_R   0.176000 0.594930 0.413930 -0.544494
O5    O     O_R   0.005700 0.416110 0.413310 -0.541525
C2    C     C_R   0.344811 0.616950 0.385187 0.689561
O6    O     O_R   0.505660 0.583890 0.586690 -0.539689
O7    O     O_3   0.339200 0.441330 0.500000 -0.364882
V1    V     V_3+5 0.064350 0.510880 0.500000 1.389601
O8    O     O_R   0.675980 0.405080 0.413920 -0.538664
C3    C     C_R   0.845033 0.383157 0.385074 0.687651
O9    O     O_R   0.675920 0.405070 0.586070 -0.536980
C4    C     C_R   0.844620 0.383178 0.614622 0.698744
V2    V     V_3+5 0.564340 0.489120 0.500000 1.405412
O10   O     O_3   0.839360 0.558670 0.500000 -0.374458
H1    H     H_    0.160764 0.100413 0.518361 0.109943
C5    C     C_R   0.686967 0.422262 0.777683 -0.145694
C6    C     C_R   0.613718 0.444223 0.855776 -0.124211
C7    C     C_R   0.628609 0.381687 0.920831 -0.123680
C8    C     C_R   0.716257 0.296610 0.908195 -0.132189
C9    C     C_R   0.789970 0.271782 0.829245 0.070789
C10   C     C_R   0.776051 0.336214 0.762652 0.070122
C11   C     C_R   0.880052 0.185278 0.816535 -0.187620
C12   C     C_R   0.957108 0.163522 0.737217 0.071739
C13   C     C_R   0.944238 0.228165 0.670750 0.069889
C14   C     C_R   0.854205 0.314696 0.683457 -0.188254
C15   C     C_R   0.043814 0.076972 0.721939 -0.144029
C16   C     C_R   0.117456 0.055061 0.643903 -0.129746
C17   C     C_R   0.104759 0.118039 0.579099 -0.122662
C18   C     C_R   0.018365 0.203394 0.591858 -0.131378
H2    H     H_    0.673543 0.473821 0.729627 0.110579
H3    H     H_    0.546262 0.510437 0.865962 0.115478
H4    H     H_    0.572928 0.399359 0.981613 0.109053
H5    H     H_    0.727006 0.251212 0.961314 0.104021
H6    H     H_    0.054480 0.024904 0.769711 0.103508
H7    H     H_    0.183379 0.988523 0.633545 0.115054
H8    H     H_    0.008739 0.249009 0.538854 0.106218
C19   C     C_R   0.727367 0.182891 0.241230 0.099904
C20   C     C_R   0.881953 0.182576 0.185390 -0.112379
C21   C     C_R   0.033621 0.244377 0.201152 -0.179642
H9    H     H_    0.156181 0.246622 0.159998 0.134466
C22   C     C_R   0.022458 0.308461 0.266748 -0.179747
H10   H     H_    0.137377 0.357869 0.274296 0.128191
C23   C     C_R   0.858929 0.312959 0.318368 -0.112522
C24   C     C_R   0.715879 0.246559 0.305920 0.103340
C25   C     C_3   0.505331 0.259151 0.293871 -0.408306
C26   C     C_3   0.517743 0.189459 0.223676 -0.399854
H11   H     H_    0.469724 0.329802 0.272226 0.165684
H12   H     H_    0.420795 0.234169 0.348021 0.174908
H13   H     H_    0.488666 0.219467 0.161331 0.169362
H14   H     H_    0.441037 0.124022 0.237366 0.167358
C27   C     C_R   0.509812 0.684150 0.740220 0.092917
C28   C     C_R   0.353337 0.682604 0.685367 -0.108461
C29   C     C_R   0.200678 0.743497 0.701795 -0.181715
H15   H     H_    0.077457 0.745160 0.661051 0.134214
C30   C     C_R   0.211463 0.807408 0.767481 -0.181748
H16   H     H_    0.095223 0.855805 0.775703 0.124363
C31   C     C_R   0.375926 0.812936 0.818379 -0.108611
C32   C     C_R   0.520981 0.747878 0.804959 0.101042
C33   C     C_3   0.730011 0.763260 0.791189 -0.407459
C34   C     C_3   0.718158 0.693856 0.720876 -0.404310
H17   H     H_    0.818106 0.739060 0.844537 0.176517
H18   H     H_    0.760969 0.834456 0.769549 0.167059
H19   H     H_    0.800244 0.629811 0.733638 0.168378
H20   H     H_    0.742561 0.724620 0.658443 0.170449
C35   C     C_R   0.507090 0.682641 0.258533 0.098696
C36   C     C_R   0.352824 0.682435 0.314530 -0.111294
C37   C     C_R   0.201339 0.744349 0.298931 -0.180273
H21   H     H_    0.078925 0.746597 0.340166 0.132464
C38   C     C_R   0.212573 0.808562 0.233404 -0.178723
H22   H     H_    0.097867 0.858073 0.225971 0.127170
C39   C     C_R   0.375939 0.813012 0.181693 -0.110796
C40   C     C_R   0.518641 0.746439 0.193918 0.101559
C41   C     C_3   0.729385 0.758695 0.205680 -0.408414
C42   C     C_3   0.716933 0.688786 0.275776 -0.398392
H23   H     H_    0.765714 0.829224 0.227384 0.166048
H24   H     H_    0.813301 0.733769 0.151376 0.175638
H25   H     H_    0.746851 0.718525 0.338114 0.169932
H26   H     H_    0.792902 0.623260 0.261849 0.167617
O11   O     O_R   0.229140 0.916090 0.913340 -0.542134
O12   O     O_R   0.558860 0.905090 0.086080 -0.539615
O13   O     O_R   0.729100 0.083920 0.086690 -0.539081
C43   C     C_R   0.389817 0.883208 0.114981 0.693424
O14   O     O_R   0.558860 0.905090 0.913930 -0.539032
O15   O     O_R   0.729100 0.083920 0.913310 -0.535332
C44   C     C_R   0.389768 0.883200 0.885048 0.698209
O16   O     O_R   0.229140 0.916080 0.086720 -0.539849
O17   O     O_3   0.395570 0.058660 0.000020 -0.367607
V3    V     V_3+5 0.670450 0.989140 0.000000 1.399485
O18   O     O_R   0.058810 0.094980 0.913910 -0.537715
C45   C     C_R   0.890029 0.116889 0.885411 0.696100
O19   O     O_R   0.058810 0.094980 0.086060 -0.543487
C46   C     C_R   0.890010 0.117063 0.114757 0.684240
V4    V     V_3+5 0.170450 0.010950 0.999970 1.400511
O20   O     O_3   0.895460 0.941370 0.999990 -0.370791

loop_
_geom_bond_atom_site_label_1
_geom_bond_atom_site_label_2
_ccdc_geom_bond_type
C31   C32   A    
C29   H15   S    
O19   C46   A    
C39   C40   A    
V4    O20   S    
C42   H25   S    
C1    O6    A    
C25   H11   S    
C27   C28   A    
C12   C15   A    
C13   C14   A    
C15   C16   A    
O5    C3    A    
C17   C18   A    
O11   V4    S    
C30   C31   A    
V2    O10   S    
C33   H17   S    
C5    C6    A    
C21   H9    S    
C37   C38   A    
C2    C36   S    
C28   C29   A    
O8    V2    S    
C26   H13   S    
C6    C7    A    
C36   C37   A    
O1    V2    S    
C10   C14   A    
C4    C14   S    
O7    V1    S    
C39   C43   S    
C7    H4    S    
O16   V4    S    
C13   C18   A    
O19   V4    S    
C8    C9    A    
H1    C17   S    
C21   C22   A    
C37   H21   S    
C11   C45   S    
C27   C32   A    
C25   H12   S    
O14   C44   A    
C40   C41   S    
C34   H20   S    
C35   C36   A    
C42   H26   S    
C11   C12   A    
O15   V3    S    
O18   C45   A    
O4    C2    A    
C12   C13   A    
C23   C24   A    
O13   C46   A    
C5    C10   A    
C32   C33   S    
O17   V4    S    
C33   H18   S    
O2    C1    A    
C41   C42   S    
C16   C17   A    
C41   H23   S    
C27   C34   S    
C25   C26   S    
O14   V3    S    
C35   C40   A    
C22   C23   A    
O11   C44   A    
O3    C4    A    
C19   C24   A    
C20   C21   A    
O6    V2    S    
O12   C43   A    
O9    V2    S    
C22   H10   S    
C6    H3    S    
C9    C11   A    
C5    H2    S    
O2    V1    S    
C19   C20   A    
C38   C39   A    
O13   V3    S    
C24   C25   S    
C34   H19   S    
C1    C28   S    
O1    C2    A    
C43   O16   A    
C20   C46   S    
C3    C23   S    
O5    V1    S    
O8    C3    A    
V3    O20   S    
C8    H5    S    
O12   V3    S    
C18   H8    S    
C29   C30   A    
O7    V2    S    
O4    V1    S    
O3    V1    S    
V1    O10   S    
C30   H16   S    
C33   C34   S    
C41   H24   S    
C31   C44   S    
O18   V4    S    
C26   H14   S    
C38   H22   S    
C7    C8    A    
C15   H6    S    
C16   H7    S    
C9    C10   A    
O15   C45   A    
C35   C42   S    
O17   V3    S    
O9    C4    A    
C19   C26   S    
