data_mof_unit_33783.cif
_audit_creation_date              2012-12-11T14:38:31-0500
_audit_creation_method            fapswitch 2.2
_symmetry_space_group_name_H-M    P1
_symmetry_Int_Tables_number       1
_space_group_crystal_system       triclinic
_cell_length_a                    19.551894
_cell_length_b                    11.122142
_cell_length_c                    19.650293
_cell_angle_alpha                 89.981826
_cell_angle_beta                  96.259632
_cell_angle_gamma                 89.913993
_cell_volume                      4247.65031594

loop_
_atom_site_label
_atom_site_type_symbol
_atom_type_description
_atom_site_fract_x
_atom_site_fract_y
_atom_site_fract_z
_atom_type_partial_charge
C1    C     C_R   0.707009 0.998197 0.366066 0.549301
C2    C     C_R   0.292973 0.998231 0.633885 0.548276
C3    C     C_R   0.207022 0.498152 0.366069 0.549865
C4    C     C_R   0.792973 0.498226 0.633886 0.549687
C5    C     C_3   0.689844 0.484563 0.455468 0.309007
C6    C     C_3   0.310050 0.484446 0.544500 0.308953
C7    C     C_3   0.189843 0.984555 0.455474 0.308586
C8    C     C_3   0.810035 0.984471 0.544506 0.308895
C9    C     C_3   0.834604 0.522463 0.518083 -0.255759
C10   C     C_3   0.165332 0.522730 0.481800 -0.255163
C11   C     C_3   0.334604 0.022454 0.518089 -0.255747
C12   C     C_3   0.665316 0.022766 0.481813 -0.255585
C13   C     C_3   0.781528 0.332056 0.551741 -0.214363
C14   C     C_3   0.218526 0.332037 0.448320 -0.214884
C15   C     C_3   0.281522 0.832051 0.551749 -0.214207
C16   C     C_3   0.718511 0.832082 0.448319 -0.214710
C17   C     C_3   0.778596 0.468147 0.560541 -0.019204
C18   C     C_3   0.221381 0.468110 0.439423 -0.019548
C19   C     C_3   0.278596 0.968146 0.560543 -0.018813
C20   C     C_3   0.721363 0.968159 0.439426 -0.019120
C21   C     C_3   0.752140 0.414640 0.430646 0.056598
C22   C     C_3   0.247808 0.414662 0.569347 0.057814
C23   C     C_3   0.252138 0.914625 0.430655 0.055269
C24   C     C_3   0.747798 0.914678 0.569350 0.056823
C25   C     C_3   0.815688 0.499495 0.440424 -0.220009
C26   C     C_3   0.184192 0.499713 0.559486 -0.220589
C27   C     C_3   0.315688 0.999475 0.440433 -0.219723
C28   C     C_3   0.684177 0.999715 0.559496 -0.219922
C29   C     C_3   0.771552 0.304090 0.476431 -0.277122
C30   C     C_3   0.228469 0.304151 0.523641 -0.276782
C31   C     C_3   0.271545 0.804075 0.476440 -0.277767
C32   C     C_3   0.728469 0.804174 0.523637 -0.277358
C33   C     C_3   0.528380 0.299837 0.954083 -0.230378
C34   C     C_3   0.555194 0.298737 0.029499 -0.240930
C35   C     C_3   0.949766 0.801898 0.969388 -0.239886
C36   C     C_3   0.973334 0.801251 0.045428 -0.232096
C37   C     C_3   0.436668 0.147231 0.972514 -0.244557
C38   C     C_3   0.577965 0.077464 0.026541 -0.250102
C39   C     C_3   0.917932 0.584208 0.974352 -0.253725
C40   C     C_3   0.062552 0.643560 0.027339 -0.246598
C41   C     C_3   0.554373 0.076158 0.948020 -0.116300
C42   C     C_3   0.459752 0.149032 0.049999 -0.104705
C43   C     C_3   0.038367 0.638245 0.950199 -0.102721
C44   C     C_3   0.943616 0.579639 0.052441 -0.114676
C45   C     C_R   0.534944 0.179443 0.337990 0.547400
C46   C     C_R   0.465049 0.179374 0.662002 0.538232
C47   C     C_R   0.034942 0.679441 0.337990 0.539690
C48   C     C_R   0.965049 0.679375 0.662003 0.547488
C49   C     C_3   0.498227 0.174435 0.931195 0.032985
C50   C     C_3   0.538476 0.176678 0.062593 0.025188
C51   C     C_3   0.961147 0.676427 0.937382 0.025412
C52   C     C_3   0.001568 0.674723 0.068777 0.034774
C53   C     C_1   0.761347 0.425773 0.903948 -0.000803
C54   C     C_1   0.236795 0.430299 0.094691 0.019507
C55   C     C_1   0.258295 0.915252 0.901352 0.020504
C56   C     C_1   0.739177 0.924559 0.096466 0.000498
C57   C     C_1   0.747565 0.403818 0.034018 -0.038770
C58   C     C_1   0.250534 0.409604 0.964519 -0.039214
C59   C     C_1   0.236675 0.865048 0.027295 -0.039071
C60   C     C_1   0.753245 0.901509 0.966540 -0.037868
C61   C     C_1   0.753204 0.413621 0.963383 -0.043227
C62   C     C_1   0.244433 0.419710 0.035041 -0.025397
C63   C     C_1   0.246799 0.890454 0.958734 -0.015235
C64   C     C_1   0.747568 0.911668 0.037144 -0.042186
C65   C     C_1   0.743201 0.390019 0.094150 0.014546
C66   C     C_1   0.255583 0.394092 0.904676 -0.001009
C67   C     C_1   0.229906 0.842902 0.086236 -0.012791
C68   C     C_1   0.757369 0.888099 0.906340 0.014951
C69   C     C_R   0.740062 0.366134 0.360065 0.550621
C70   C     C_R   0.259912 0.366109 0.639940 0.545768
C71   C     C_R   0.240058 0.866121 0.360071 0.555894
C72   C     C_R   0.759909 0.866114 0.639942 0.550426
C73   C     C_R   0.722566 0.953494 0.163649 0.554053
C74   C     C_R   0.277455 0.953149 0.836319 0.561797
C75   C     C_R   0.221966 0.454962 0.162968 0.560157
C76   C     C_R   0.777539 0.453700 0.836490 0.553985
C77   C     C_R   0.561519 0.182411 0.136898 0.540711
C78   C     C_R   0.469718 0.179287 0.858248 0.544077
C79   C     C_R   0.030381 0.679430 0.141677 0.538533
C80   C     C_R   0.938263 0.682445 0.863036 0.542267
C81   C     C_R   0.735947 0.357583 0.163429 0.556450
C82   C     C_R   0.263712 0.358677 0.836076 0.549150
C83   C     C_R   0.223060 0.812157 0.156077 0.549149
C84   C     C_R   0.764245 0.856808 0.836823 0.556402
C85   C     C_1   0.487593 0.167575 0.595133 0.004606
C86   C     C_1   0.512358 0.167692 0.404842 0.003080
C87   C     C_1   0.987585 0.667577 0.595130 0.002214
C88   C     C_1   0.012349 0.667688 0.404838 0.004426
C89   C     C_1   0.503032 0.161294 0.464472 -0.039719
C90   C     C_1   0.496892 0.161232 0.535495 -0.039373
C91   C     C_1   0.003021 0.661290 0.464468 -0.039258
C92   C     C_1   0.996881 0.661232 0.535491 -0.039861
C93   C     C_3   0.703889 0.503629 0.532881 -0.173345
C94   C     C_3   0.296049 0.503378 0.467072 -0.173319
C95   C     C_3   0.203890 0.003635 0.532887 -0.173242
C96   C     C_3   0.796030 0.003418 0.467078 -0.173256
Cr1   Cr    Cr6+3 0.765780 0.160710 0.267420 1.024812
Cr2   Cr    Cr6+3 0.234220 0.160710 0.732580 1.035680
Cr3   Cr    Cr6+3 0.265780 0.660710 0.267420 1.033180
Cr4   Cr    Cr6+3 0.734220 0.660710 0.732580 1.024048
Cr5   Cr    Cr6+3 0.612200 0.009560 0.248850 1.033661
Cr6   Cr    Cr6+3 0.387800 0.009560 0.751150 1.033760
Cr7   Cr    Cr6+3 0.112200 0.509560 0.248850 1.029952
Cr8   Cr    Cr6+3 0.887800 0.509560 0.751150 1.031843
Cr9   Cr    Cr6+3 0.616030 0.323720 0.248510 1.067281
Cr10  Cr    Cr6+3 0.383970 0.323720 0.751490 1.061122
Cr11  Cr    Cr6+3 0.116030 0.823720 0.248510 1.061146
Cr12  Cr    Cr6+3 0.883970 0.823720 0.751490 1.065864
H1    H     H_    0.690066 0.593403 0.547230 0.155017
H2    H     H_    0.309818 0.593089 0.452626 0.154989
H3    H     H_    0.190071 0.093414 0.547229 0.154907
H4    H     H_    0.809805 0.093123 0.452633 0.155100
H5    H     H_    0.822678 0.272739 0.463821 0.165049
H6    H     H_    0.177329 0.273104 0.536242 0.164969
H7    H     H_    0.322668 0.772711 0.463829 0.165005
H8    H     H_    0.677339 0.773091 0.536243 0.164938
H9    H     H_    0.884504 0.476800 0.534037 0.132351
H10   H     H_    0.115450 0.477301 0.465836 0.132538
H11   H     H_    0.384504 0.976791 0.534045 0.132553
H12   H     H_    0.615432 0.977351 0.465843 0.132432
H13   H     H_    0.860546 0.458264 0.418827 0.121545
H14   H     H_    0.139344 0.458620 0.581063 0.120790
H15   H     H_    0.360546 0.958239 0.418839 0.122104
H16   H     H_    0.639331 0.958600 0.581066 0.121275
H17   H     H_    0.487919 0.370711 0.946334 0.153758
H18   H     H_    0.611695 0.313416 0.035301 0.119061
H19   H     H_    0.894452 0.826937 0.961026 0.121020
H20   H     H_    0.013941 0.871293 0.055013 0.153094
H21   H     H_    0.570408 0.326080 0.923158 0.146805
H22   H     H_    0.531732 0.376212 0.054318 0.164796
H23   H     H_    0.978965 0.873382 0.945416 0.165449
H24   H     H_    0.930023 0.828046 0.074574 0.147636
H25   H     H_    0.394487 0.213398 0.958523 0.129061
H26   H     H_    0.634321 0.093680 0.036985 0.116559
H27   H     H_    0.862533 0.609609 0.965457 0.116443
H28   H     H_    0.104143 0.711396 0.038571 0.117158
H29   H     H_    0.532268 0.986326 0.933823 0.123000
H30   H     H_    0.450265 0.058441 0.071156 0.124144
H31   H     H_    0.043157 0.543606 0.932854 0.121867
H32   H     H_    0.964838 0.488517 0.065190 0.123036
H33   H     H_    0.567940 0.987703 0.048400 0.136391
H34   H     H_    0.414924 0.057038 0.958230 0.120380
H35   H     H_    0.085179 0.554922 0.043918 0.120105
H36   H     H_    0.922616 0.493049 0.952001 0.134635
H37   H     H_    0.668453 0.447855 0.560901 0.097602
H38   H     H_    0.331533 0.447389 0.439141 0.098641
H39   H     H_    0.168452 0.947872 0.560910 0.098450
H40   H     H_    0.831514 0.947434 0.439144 0.097651
H41   H     H_    0.346271 0.117823 0.528465 0.101296
H42   H     H_    0.653692 0.118208 0.471372 0.100926
H43   H     H_    0.846270 0.617829 0.528463 0.100903
H44   H     H_    0.153698 0.618162 0.471342 0.101396
H45   H     H_    0.305381 0.085877 0.412901 0.178117
H46   H     H_    0.694377 0.086088 0.587003 0.177620
H47   H     H_    0.805379 0.585897 0.412894 0.177663
H48   H     H_    0.194399 0.586097 0.586979 0.176892
H49   H     H_    0.833018 0.297664 0.572776 0.235505
H50   H     H_    0.167061 0.297823 0.427300 0.235640
H51   H     H_    0.333009 0.797646 0.572786 0.235341
H52   H     H_    0.667046 0.797861 0.427303 0.235790
H53   H     H_    0.741838 0.286134 0.578931 0.172907
H54   H     H_    0.258253 0.285916 0.421194 0.172894
H55   H     H_    0.241829 0.786140 0.578940 0.172749
H56   H     H_    0.758235 0.785975 0.421182 0.172521
H57   H     H_    0.732794 0.234459 0.466208 0.118406
H58   H     H_    0.267210 0.234317 0.533975 0.118293
H59   H     H_    0.232785 0.734448 0.466219 0.118129
H60   H     H_    0.767227 0.734367 0.533958 0.118172
O1    O     O_R   0.783100 0.287550 0.345460 -0.546784
O2    O     O_R   0.216900 0.287550 0.654540 -0.548810
O3    O     O_R   0.283100 0.787550 0.345460 -0.545237
O4    O     O_R   0.716900 0.787550 0.654540 -0.546765
O5    O     O_R   0.554710 0.081900 0.170950 -0.504332
O6    O     O_R   0.445290 0.081900 0.829050 -0.506198
O7    O     O_R   0.054710 0.581900 0.170950 -0.508309
O8    O     O_R   0.945290 0.581900 0.829050 -0.504494
O9    O     O_R   0.545650 0.284910 0.163740 -0.501125
O10   O     O_R   0.454350 0.284910 0.836260 -0.523707
O11   O     O_R   0.045650 0.784910 0.163740 -0.530588
O12   O     O_R   0.954350 0.784910 0.836260 -0.502362
O13   O     O_R   0.677950 0.374280 0.185410 -0.510217
O14   O     O_R   0.322050 0.374280 0.814590 -0.493346
O15   O     O_R   0.177950 0.874280 0.185410 -0.483194
O16   O     O_R   0.822050 0.874280 0.814590 -0.510587
O17   O     O_3   0.664670 0.164660 0.254930 -0.309155
O18   O     O_3   0.335330 0.164660 0.745070 -0.289879
O19   O     O_3   0.164670 0.664660 0.254930 -0.310610
O20   O     O_3   0.835330 0.664660 0.745070 -0.309150
O21   O     O_R   0.760020 0.037400 0.337700 -0.506609
O22   O     O_R   0.239980 0.037400 0.662300 -0.507031
O23   O     O_R   0.260020 0.537400 0.337700 -0.505797
O24   O     O_R   0.739980 0.537400 0.662300 -0.506367
O25   O     O_R   0.666600 0.921990 0.332020 -0.499518
O26   O     O_R   0.333400 0.921990 0.667980 -0.501857
O27   O     O_R   0.166600 0.421990 0.332020 -0.498845
O28   O     O_R   0.833400 0.421990 0.667980 -0.499924
O29   O     O_R   0.557260 0.082670 0.312540 -0.516306
O30   O     O_R   0.442740 0.082670 0.687460 -0.520491
O31   O     O_R   0.057260 0.582670 0.312540 -0.518443
O32   O     O_R   0.942740 0.582670 0.687460 -0.516960
O33   O     O_R   0.548410 0.285740 0.316480 -0.468492
O34   O     O_R   0.451590 0.285740 0.683520 -0.475625
O35   O     O_R   0.048410 0.785740 0.316480 -0.475062
O36   O     O_R   0.951590 0.785740 0.683520 -0.468255
O37   O     O_R   0.680500 0.375040 0.327000 -0.468928
O38   O     O_R   0.319500 0.375040 0.673000 -0.470483
O39   O     O_R   0.180500 0.875040 0.327000 -0.465686
O40   O     O_R   0.819500 0.875040 0.673000 -0.468789
O41   O     O_R   0.780350 0.286720 0.192720 -0.503869
O42   O     O_R   0.219650 0.286720 0.807280 -0.505762
O43   O     O_R   0.280350 0.786720 0.192720 -0.495735
O44   O     O_R   0.719650 0.786720 0.807280 -0.503876
O45   O     O_R   0.757470 0.036630 0.196110 -0.493534
O46   O     O_R   0.242530 0.036630 0.803890 -0.483629
O47   O     O_R   0.257470 0.536630 0.196110 -0.497042
O48   O     O_R   0.742530 0.536630 0.803890 -0.493646
O49   O     O_R   0.663840 0.921160 0.179280 -0.505969
O50   O     O_R   0.336160 0.921160 0.820720 -0.505953
O51   O     O_R   0.163840 0.421160 0.179280 -0.503257
O52   O     O_R   0.836160 0.421160 0.820720 -0.506551
C97   C     C_1   0.417484 0.234874 0.084826 0.223618
N1    N     N_1   0.384719 0.302025 0.112476 -0.279024
C98   C     C_1   0.613153 0.094911 0.908000 0.182171
N2    N     N_1   0.658860 0.110912 0.876345 -0.300278
C99   C     C_1   0.886278 0.599577 0.094228 0.182793
N3    N     N_1   0.841639 0.616243 0.127202 -0.299135
C100  C     C_1   0.083634 0.710783 0.910905 0.219900
N4    N     N_1   0.118557 0.767135 0.879338 -0.283760
C101  C     C_1   0.621002 0.432224 0.443342 0.284826
N5    N     N_1   0.564775 0.399580 0.436829 -0.279887
C102  C     C_1   0.379009 0.432244 0.556729 0.285713
N6    N     N_1   0.435334 0.399820 0.563299 -0.279988
C103  C     C_1   0.121000 0.932215 0.443352 0.284898
N7    N     N_1   0.064774 0.899569 0.436839 -0.280127
C104  C     C_1   0.878994 0.932261 0.556728 0.285029
N8    N     N_1   0.935316 0.899822 0.563293 -0.279839
F1    F     F_    0.684374 0.593288 0.422148 -0.690402
F2    F     F_    0.315306 0.593220 0.577690 -0.691938
F3    F     F_    0.184372 0.093276 0.422150 -0.690339
F4    F     F_    0.815292 0.093234 0.577707 -0.690921

loop_
_geom_bond_atom_site_label_1
_geom_bond_atom_site_label_2
_ccdc_geom_bond_type
C27   H45   S    
C81   O41   A    
C58   C62   S    
C7    C103  S    
C94   H38   S    
C8    C24   S    
C35   H23   S    
C16   H52   S    
C9    H9    S    
C14   C18   S    
Cr5   O5    S    
C35   C36   S    
C8    C96   S    
C81   O13   A    
Cr12  O40   S    
C11   H11   S    
Cr4   O24   S    
Cr3   O19   S    
C82   O14   A    
C9    C25   S    
C72   O40   A    
Cr3   O43   S    
C16   H56   S    
C67   C83   S    
C40   H28   S    
C11   C19   S    
Cr6   O18   S    
C5    F1    S    
C12   C20   S    
C48   O32   A    
C83   O15   A    
C80   O12   A    
C13   C29   S    
C16   C20   S    
Cr4   O20   S    
C10   C18   S    
C75   O51   A    
C36   H24   S    
C65   C81   S    
C30   H6    S    
Cr5   O29   S    
C46   O30   A    
C25   H47   S    
C45   O29   A    
C6    C22   S    
Cr11  O19   S    
Cr12  O36   S    
Cr1   O1    S    
C49   C78   S    
Cr12  O12   S    
C3    C18   S    
C29   H57   S    
C37   C42   S    
C4    O24   A    
C51   C80   S    
Cr10  O14   S    
C21   C25   S    
C10   H44   S    
C39   C51   S    
C15   C19   S    
C55   C74   S    
C26   H48   S    
C11   H41   S    
C40   C43   S    
Cr8   O52   S    
C28   H16   S    
C98   N2    T    
Cr5   O25   S    
C6    C94   S    
C55   C63   T    
C26   H14   S    
C104  N8    T    
C56   C64   T    
C93   H37   S    
C23   C27   S    
C42   C97   S    
C24   C28   S    
C103  N7    T    
Cr11  O39   S    
C36   C52   S    
Cr2   O22   S    
C46   C85   S    
C59   C67   T    
C44   C52   S    
C71   O39   A    
Cr2   O46   S    
C43   C51   S    
C44   H32   S    
C12   H12   S    
C87   C92   T    
C74   O46   A    
C28   H46   S    
C39   H36   S    
Cr8   O32   S    
C47   O31   A    
C36   H20   S    
Cr7   O27   S    
C14   C30   S    
Cr5   O17   S    
Cr6   O26   S    
C31   H7    S    
C22   C70   S    
C43   C100  S    
C99   N3    T    
C13   H49   S    
C70   O38   A    
Cr8   O20   S    
C34   C50   S    
C37   H34   S    
Cr12  O16   S    
C73   O49   A    
C68   C84   S    
C12   H42   S    
C84   O16   A    
C95   H39   S    
C15   H55   S    
Cr10  O18   S    
C38   C41   S    
Cr8   O8    S    
Cr9   O9    S    
C91   C92   S    
C27   H15   S    
C69   O1    A    
C54   C62   T    
C40   C52   S    
C21   C29   S    
C15   C31   S    
Cr4   O44   S    
C3    O27   A    
C96   H40   S    
C21   C69   S    
C2    O26   A    
C23   C31   S    
C14   H54   S    
Cr1   O17   S    
C24   C32   S    
Cr11  O35   S    
C101  N5    T    
C10   H10   S    
Cr7   O7    S    
C3    O23   A    
C66   C82   S    
C97   N1    T    
Cr2   O42   S    
C76   O48   A    
Cr9   O33   S    
C100  N4    T    
C88   C91   T    
C11   C27   S    
C34   H18   S    
C74   O50   A    
C33   H17   S    
C33   C34   S    
Cr8   O28   S    
C48   C87   S    
C47   O35   A    
Cr7   O31   S    
C32   H8    S    
C13   H53   S    
C39   H27   S    
C30   H58   S    
C37   C49   S    
C41   C98   S    
C8    F4    S    
Cr1   O41   S    
C42   C50   S    
C4    C17   S    
C9    C17   S    
C31   H59   S    
C7    F3    S    
C25   H13   S    
C32   H60   S    
C35   C51   S    
C18   C94   S    
C38   H33   S    
C71   O3    A    
C59   C63   S    
C53   C76   S    
C17   C93   S    
C39   C44   S    
C53   C61   T    
C52   C79   S    
C50   C77   S    
C72   O4    A    
C35   H19   S    
C19   C95   S    
Cr4   O4    S    
C24   C72   S    
C58   C66   T    
C12   C28   S    
C44   C99   S    
C33   H21   S    
C4    O28   A    
C29   H5    S    
Cr4   O48   S    
C1    C20   S    
C77   O5    A    
C56   C73   S    
C22   C30   S    
Cr11  O11   S    
C2    C19   S    
C78   O10   A    
C41   H29   S    
Cr12  O20   S    
C2    O22   A    
C57   C65   T    
C14   H50   S    
C86   C89   T    
Cr7   O51   S    
C15   H51   S    
Cr10  O38   S    
C5    C93   S    
C85   C90   T    
C84   O44   A    
C57   C61   S    
Cr6   O6    S    
C38   C50   S    
Cr9   O37   S    
C43   H31   S    
C6    F2    S    
C41   C49   S    
C7    C95   S    
C48   O36   A    
C69   O37   A    
C80   O8    A    
C13   C17   S    
C9    H43   S    
C60   C64   S    
C60   C68   T    
C47   C88   S    
Cr6   O30   S    
C45   C86   S    
C70   O2    A    
Cr2   O18   S    
C95   H3    S    
Cr3   O23   S    
C79   O7    A    
C10   C26   S    
C7    C23   S    
Cr3   O47   S    
C76   O52   A    
C16   C32   S    
Cr1   O21   S    
C96   H4    S    
C94   H2    S    
C5    C101  S    
C38   H26   S    
C20   C96   S    
C37   H25   S    
C77   O9    A    
Cr9   O17   S    
C75   O47   A    
Cr6   O50   S    
C54   C75   S    
Cr2   O2    S    
C8    C104  S    
Cr5   O49   S    
C46   O34   A    
C79   O11   A    
C5    C21   S    
Cr10  O34   S    
C34   H22   S    
C23   C71   S    
C45   O33   A    
C22   C26   S    
C40   H35   S    
Cr11  O15   S    
C102  N6    T    
C78   O6    A    
C1    O25   A    
Cr1   O45   S    
C42   H30   S    
C73   O45   A    
Cr9   O13   S    
C89   C90   S    
C6    C102  S    
C33   C49   S    
Cr10  O10   S    
Cr7   O19   S    
C83   O43   A    
Cr3   O3    S    
C93   H1    S    
C82   O42   A    
C1    O21   A    
