data_mof_unit_20885.cif
_audit_creation_date              2012-12-10T20:32:48-0500
_audit_creation_method            fapswitch 2.2
_symmetry_space_group_name_H-M    P1
_symmetry_Int_Tables_number       1
_space_group_crystal_system       triclinic
_cell_length_a                    11.523612
_cell_length_b                    10.678863
_cell_length_c                    9.90808
_cell_angle_alpha                 90.251455
_cell_angle_beta                  90.901773
_cell_angle_gamma                 90.728646
_cell_volume                      1219.01671236

loop_
_atom_site_label
_atom_site_type_symbol
_atom_type_description
_atom_site_fract_x
_atom_site_fract_y
_atom_site_fract_z
_atom_type_partial_charge
C1    C     C_R   0.502166 0.260144 0.499950 0.872873
C2    C     C_R   0.582287 0.563120 0.075617 -0.120900
C3    C     C_R   0.584633 0.562548 0.932382 0.197772
C4    C     C_R   0.282021 0.499664 0.499178 0.902711
C5    C     C_R   0.421394 0.428185 0.926908 0.135721
C6    C     C_3   0.292192 0.439816 0.919911 -0.125718
C7    C     C_3   0.292770 0.439692 0.073716 -0.499936
C8    C     C_R   0.503142 0.739820 0.500394 0.867906
C9    C     C_R   0.717988 0.499912 0.500873 0.898450
C10   C     C_1   0.161534 0.498998 0.497997 -0.203507
C11   C     C_1   0.059318 0.498638 0.499208 -0.007503
C12   C     C_R   0.516583 0.128601 0.501690 -0.108340
C13   C     C_1   0.940693 0.498696 0.501491 -0.009606
C14   C     C_1   0.838476 0.499169 0.502328 -0.209734
C15   C     C_R   0.499459 0.064315 0.621723 0.165864
C16   C     C_3   0.232074 0.324709 0.854829 -0.376691
C17   C     C_3   0.099935 0.339306 0.852287 -0.353314
C18   C     C_3   0.040262 0.231295 0.776246 -0.862382
C19   C     C_2   0.434745 0.873406 0.852547 0.973728
C20   C     C_3   0.680287 0.639319 0.869216 -0.368669
C21   C     C_3   0.796617 0.569722 0.865837 -0.342390
C22   C     C_3   0.860918 0.569966 0.002017 -0.878177
C23   C     C_R   0.553187 0.064900 0.386304 -0.216884
C24   C     C_R   0.554100 0.935362 0.386824 -0.198840
C25   C     C_R   0.518552 0.871578 0.502820 -0.132549
C26   C     C_R   0.501212 0.936453 0.622824 0.079032
C27   C     C_3   0.401417 0.928136 0.717736 -0.215435
C28   C     C_3   0.399790 0.070382 0.716363 -0.568743
C29   C     C_R   0.421467 0.428475 0.069283 0.179125
H1    H     H_    0.574640 0.114127 0.294442 0.178556
H2    H     H_    0.069200 0.228790 0.669840 0.258802
H3    H     H_    0.060708 0.140755 0.825418 0.264044
H4    H     H_    0.944803 0.244316 0.776655 0.255180
H5    H     H_    0.067590 0.341695 0.957333 0.229782
H6    H     H_    0.076589 0.428572 0.801942 0.231133
H7    H     H_    0.262644 0.314680 0.749773 0.227461
H8    H     H_    0.255456 0.237952 0.910225 0.202523
H9    H     H_    0.542646 0.877352 0.014830 0.322151
H10   H     H_    0.865887 0.665973 0.045452 0.262007
H11   H     H_    0.817358 0.505901 0.073678 0.265735
H12   H     H_    0.265295 0.530452 0.117519 0.218075
H13   H     H_    0.950727 0.536557 0.988133 0.244900
H14   H     H_    0.783016 0.471248 0.831819 0.244383
H15   H     H_    0.853331 0.616949 0.791371 0.217400
H16   H     H_    0.655780 0.668787 0.766966 0.230828
H17   H     H_    0.692273 0.729053 0.925273 0.186595
H18   H     H_    0.251477 0.355903 0.119942 0.197194
H19   H     H_    0.575886 0.885862 0.295137 0.166231
H20   H     H_    0.322567 0.884062 0.670447 0.142122
H21   H     H_    0.320195 0.108082 0.667338 0.184485
H22   H     H_    0.425010 0.116375 0.813579 0.226940
H23   H     H_    0.645453 0.617569 0.133588 0.152756
H24   H     H_    0.264960 0.530582 0.875427 0.213771
N1    N     N_R   0.499240 0.499140 0.142800 -0.117206
N2    N     N_R   0.499240 0.499180 0.857150 -0.124885
O1    O     O_R   0.500010 0.316790 0.614690 -0.616909
O2    O     O_R   0.530960 0.920759 0.924916 -0.825848
O3    O     O_R   0.500000 0.316760 0.385350 -0.617482
O4    O     O_R   0.334450 0.500030 0.614670 -0.620030
O5    O     O_R   0.334440 0.500000 0.385330 -0.607039
O6    O     O_R   0.500000 0.683240 0.614650 -0.632659
O7    O     O_R   0.499990 0.683210 0.385310 -0.613517
O8    O     O_R   0.665560 0.500000 0.614670 -0.638431
O9    O     O_R   0.665550 0.499970 0.385330 -0.614276
O10   O     O_2   0.376745 0.787513 0.898610 -0.657663
Zn1   Zn    Zn3+2 0.500010 0.500020 0.653130 0.940931
Zn2   Zn    Zn3+2 0.499990 0.499980 0.346870 0.948096

loop_
_geom_bond_atom_site_label_1
_geom_bond_atom_site_label_2
_ccdc_geom_bond_type
C17   H5    S    
C9    C14   S    
O9    Zn2   S    
C6    C7    S    
C7    C29   S    
C21   H15   S    
C19   C27   S    
C16   H8    S    
C20   H16   S    
C12   C15   A    
C8    O6    A    
C23   C24   A    
C29   N1    A    
C22   H11   S    
C4    O5    A    
C2    C3    A    
C15   C28   S    
O8    Zn1   S    
C3    C20   S    
C25   C26   A    
C9    O8    A    
C13   C14   T    
C16   H7    S    
H9    O2    S    
C8    C25   S    
C11   C13   S    
C12   C23   A    
C26   C27   S    
C22   H13   S    
C1    C12   S    
C2    H23   S    
O7    Zn2   S    
O1    Zn1   S    
C22   H10   S    
C4    O4    A    
C21   C22   S    
C28   H22   S    
C1    O1    A    
C19   O10   D    
C5    C29   A    
C7    H12   S    
O4    Zn1   S    
C5    C6    S    
C18   H4    S    
C20   H17   S    
C18   H3    S    
C10   C11   T    
C6    H24   S    
C4    C10   S    
C9    O9    A    
C23   H1    S    
C1    O3    A    
O3    Zn2   S    
N2    Zn1   S    
C24   C25   A    
C17   C18   S    
C2    N1    A    
C7    H18   S    
C27   C28   S    
C28   H21   S    
C6    C16   S    
C15   C26   A    
N1    Zn2   S    
C17   H6    S    
C20   C21   S    
C21   H14   S    
C3    N2    A    
O6    Zn1   S    
C5    N2    A    
C19   O2    S    
C27   H20   S    
O5    Zn2   S    
C8    O7    A    
C16   C17   S    
C18   H2    S    
C24   H19   S    
