data_mof_unit_54888.cif
_audit_creation_date              2013-03-05T16:01:05-0500
_audit_creation_method            fapswitch 2.2
_symmetry_space_group_name_H-M    P1
_symmetry_Int_Tables_number       1
_space_group_crystal_system       triclinic
_cell_length_a                    8.349893
_cell_length_b                    12.929211
_cell_length_c                    18.700525
_cell_angle_alpha                 100.565726
_cell_angle_beta                  91.858787
_cell_angle_gamma                 97.970982
_cell_volume                      1961.98372638

loop_
_atom_site_label
_atom_site_type_symbol
_atom_site_description
_atom_site_fract_x
_atom_site_fract_y
_atom_site_fract_z
_atom_type_partial_charge
P1    P     P_3+3 0.041040 0.394770 0.336330 0.532710
O1    O     O_2   0.873090 0.425890 0.325140 -0.358373
O2    O     O_3   0.122420 0.434370 0.414380 -0.336865
O3    O     O_3   0.659500 0.627100 0.368810 -0.331309
O4    O     O_2   0.786664 0.549110 0.244797 -0.396144
O5    O     O_3   0.999691 0.257702 0.319693 -0.562575
O6    O     O_3   0.661535 0.723194 0.243024 -0.494500
H1    H     H_    0.770485 0.834226 0.330682 0.082614
C1    C     C_3   0.588521 0.900805 0.274225 0.014442
H2    H     H_    0.611915 0.972451 0.317794 0.073130
P2    P     P_3+3 0.672880 0.754030 0.556100 0.519243
P3    P     P_3+3 0.132732 0.823319 0.409543 0.550353
O7    O     O_2   0.848200 0.768190 0.534530 -0.300895
O8    O     O_3   0.081160 0.685950 0.404810 -0.340185
O9    O     O_2   0.012040 0.879081 0.458222 -0.348691
O10   O     O_3   0.684266 0.810067 0.649219 -0.599810
O11   O     O_3   0.090553 0.854750 0.324311 -0.553695
C2    C     C_3   0.089184 0.767723 0.266081 0.644056
H3    H     H_    0.980348 0.708705 0.267912 0.148675
C3    C     C_3   0.083137 0.807832 0.193803 0.057571
H4    H     H_    0.011649 0.875572 0.198197 0.161620
C4    C     C_3   0.253134 0.790051 0.628526 0.915303
H5    H     H_    0.378218 0.769324 0.623375 -0.025902
C5    C     C_3   0.264114 0.911059 0.650108 -0.798401
H6    H     H_    0.320727 0.937527 0.705908 0.255345
H7    H     H_    0.336756 0.951701 0.611185 0.186266
H8    H     H_    0.139618 0.934240 0.650503 0.266277
Ba1   Ba    Ba6+2 0.852780 0.548340 0.465070 1.679904
C6    C     C_3   0.934226 0.223445 0.380239 0.276402
H9    H     H_    0.815827 0.250541 0.388693 0.044675
H10   H     H_    0.017979 0.250988 0.429826 0.116581
C7    C     C_3   0.912075 0.104003 0.362207 -0.004143
H11   H     H_    0.835214 0.077031 0.310643 0.147161
H12   H     H_    0.857479 0.067401 0.406671 0.073743
C8    C     C_3   0.728717 0.742054 0.693454 0.094164
H13   H     H_    0.848944 0.720135 0.679113 0.154229
H14   H     H_    0.632694 0.672215 0.689076 0.116366
C9    C     C_3   0.742572 0.803345 0.772126 0.574200
H15   H     H_    0.619090 0.816494 0.788999 0.107293
P4    P     P_3+3 0.148670 0.605320 0.663680 0.527110
O12   O     O_2   0.316610 0.574140 0.674900 -0.403800
O13   O     O_3   0.067290 0.565720 0.585630 -0.308179
O14   O     O_3   0.530210 0.372990 0.631200 -0.271125
O15   O     O_3   0.178056 0.744960 0.684243 -0.599123
P5    P     P_3+3 0.068949 0.178503 0.600852 0.517065
O16   O     O_3   0.611340 0.366290 0.463630 -0.283890
O17   O     O_3   0.108550 0.314140 0.595200 -0.338480
O18   O     O_2   0.194978 0.123667 0.554925 -0.382182
O19   O     O_3   0.122612 0.169295 0.690662 -0.485398
Ba2   Ba    Ba6+2 0.337060 0.451750 0.534940 1.691903
P6    P     P_3+3 0.639079 0.600724 0.273243 0.534431
C10   C     C_3   0.649431 0.806990 0.301724 0.301086
H16   H     H_    0.561790 0.783328 0.341037 0.080159
H17   H     H_    0.455954 0.885505 0.263061 0.189882
O20   O     O_3   0.578370 0.633800 0.536380 -0.325016
C11   C     C_3   0.444987 0.225243 0.309794 0.252029
H18   H     H_    0.332602 0.250776 0.332614 0.168526
H19   H     H_    0.532443 0.294447 0.301695 0.127781
C12   C     C_3   0.399515 0.152897 0.235704 0.096036
H20   H     H_    0.335680 0.073859 0.242051 0.154615
H21   H     H_    0.511815 0.138049 0.207933 0.207459
P7    P     P_3+3 0.523374 0.228920 0.446887 0.492208
O21   O     O_2   0.341510 0.231850 0.465510 -0.325940
O22   O     O_3   0.520247 0.168523 0.354605 -0.640158
H22   H     H_    0.208223 0.841330 0.180632 0.129713
C13   C     C_3   0.056366 0.248414 0.738301 0.305110
H23   H     H_    0.117354 0.329178 0.733883 0.094058
H24   H     H_    0.925106 0.244675 0.724141 -0.115280
C14   C     C_3   0.074150 0.233843 0.817921 0.656401
H25   H     H_    0.972031 0.263803 0.848078 -0.022873
P8    P     P_3+3 0.553006 0.391908 0.725832 0.551755
C15   C     C_3   0.558376 0.188016 0.701743 0.279776
H26   H     H_    0.666236 0.218457 0.674437 0.006510
O23   O     O_2   0.420535 0.456697 0.756495 -0.380861
O24   O     O_3   0.502952 0.268457 0.751844 -0.450534
H27   H     H_    0.458894 0.153163 0.659102 0.117413
H28   H     H_    0.739791 0.115863 0.757348 0.130653
C16   C     C_3   0.606812 0.099872 0.740103 0.082721
H29   H     H_    0.585259 0.021483 0.700894 0.083826
C17   C     C_R   0.999008 0.443715 0.046179 0.006397
C18   C     C_R   0.896709 0.395716 0.093413 -0.023695
C19   C     C_R   0.733934 0.356397 0.069512 0.443930
C20   C     C_R   0.675044 0.364646 0.000334 -0.201351
C21   C     C_R   0.775949 0.411459 0.953191 0.038793
C22   C     C_R   0.938097 0.451719 0.975824 0.054219
C23   C     C_R   0.716028 0.417513 0.883603 -0.119727
C24   C     C_R   0.816611 0.459685 0.833569 -0.097290
C25   C     C_R   0.979004 0.503683 0.856356 0.017235
C26   C     C_R   0.038573 0.500059 0.928156 0.064617
C27   C     C_R   0.758713 0.459069 0.761616 0.093972
C28   C     C_R   0.861364 0.503364 0.713315 0.121642
C29   C     C_R   0.023629 0.547583 0.734061 0.141725
C30   C     C_R   0.081713 0.551127 0.807888 -0.064099
C31   C     C_R   0.162023 0.482805 0.068874 0.063936
C32   C     C_R   0.222530 0.476759 0.139958 0.076627
C33   C     C_R   0.117003 0.434897 0.189665 -0.076072
C34   C     C_R   0.957961 0.389516 0.163556 -0.037312
H30   H     H_    0.549416 0.334079 0.983358 0.224857
H31   H     H_    0.589565 0.388943 0.869453 0.225621
H32   H     H_    0.880427 0.349263 0.197874 0.191659
C35   C     C_R   0.237990 0.601270 0.835675 0.005937
C36   C     C_R   0.299558 0.592453 0.905157 0.083644
C37   C     C_R   0.200044 0.541657 0.951634 0.059971
C38   C     C_R   0.262889 0.531473 0.021218 -0.060825
C39   C     C_R   0.461836 0.631751 0.927938 -0.322433
C40   C     C_R   0.527058 0.620118 0.996076 0.544156
C41   C     C_R   0.426724 0.570108 0.043062 -0.015945
C42   C     C_R   0.387026 0.516242 0.161755 -0.038808
C43   C     C_R   0.487715 0.559133 0.111843 -0.056720
C44   C     C_R   0.445093 0.516783 0.234046 0.236595
C45   C     C_R   0.340185 0.475025 0.282673 0.114485
C46   C     C_R   0.173987 0.439659 0.263606 0.170569
H33   H     H_    0.315634 0.645320 0.803139 0.142336
H34   H     H_    0.538831 0.669963 0.891783 0.183298
H35   H     H_    0.615140 0.584830 0.126253 0.222302
C47   C     C_R   0.759006 0.182713 0.540534 0.107759
C48   C     C_R   0.440847 0.809485 0.468096 -0.531040
C49   C     C_R   0.401425 0.986066 0.455605 -0.182982
C50   C     C_R   0.342899 0.877470 0.445984 0.307917
C51   C     C_R   0.586946 0.848927 0.508309 0.263513
C52   C     C_R   0.648145 0.961075 0.520209 -0.057599
C53   C     C_R   0.554242 0.029746 0.491181 -0.156902
C54   C     C_R   0.612835 0.140761 0.500370 0.139427
C55   C     C_R   0.857787 0.116759 0.565652 0.119626
C56   C     C_R   0.800359 0.006935 0.557874 -0.256738
H36   H     H_    0.324104 0.036294 0.437273 0.245422
H37   H     H_    0.877135 0.958729 0.580135 0.212315
H38   H     H_    0.399159 0.724833 0.456926 0.188055
Cl1   Cl    Cl    0.105883 0.068349 0.345345 -0.663546
O25   O     O_3   0.839137 0.902747 0.776994 -0.626513
H39   H     H_    0.950945 0.888373 0.763777 0.373766
Cl2   Cl    Cl    0.827324 0.731906 0.833908 -0.729654
O26   O     O_3   0.303571 0.201354 0.192478 -0.675562
H40   H     H_    0.188864 0.181086 0.203767 0.355014
O27   O     O_3   0.658635 0.920215 0.209960 -0.640033
H41   H     H_    0.779338 0.928801 0.219818 0.341496
Cl3   Cl    Cl    0.256940 0.306671 0.863014 -0.591935
Cl4   Cl    Cl    0.072069 0.098575 0.825559 -0.437941
Cl5   Cl    Cl    0.495866 0.088383 0.819656 -0.419059
Cl6   Cl    Cl    0.597000 0.297949 0.124598 -0.638186
Cl7   Cl    Cl    0.779348 0.513076 0.627363 -0.510187
O28   O     O_3   0.687834 0.657844 0.017895 -0.700514
H42   H     H_    0.740725 0.690289 0.979014 0.374988
Cl8   Cl    Cl    0.265164 0.705595 0.268656 -0.807544
Cl9   Cl    Cl    0.420679 0.468649 0.369374 -0.556466
O29   O     O_3   0.804252 0.290421 0.558110 -0.674319
H43   H     H_    0.847366 0.312776 0.513912 0.323682
O30   O     O_3   0.008215 0.725081 0.137482 -0.664622
H44   H     H_    0.096488 0.691579 0.111913 0.343884
O31   O     O_3   0.158968 0.758178 0.563028 -0.681697
H45   H     H_    0.210110 0.699870 0.533147 0.305704

loop_
_geom_bond_atom_site_label_1
_geom_bond_atom_site_label_2
_geom_bond_distance
_ccdc_geom_bond_type
C13   H24   1.111517 S    
C24   C25   1.415455 A    
C4    O31   1.396733 S    
C35   C36   1.411679 A    
C47   C54   1.398397 A    
C35   H33   1.079420 S    
C32   C33   1.427871 A    
C5    H8    1.120975 S    
C15   H27   1.118203 S    
C16   Cl5   1.796032 S    
C18   C19   1.411085 A    
O27   H41   1.005735 S    
H28   C16   1.126183 S    
C11   H18   1.109921 S    
C33   C46   1.435314 A    
Ba1   O16   2.874434 S    
C17   C22   1.421809 A    
O16   P7    1.792024 S    
C9    O25   1.405380 S    
O2    Ba1   2.947087 S    
C8    H14   1.110292 S    
C5    H7    1.119984 S    
O6    C10   1.410829 S    
C2    H3    1.108405 S    
C6    C7    1.502838 S    
C45   Cl9   1.755266 S    
P1    C46   1.904573 S    
C9    H15   1.114265 S    
C13   C14   1.539725 S    
C40   C41   1.413459 A    
C2    Cl8   1.773047 S    
P2    O7    1.526529 D    
C42   C43   1.413140 A    
C36   C39   1.402824 A    
P1    O1    1.529914 D    
C49   C53   1.413168 A    
C49   C50   1.397831 A    
P7    C54   1.860984 S    
P7    O22   1.756650 S    
C36   C37   1.407833 A    
C44   C45   1.409367 A    
Ba1   Ba2   4.612418 S    
O2    Ba2   2.790319 S    
C4    O15   1.407935 S    
C45   C46   1.412145 A    
C11   H19   1.110150 S    
C20   H30   1.083853 S    
P3    O11   1.752276 S    
P1    Ba1   3.401115 S    
C19   Cl6   1.749807 S    
C3    O30   1.415542 S    
O7    Ba1   2.906505 S    
C1    H2    1.105794 S    
H1    C10   1.111214 S    
P4    O13   1.555427 S    
C13   H23   1.115089 S    
C31   C38   1.416640 A    
C12   H20   1.113551 S    
C26   C37   1.404901 A    
Ba2   O21   2.906759 S    
C41   C43   1.406562 A    
C31   C32   1.426141 A    
C1    C10   1.541838 S    
C15   O24   1.406383 S    
P2    C51   1.850321 S    
C7    Cl1   1.765627 S    
O3    Ba1   2.796689 S    
Ba1   O20   2.934149 S    
C40   O28   1.384370 S    
O17   Ba2   2.830061 S    
P5    O17   1.762190 S    
P5    C55   1.876445 S    
C14   Cl3   1.775951 S    
C12   H21   1.109400 S    
O19   C13   1.414473 S    
O3    P6    1.754957 S    
P1    O5    1.725617 S    
C39   H34   1.084956 S    
C8    C9    1.530299 S    
C5    H6    1.105260 S    
C48   C51   1.393220 A    
C30   C35   1.410997 A    
C28   C29   1.408143 A    
C22   C26   1.412984 A    
C16   H29   1.124963 S    
C17   C18   1.413482 A    
C12   O26   1.403798 S    
P4    C29   1.900771 S    
P1    O2    1.555427 S    
C8    H13   1.108383 S    
C7    H12   1.110059 S    
C52   C56   1.429264 A    
C6    H9    1.100443 S    
P3    C50   1.854950 S    
P2    O10   1.753226 S    
C3    H22   1.126713 S    
C20   C21   1.398524 A    
P3    O9    1.544147 D    
P5    O19   1.753556 S    
C33   C34   1.408178 A    
C3    H4    1.118894 S    
P7    O21   1.572933 D    
C11   O22   1.397829 S    
O11   C2    1.413593 S    
C51   C52   1.442877 A    
C21   C22   1.403473 A    
C23   H31   1.076728 S    
C52   C53   1.428266 A    
O13   Ba2   2.948003 S    
C1    O27   1.401968 S    
P4    O12   1.530245 D    
P3    O8    1.753697 S    
P6    C44   1.866137 S    
O26   H40   0.997195 S    
C4    C5    1.531441 S    
C17   C31   1.407610 A    
O12   Ba2   2.822875 S    
C34   H32   1.076040 S    
P2    O20   1.614259 S    
C10   H16   1.106745 S    
C56   H37   1.077668 S    
O29   H43   0.987088 S    
P5    O18   1.545949 D    
C14   Cl4   1.778402 S    
C25   C30   1.428883 A    
O14   P8    1.741923 S    
C47   C55   1.394605 A    
C23   C24   1.410389 A    
C21   C23   1.398536 A    
C15   H26   1.109955 S    
P8    O23   1.541401 D    
O14   Ba2   2.796032 S    
C39   C40   1.410960 A    
O16   Ba2   2.933228 S    
Ba2   O20   2.873795 S    
O31   H45   1.006579 S    
C11   C12   1.526730 S    
C7    H11   1.112557 S    
C48   C50   1.386804 A    
O25   H39   1.006700 S    
O6    P6    1.764793 S    
O10   C8    1.390209 S    
P8    O24   1.752664 S    
C47   O29   1.366830 S    
C27   C28   1.407943 A    
P8    C27   1.857620 S    
C18   C34   1.412436 A    
P2    Ba1   3.440982 S    
P4    Ba2   3.401730 S    
Ba1   O13   2.789662 S    
C29   C30   1.438953 A    
C42   C44   1.419783 A    
C2    C3    1.535653 S    
O30   H44   0.997481 S    
C14   H25   1.112590 S    
C48   H38   1.080966 S    
C32   C42   1.416410 A    
C43   H35   1.079620 S    
P4    O15   1.756157 S    
O5    C6    1.390627 S    
C25   C26   1.427798 A    
C6    H10   1.115127 S    
C19   C20   1.396638 A    
C24   C27   1.413197 A    
C15   C16   1.544572 S    
C37   C38   1.422560 A    
O28   H42   0.990438 S    
C4    H5    1.116532 S    
O4    P6    1.545099 D    
O1    Ba1   2.822524 S    
C1    H17   1.103226 S    
C49   H36   1.067546 S    
O8    Ba1   2.829408 S    
C53   C54   1.427736 A    
C38   C41   1.409686 A    
C9    Cl2   1.791176 S    
C55   C56   1.413580 A    
C28   Cl7   1.759191 S    
