data_mof_unit_67491.cif
_audit_creation_date              2012-10-26T21:06:58-0400
_audit_creation_method            fapswitch 2.2
_symmetry_space_group_name_H-M    P1
_symmetry_Int_Tables_number       1
_space_group_crystal_system       triclinic
_cell_length_a                    10.847595
_cell_length_b                    8.702717
_cell_length_c                    7.537878
_cell_angle_alpha                 102.407009
_cell_angle_beta                  95.443842
_cell_angle_gamma                 94.28421
_cell_volume                      688.532260879

loop_
_atom_site_label
_atom_site_type_symbol
_atom_type_description
_atom_site_fract_x
_atom_site_fract_y
_atom_site_fract_z
_atom_type_partial_charge
C1    C     C_R   0.507767 0.202007 0.455068 0.537217
C2    C     C_3   0.068149 0.369095 0.594865 0.287967
C3    C     C_3   0.926921 0.384986 0.606248 0.683781
C4    C     C_3   0.091951 0.662377 0.598030 0.695506
C5    C     C_3   0.056184 0.460947 0.287083 -0.189240
C6    C     C_3   0.121939 0.494797 0.492984 -0.141594
C7    C     C_1   0.851499 0.532180 0.160481 0.473681
C8    C     C_1   0.623790 0.992166 0.301357 0.366727
C9    C     C_1   0.578710 0.055859 0.763830 0.298616
C10   C     C_1   0.391065 0.328325 0.928045 0.440666
C11   C     C_1   0.091125 0.206035 0.508826 0.364896
C12   C     C_3   0.878542 0.505002 0.493117 -0.086554
C13   C     C_1   0.906940 0.761763 0.743654 0.437779
C14   C     C_1   0.100261 0.590860 0.200381 0.368852
C15   C     C_1   0.090899 0.314494 0.169042 0.343000
C16   C     C_3   0.948888 0.675619 0.572571 0.213732
C17   C     C_3   0.910881 0.446185 0.289850 0.213742
C18   C     C_2   0.539510 0.040933 0.435576 -0.042119
C19   C     C_2   0.537323 0.970172 0.577060 -0.053900
C20   C     C_R   0.260342 0.495721 0.498814 0.582581
C21   C     C_R   0.515041 0.800238 0.546630 0.537983
C22   C     C_R   0.740057 0.504692 0.499037 0.587165
Cu1   Cu    Cu3+1 0.514070 0.517380 0.684380 1.215299
Cu2   Cu    Cu3+1 0.485930 0.482620 0.315620 1.156949
F1    F     F_    0.127729 0.397096 0.771460 -0.566863
F2    F     F_    0.154651 0.781850 0.536193 -0.546700
F3    F     F_    0.924948 0.770602 0.449795 -0.622022
F4    F     F_    0.578277 0.682231 0.068916 -0.517083
F5    F     F_    0.856975 0.239105 0.546925 -0.551866
F6    F     F_    0.909755 0.437585 0.787414 -0.567155
F7    F     F_    0.135609 0.686238 0.781414 -0.533196
F8    F     F_    0.860986 0.289601 0.227250 -0.574379
N1    N     N_2   0.464720 0.456420 0.038520 -0.136144
N2    N     N_1   0.117043 0.200066 0.076487 -0.122625
N3    N     N_2   0.535280 0.543580 0.961480 0.128689
N4    N     N_1   0.805826 0.601203 0.061602 -0.090788
N5    N     N_1   0.695316 0.958838 0.198515 -0.041989
N6    N     N_1   0.613257 0.124101 0.911684 -0.178183
N7    N     N_1   0.328921 0.220465 0.838168 -0.215474
N8    N     N_1   0.109240 0.078260 0.442218 -0.089937
N9    N     N_1   0.874915 0.833867 0.875925 -0.137749
N10   N     N_1   0.135101 0.693182 0.136366 -0.037511
O1    O     O_R   0.509140 0.286130 0.619770 -0.546477
O2    O     O_R   0.485380 0.256770 0.308360 -0.517233
O3    O     O_R   0.329570 0.514650 0.655700 -0.422901
O4    O     O_R   0.305810 0.485300 0.344290 -0.548005
O5    O     O_R   0.514620 0.743230 0.691640 -0.467479
O6    O     O_R   0.490860 0.713870 0.380230 -0.447593
O7    O     O_R   0.694190 0.514700 0.655710 -0.465672
O8    O     O_R   0.670430 0.485350 0.344300 -0.476398

loop_
_geom_bond_atom_site_label_1
_geom_bond_atom_site_label_2
_ccdc_geom_bond_type
C12   C17   S    
C4    C16   S    
C3    F6    S    
C4    F2    S    
Cu1   Cu2   S    
Cu1   O3    S    
C2    F1    S    
Cu1   O7    S    
C6    C20   S    
C7    N4    T    
C1    O2    A    
Cu2   N1    S    
C22   O8    A    
C14   N10   T    
C21   O6    A    
Cu2   O4    S    
C16   F3    S    
C13   N9    T    
C2    C3    S    
C5    C14   S    
Cu1   O1    S    
C20   O3    A    
C1    C18   S    
C2    C6    S    
C22   O7    A    
C2    C11   S    
C9    N6    T    
C19   C21   S    
C1    O1    A    
C10   N1    S    
Cu1   N3    S    
Cu2   O8    S    
C5    C6    S    
Cu2   O2    S    
C8    C18   S    
C5    C15   S    
C4    F7    S    
C5    C17   S    
C8    N5    T    
C11   N8    T    
Cu2   O6    S    
C12   C22   S    
Cu1   O5    S    
C4    C6    S    
C18   C19   D    
C13   C16   S    
C3    F5    S    
C17   F8    S    
C3    C12   S    
C15   N2    T    
N1    N3    D    
C9    C19   S    
C20   O4    A    
C12   C16   S    
F4    N3    S    
C10   N7    T    
C21   O5    A    
C7    C17   S    
