data_mof_unit_51868.cif
_audit_creation_date              2012-12-10T17:55:29-0500
_audit_creation_method            fapswitch 2.2
_symmetry_space_group_name_H-M    P1
_symmetry_Int_Tables_number       1
_space_group_crystal_system       triclinic
_cell_length_a                    10.75582
_cell_length_b                    9.586352
_cell_length_c                    10.94383
_cell_angle_alpha                 89.982062
_cell_angle_beta                  91.736809
_cell_angle_gamma                 90.151174
_cell_volume                      1127.88585256

loop_
_atom_site_label
_atom_site_type_symbol
_atom_type_description
_atom_site_fract_x
_atom_site_fract_y
_atom_site_fract_z
_atom_type_partial_charge
C1    C     C_R   0.262762 0.499715 0.499680 0.837079
C2    C     C_R   0.737246 0.500189 0.499813 0.833487
C3    C     C_R   0.500785 0.499595 0.265367 0.848171
C4    C     C_R   0.499710 0.499525 0.734709 0.970754
C5    C     C_2   0.488264 0.384961 0.935110 0.390964
C6    C     C_2   0.519289 0.386337 0.065703 0.385290
C7    C     C_2   0.511878 0.498439 0.866987 -0.377382
C8    C     C_2   0.490201 0.498348 0.133118 -0.437397
C9    C     C_R   0.067967 0.485369 0.608099 0.372541
C10   C     C_R   0.938732 0.488631 0.608426 0.326260
C11   C     C_R   0.871218 0.501068 0.497364 -0.248782
C12   C     C_R   0.128673 0.498765 0.497098 -0.259353
C13   C     C_R   0.930948 0.511038 0.384560 -0.091846
C14   C     C_R   0.062112 0.514554 0.384825 -0.108791
C15   C     C_R   0.428053 0.072104 0.415676 0.086584
C16   C     C_R   0.572204 0.072375 0.584128 0.063230
C17   C     C_R   0.429310 0.923838 0.417036 0.045658
C18   C     C_R   0.570819 0.924123 0.582823 0.052885
Cu1   Cu    Cu3+1 0.500000 0.640660 0.500000 1.006228
Cu2   Cu    Cu3+1 0.500000 0.359340 0.500000 1.006795
H1    H     H_    0.550530 0.592087 0.909431 0.154396
H2    H     H_    0.448125 0.589685 0.090205 0.164552
H3    H     H_    0.372446 0.864931 0.351981 0.176711
H4    H     H_    0.627718 0.865396 0.647755 0.183578
N1    N     N_R   0.500000 0.852070 0.500000 -0.216442
N2    N     N_R   0.500000 0.147940 0.500000 -0.242219
O1    O     O_R   0.319640 0.618740 0.499990 -0.569818
O2    O     O_R   0.680360 0.618740 0.500010 -0.575404
O3    O     O_R   0.319620 0.381170 0.499990 -0.597375
O4    O     O_R   0.680380 0.381170 0.500010 -0.602807
O5    O     O_R   0.500000 0.618750 0.321940 -0.587655
O6    O     O_R   0.500000 0.618750 0.678060 -0.568544
O7    O     O_R   0.499970 0.381180 0.321940 -0.570615
O8    O     O_R   0.500030 0.381180 0.678060 -0.565614
Cl1   Cl    Cl    0.417163 0.230934 0.876699 -0.411853
Cl2   Cl    Cl    0.596645 0.237242 0.125760 -0.435926
Cl3   Cl    Cl    0.154258 0.467861 0.747632 -0.443266
Cl4   Cl    Cl    0.861109 0.477141 0.748533 -0.496863
C19   C     C_2   0.854712 0.511545 0.268530 0.553797
H5    H     H_    0.765358 0.563645 0.264252 0.037257
O9    O     O_2   0.888325 0.448540 0.178427 -0.428096
C20   C     C_2   0.131490 0.538953 0.270797 0.539808
H6    H     H_    0.221418 0.490646 0.259063 0.007917
O10   O     O_2   0.091741 0.618185 0.191543 -0.448929
C21   C     C_2   0.346402 0.139385 0.321065 0.467967
H7    H     H_    0.317306 0.245874 0.327457 0.106689
O11   O     O_2   0.308191 0.073745 0.231856 -0.490951
C22   C     C_2   0.654652 0.139863 0.678216 0.485759
H8    H     H_    0.681540 0.247229 0.673124 0.150593
O12   O     O_2   0.696055 0.073438 0.765560 -0.479023

loop_
_geom_bond_atom_site_label_1
_geom_bond_atom_site_label_2
_ccdc_geom_bond_type
C8    H2    S    
C5    C7    D    
C4    O6    A    
Cu1   O1    S    
C9    C10   A    
Cu1   Cu2   S    
C2    O4    A    
C10   Cl4   S    
Cu1   O5    S    
C16   C22   S    
C22   O12   D    
C17   N1    A    
C19   O9    D    
C16   C18   A    
Cu2   O4    S    
C13   C14   A    
C3    O5    A    
Cu1   O2    S    
C11   C13   A    
C17   H3    S    
C1    C12   S    
C20   O10   D    
C4    C7    S    
C18   H4    S    
C2    C11   S    
C5    Cl1   S    
C1    O3    A    
C22   H8    S    
C6    Cl2   S    
C3    C8    S    
C4    O8    A    
Cu2   O3    S    
C21   O11   D    
C16   N2    A    
C5    C6    S    
Cu1   N1    S    
C9    C12   A    
C18   N1    A    
C13   C19   S    
C10   C11   A    
Cu2   O7    S    
Cu2   O8    S    
C6    C8    D    
C1    O1    A    
C9    Cl3   S    
C20   H6    S    
C7    H1    S    
C19   H5    S    
C15   C17   A    
C3    O7    A    
C15   N2    A    
C2    O2    A    
C21   H7    S    
C14   C20   S    
Cu1   O6    S    
C12   C14   A    
Cu2   N2    S    
C15   C21   S    
