data_mof_unit_47664.cif
_audit_creation_date              2012-12-11T15:21:31-0500
_audit_creation_method            fapswitch 2.2
_symmetry_space_group_name_H-M    P1
_symmetry_Int_Tables_number       1
_space_group_crystal_system       triclinic
_cell_length_a                    8.231943
_cell_length_b                    12.655046
_cell_length_c                    19.085357
_cell_angle_alpha                 93.342898
_cell_angle_beta                  95.053359
_cell_angle_gamma                 97.901055
_cell_volume                      1956.69697886

loop_
_atom_site_label
_atom_site_type_symbol
_atom_type_description
_atom_site_fract_x
_atom_site_fract_y
_atom_site_fract_z
_atom_type_partial_charge
Ba1   Ba    Ba6+2 0.160910 0.552960 0.466220 1.682597
Ba2   Ba    Ba6+2 0.649260 0.447030 0.533730 1.665458
C1    C     C_3   0.395222 0.793468 0.230343 -0.267918
C2    C     C_3   0.434123 0.894918 0.279921 0.359760
C3    C     C_3   0.548543 0.770090 0.622533 0.349722
C4    C     C_3   0.557468 0.890623 0.630206 -0.294709
C5    C     C_3   0.908114 0.157072 0.698807 0.313410
C6    C     C_3   0.941199 0.060682 0.738733 -0.326366
C7    C     C_3   0.392822 0.120928 0.727217 0.324904
C8    C     C_3   0.376030 0.234114 0.755988 -0.318307
C9    C     C_R   0.067285 0.184654 0.536035 -0.268123
C10   C     C_R   0.742120 0.816237 0.467344 -0.279836
C11   C     C_R   0.707663 0.998212 0.444685 -0.103449
C12   C     C_3   0.903442 0.837512 0.298099 0.362378
C13   C     C_R   0.647469 0.888763 0.438563 -0.032672
C14   C     C_R   0.891235 0.850563 0.507706 0.060746
C15   C     C_R   0.951558 0.962888 0.517747 -0.051977
C16   C     C_R   0.859234 0.037859 0.484575 -0.056554
C17   C     C_R   0.919804 0.150080 0.493833 0.060761
C18   C     C_R   0.162603 0.112097 0.565297 -0.051037
C19   C     C_R   0.102812 0.002465 0.558110 -0.102672
C20   C     C_R   0.617776 0.539311 0.296738 -0.351849
C21   C     C_R   0.461705 0.484186 0.274233 0.043489
C22   C     C_R   0.408038 0.471939 0.201186 0.305027
C23   C     C_3   0.879868 0.936106 0.258932 -0.385340
C24   C     C_R   0.516396 0.511597 0.151203 -0.042755
C25   C     C_R   0.678796 0.556703 0.175974 -0.186514
C26   C     C_R   0.727325 0.572915 0.248162 0.010260
C27   C     C_R   0.488366 0.586407 0.028310 0.066445
C28   C     C_R   0.437802 0.567154 0.955919 -0.146564
C29   C     C_R   0.356486 0.467799 0.926687 -0.008614
C30   C     C_R   0.333434 0.383102 0.971252 0.375499
C31   C     C_R   0.394943 0.398741 0.042359 -0.024594
C32   C     C_R   0.465985 0.500240 0.073199 0.030999
C33   C     C_R   0.135946 0.412139 0.825198 -0.100735
C34   C     C_3   0.762401 0.314263 0.319533 0.294004
C35   C     C_R   0.079815 0.413702 0.753762 -0.022112
C36   C     C_R   0.341697 0.511031 0.731299 0.045732
C37   C     C_R   0.401131 0.506838 0.801817 -0.116874
C38   C     C_R   0.298745 0.457680 0.849962 0.024186
C39   C     C_R   0.183639 0.461459 0.707175 -0.287322
C40   C     C_3   0.751525 0.286330 0.240507 -0.350984
C41   C     C_3   0.022710 0.696233 0.687370 0.369176
C42   C     C_3   0.013663 0.738456 0.764453 0.630536
C43   C     C_3   0.249013 0.234963 0.389957 0.288243
C44   C     C_3   0.227696 0.114052 0.379743 -0.340669
H1    H     H_    0.566298 0.905214 0.299425 -0.041850
H2    H     H_    0.651349 0.218881 0.225111 0.111134
H3    H     H_    0.725254 0.355609 0.211017 0.075770
H4    H     H_    0.870069 0.263007 0.225943 0.173285
H5    H     H_    0.140681 0.665045 0.682693 -0.073128
H6    H     H_    0.919434 0.631608 0.671097 0.006097
H7    H     H_    0.129591 0.260593 0.398963 0.005108
H8    H     H_    0.338864 0.259851 0.436799 0.077920
H9    H     H_    0.402396 0.721656 0.260574 0.101689
H10   H     H_    0.147801 0.086972 0.330596 0.112528
H11   H     H_    0.170235 0.076430 0.423782 0.075562
H12   H     H_    0.350063 0.087859 0.377769 0.132210
H13   H     H_    0.487481 0.794517 0.191722 0.042669
H14   H     H_    0.672588 0.749857 0.614310 0.001703
H15   H     H_    0.462066 0.741601 0.575222 0.054557
H16   H     H_    0.646392 0.923832 0.675367 0.140573
H17   H     H_    0.598410 0.926462 0.582036 0.066484
H18   H     H_    0.434001 0.911635 0.638782 0.132538
H19   H     H_    0.270033 0.787412 0.202241 0.151126
H20   H     H_    0.790269 0.912284 0.212107 0.109379
H21   H     H_    0.829783 0.129342 0.648947 0.072634
H22   H     H_    0.029500 0.197776 0.686092 -0.085247
H23   H     H_    0.988219 0.001478 0.703454 0.134037
H24   H     H_    0.033003 0.086431 0.784659 0.150990
H25   H     H_    0.827522 0.021915 0.758650 0.169449
H26   H     H_    0.269302 0.074778 0.711260 0.019702
H27   H     H_    0.287381 0.230087 0.796395 0.117642
H28   H     H_    0.326978 0.280478 0.713886 0.076255
H29   H     H_    0.985554 0.861764 0.347474 0.072040
H30   H     H_    0.496671 0.276896 0.779686 0.165114
H31   H     H_    0.631039 0.051128 0.420470 0.103092
H32   H     H_    0.179562 0.949191 0.581707 0.116919
H33   H     H_    0.116147 0.268881 0.540756 0.063240
H34   H     H_    0.692465 0.732126 0.463013 0.063552
H35   H     H_    0.525326 0.544637 0.819411 0.098263
H36   H     H_    0.458159 0.632143 0.921823 0.105887
H37   H     H_    0.780204 0.800751 0.311443 -0.089843
H38   H     H_    0.384704 0.330522 0.074244 0.148343
H39   H     H_    0.051028 0.379636 0.861242 0.140085
H40   H     H_    0.767545 0.580286 0.139085 0.103698
H41   H     H_    0.139045 0.463868 0.652308 0.067761
H42   H     H_    0.658023 0.550389 0.352535 0.079413
H43   H     H_    0.834550 0.996744 0.293773 0.084678
H44   H     H_    0.997038 0.971654 0.240218 0.129461
H45   H     H_    0.642675 0.334645 0.333610 0.000735
H46   H     H_    0.860726 0.383521 0.333231 0.066233
O1    O     O_2   0.160820 0.763040 0.533820 -0.458233
O2    O     O_3   0.303960 0.277529 0.328704 -0.610520
O3    O     O_3   0.976748 0.768208 0.254605 -0.591030
O4    O     O_2   0.649470 0.236890 0.466160 -0.462626
O5    O     O_3   0.919320 0.371390 0.464540 -0.502669
O6    O     O_3   0.424350 0.301430 0.591880 -0.462171
O7    O     O_3   0.797678 0.224591 0.353895 -0.647392
O8    O     O_3   0.382770 0.553920 0.582990 -0.492894
O9    O     O_3   0.848220 0.355290 0.626830 -0.471091
O10   O     O_2   0.736313 0.413342 0.748448 -0.490735
O11   O     O_3   0.824323 0.222807 0.740521 -0.571663
O12   O     O_3   0.890970 0.628600 0.535400 -0.502805
O13   O     O_3   0.427530 0.446070 0.416950 -0.505590
O14   O     O_2   0.637430 0.550200 0.669460 -0.458363
O15   O     O_3   0.494321 0.726505 0.684036 -0.568580
O16   O     O_2   0.478072 0.117641 0.534763 -0.469079
O17   O     O_3   0.488985 0.124449 0.669634 -0.577905
O18   O     O_3   0.385950 0.698560 0.408070 -0.473814
O19   O     O_2   0.334083 0.882370 0.468560 -0.469748
O20   O     O_3   0.017693 0.782823 0.645375 -0.610045
O21   O     O_3   0.330613 0.884753 0.334827 -0.590701
O22   O     O_2   0.172860 0.449730 0.330520 -0.427723
O23   O     O_3   0.962080 0.644700 0.373110 -0.489235
O24   O     O_2   0.070879 0.581394 0.252270 -0.415905
P1    P     P_3+3 0.986780 0.745970 0.554690 0.982828
P2    P     P_3+3 0.341450 0.417130 0.341310 1.046169
P3    P     P_3+3 0.934402 0.638533 0.281311 1.002139
P4    P     P_3+3 0.823520 0.254020 0.445250 0.962858
P5    P     P_3+3 0.870831 0.354734 0.718523 0.989256
P6    P     P_3+3 0.429271 0.838882 0.409921 0.952434
P7    P     P_3+3 0.462995 0.587041 0.670091 1.005122
P8    P     P_3+3 0.382653 0.161774 0.593201 0.955901
Cl1   Cl    Cl    0.182912 0.841835 0.787717 -0.734343
C45   C     C_3   0.023012 0.650273 0.815885 -0.241062
C46   C     C_3   0.005115 0.684695 0.892868 -0.292588
H47   H     H_    0.098695 0.754115 0.912616 0.177496
H48   H     H_    0.879932 0.705042 0.898919 0.167436
H49   H     H_    0.023852 0.617374 0.926106 0.099855
H50   H     H_    0.925339 0.582275 0.798680 0.094962
H51   H     H_    0.145113 0.624195 0.814382 0.084844
Cl2   Cl    Cl    0.826920 0.793823 0.770974 -0.705277
C47   C     C_3   0.404186 0.997541 0.243321 -0.183173
C48   C     C_3   0.454381 0.004618 0.168530 -0.459089
H52   H     H_    0.583070 0.990096 0.165791 0.131431
H53   H     H_    0.368992 0.946846 0.132028 0.143182
H54   H     H_    0.443835 0.085820 0.151129 0.160888
H55   H     H_    0.271778 0.005493 0.240707 0.135151
H56   H     H_    0.473019 0.067683 0.276036 0.105960
C49   C     C_3   0.481022 0.061305 0.784272 -0.190477
C50   C     C_3   0.411284 0.063857 0.855842 -0.337995
H57   H     H_    0.454267 0.999866 0.887050 0.167725
H58   H     H_    0.457775 0.141581 0.885586 0.170777
H59   H     H_    0.274804 0.051713 0.849828 0.209485
H60   H     H_    0.476940 0.976735 0.764581 0.179894
H61   H     H_    0.612189 0.096888 0.793472 0.157977
C51   C     C_3   0.567249 0.699464 0.052899 -0.203832
C52   C     C_3   0.451501 0.781670 0.037303 -0.401634
H62   H     H_    0.413672 0.782093 0.980133 0.151857
H63   H     H_    0.339711 0.765213 0.065743 0.137140
H64   H     H_    0.517609 0.862458 0.054736 0.131982
H65   H     H_    0.606079 0.709368 0.109737 0.108899
H66   H     H_    0.679964 0.719362 0.025438 0.115483
Cl3   Cl    Cl    0.206045 0.407580 0.173347 -0.679973
Cl4   Cl    Cl    0.229972 0.255401 0.941511 -0.753442

loop_
_geom_bond_atom_site_label_1
_geom_bond_atom_site_label_2
_ccdc_geom_bond_type
C48   H54   S    
C45   C46   S    
C13   P6    S    
C8    H28   S    
C34   C40   S    
C7    H26   S    
O15   P7    S    
C21   P2    S    
C52   H62   S    
C5    C6    S    
C43   C44   S    
O6    P8    S    
C9    C17   A    
C23   H44   S    
C51   H66   S    
C11   C16   A    
C33   C35   A    
C22   C24   A    
Ba1   Ba2   S    
C52   H63   S    
C47   H56   S    
O20   P1    S    
C8    H27   S    
C41   H6    S    
C29   C38   S    
C16   C17   A    
C4    H18   S    
O7    P4    S    
C30   Cl4   S    
C1    H9    S    
C24   C32   S    
O21   P6    S    
C10   C14   A    
Ba2   O5    S    
C14   C15   A    
O14   P7    D    
C21   C22   A    
C20   H42   S    
O10   P5    D    
C7    C8    S    
C36   P7    S    
C22   Cl3   S    
C34   H46   S    
C5    H22   S    
Ba2   O8    S    
C20   C26   A    
C44   H12   S    
O19   P6    D    
C50   H59   S    
C1    H19   S    
O1    P1    D    
C12   H37   S    
C27   C51   S    
C43   O2    S    
Ba1   O8    S    
C31   C32   A    
C7    O17   S    
C36   C37   A    
C39   H41   S    
C11   H31   S    
C9    C18   A    
C2    O21   S    
C48   H52   S    
C51   C52   S    
C37   H35   S    
C36   C39   A    
C52   H64   S    
Ba1   O5    S    
C37   C38   A    
Ba2   P4    S    
C40   H2    S    
Ba2   O9    S    
O3    P3    S    
C5    H21   S    
C27   C32   A    
Ba2   O14   S    
O9    P5    S    
C4    H17   S    
C28   H36   S    
C25   H40   S    
C41   C42   S    
C46   H48   S    
C27   C28   A    
Ba1   O18   S    
C29   C30   A    
C10   C13   A    
Ba2   O12   S    
C28   C29   A    
C42   C45   S    
C15   C16   A    
C6    H23   S    
C3    H15   S    
Ba1   P1    S    
C19   H32   S    
Ba1   O12   S    
O22   P2    D    
C9    H33   S    
C49   H60   S    
C40   H4    S    
C35   P5    S    
C34   H45   S    
C43   H8    S    
O23   P3    S    
C11   C13   A    
C44   H11   S    
C24   C25   A    
C50   H58   S    
O13   P2    S    
C41   O20   S    
C46   H47   S    
O11   P5    S    
C12   O3    S    
C47   H55   S    
C2    C47   S    
O12   P1    S    
C3    O15   S    
C42   Cl2   S    
C48   H53   S    
C6    H25   S    
C7    C49   S    
C3    H14   S    
C50   H57   S    
C8    H30   S    
O4    P4    D    
C23   H20   S    
C26   P3    S    
C17   P4    S    
C42   Cl1   S    
O17   P8    S    
C47   C48   S    
Ba2   O13   S    
C23   H43   S    
C6    H24   S    
O24   P3    D    
O8    P7    S    
C30   C31   A    
C4    H16   S    
O5    P4    S    
Ba2   O4    S    
C33   C38   A    
C46   H49   S    
C49   C50   S    
C12   H29   S    
C33   H39   S    
C41   H5    S    
C3    C4    S    
C45   H50   S    
C10   H34   S    
O16   P8    D    
C34   O7    S    
Ba1   P2    S    
C12   C23   S    
C35   C39   A    
C31   H38   S    
C15   C19   A    
C18   P8    S    
C45   H51   S    
C49   H61   S    
C40   H3    S    
C43   H7    S    
C18   C19   A    
Ba2   O6    S    
Ba1   O1    S    
O2    P2    S    
Ba1   O22   S    
C44   H10   S    
C25   C26   A    
C20   C21   A    
C5    O11   S    
Ba1   O23   S    
C51   H65   S    
C14   P1    S    
O18   P6    S    
C1    C2    S    
Ba1   O13   S    
C2    H1    S    
C1    H13   S    
