data_mof_unit_6878.cif
_audit_creation_date              2012-12-10T16:37:25-0500
_audit_creation_method            fapswitch 2.2
_symmetry_space_group_name_H-M    P1
_symmetry_Int_Tables_number       1
_space_group_crystal_system       triclinic
_cell_length_a                    16.811098
_cell_length_b                    16.902621
_cell_length_c                    16.811927
_cell_angle_alpha                 65.575946
_cell_angle_beta                  65.420534
_cell_angle_gamma                 65.645493
_cell_volume                      3785.12128762

loop_
_atom_site_label
_atom_site_type_symbol
_atom_type_description
_atom_site_fract_x
_atom_site_fract_y
_atom_site_fract_z
_atom_type_partial_charge
C1    C     C_R   0.400262 0.043216 0.670361 0.391439
C2    C     C_R   0.399708 0.650757 0.069341 0.463512
C3    C     C_3   0.302860 0.733872 0.982227 -0.405750
C4    C     C_3   0.744337 0.654913 0.463100 -0.297216
C5    C     C_3   0.977123 0.316919 0.764805 -0.221754
C6    C     C_3   0.313778 0.093622 0.840250 -0.122711
C7    C     C_3   0.598505 0.114113 0.118445 -0.111299
C8    C     C_3   0.796311 0.820685 0.575233 -0.341316
C9    C     C_3   0.030065 0.150052 0.646785 -0.145325
C10   C     C_3   0.815180 0.573396 0.801019 -0.322894
C11   C     C_3   0.125594 0.586954 0.123977 -0.118675
C12   C     C_3   0.294476 0.779374 0.591538 -0.283484
C13   C     C_R   0.886219 0.600243 0.372887 0.441063
C14   C     C_3   0.736946 0.221613 0.374161 -0.264013
C15   C     C_3   0.679628 0.210118 0.844801 -0.149816
C16   C     C_3   0.315167 0.811148 0.134804 -0.136045
C17   C     C_3   0.851808 0.687521 0.198194 -0.165875
C18   C     C_3   0.225322 0.380237 0.709247 -0.275444
C19   C     C_R   0.061700 0.407164 0.651217 0.441765
C20   C     C_R   0.974069 0.177856 0.433030 0.904700
C21   C     C_R   0.015961 0.825511 0.571014 0.952362
C22   C     C_R   0.172414 0.427555 0.989869 0.972716
C23   C     C_R   0.824614 0.570426 0.017393 0.960690
C24   C     C_R   0.427284 0.991256 0.171734 0.993171
C25   C     C_R   0.561715 0.038430 0.820802 0.947957
C26   C     C_R   0.561349 0.820469 0.039190 0.966506
C27   C     C_R   0.520336 0.103545 0.305563 0.454898
C28   C     C_R   0.438024 0.179519 0.961498 0.983122
C29   C     C_R   0.038979 0.561785 0.820156 0.950371
C30   C     C_R   0.959569 0.439108 0.179541 0.963438
C31   C     C_R   0.820119 0.039697 0.561465 0.929712
C32   C     C_R   0.179854 0.963098 0.437544 0.926327
C33   C     C_R   0.439750 0.072070 0.710128 0.401068
C34   C     C_R   0.486921 0.079782 0.256618 0.355010
C35   C     C_R   0.936625 0.739871 0.508567 0.417745
C36   C     C_R   0.018833 0.274829 0.519189 0.390627
C37   C     C_R   0.735155 0.506663 0.942079 0.420044
C38   C     C_R   0.937925 0.699232 0.450679 0.464291
C39   C     C_R   0.263315 0.480011 0.079961 0.372928
C40   C     C_R   0.310843 0.919706 0.549928 0.402923
C41   C     C_R   0.699157 0.089794 0.439964 0.422686
C42   C     C_R   0.548073 0.318182 0.897211 0.376146
C43   C     C_R   0.444680 0.696159 0.084819 0.391704
C44   C     C_R   0.892659 0.556625 0.312750 0.379123
C45   C     C_R   0.084050 0.450392 0.690942 0.408031
C46   C     C_R   0.532741 0.047129 0.536929 -0.136935
C47   C     C_R   0.444614 0.012544 0.448652 -0.140936
C48   C     C_R   0.004587 0.551731 0.545855 -0.126672
C49   C     C_R   0.065415 0.319953 0.529371 0.491825
C50   C     C_R   0.978908 0.462514 0.452129 -0.122676
C51   C     C_R   0.545248 0.546554 0.011001 -0.137180
C52   C     C_R   0.453899 0.446434 0.997473 -0.130082
C53   C     C_R   0.568175 0.058430 0.442368 -0.060190
C54   C     C_R   0.417058 0.988739 0.544910 -0.080642
C55   C     C_R   0.032434 0.456226 0.571222 -0.078196
C56   C     C_R   0.943940 0.557486 0.430937 -0.060446
C57   C     C_R   0.449346 0.568824 0.044014 -0.041767
C58   C     C_R   0.548578 0.431495 0.953927 -0.056324
C59   C     C_R   0.513964 0.056022 0.397698 -0.043016
C60   C     C_R   0.692490 0.450246 0.944204 0.468933
C61   C     C_R   0.450901 0.022090 0.586608 -0.039520
C62   C     C_R   0.405608 0.510317 0.047556 -0.061118
C63   C     C_R   0.596004 0.474880 0.969389 -0.078598
C64   C     C_R   0.025833 0.413029 0.518758 -0.012685
C65   C     C_R   0.961837 0.603428 0.474383 -0.077481
C66   C     C_R   0.535203 0.064805 0.672881 -0.037824
C67   C     C_R   0.426655 0.023655 0.306198 -0.055135
C68   C     C_R   0.989051 0.690725 0.570727 -0.097232
C69   C     C_R   0.982044 0.319701 0.443871 -0.037318
C70   C     C_R   0.686790 0.570643 0.992181 -0.098658
C71   C     C_R   0.315369 0.510766 0.102701 0.457946
C72   C     C_R   0.309775 0.423569 0.020703 -0.062275
C73   C     C_R   0.327580 0.957064 0.453635 -0.078141
C74   C     C_R   0.667098 0.072943 0.536356 -0.100419
C75   C     C_R   0.454658 0.328821 0.946532 -0.022795
C76   C     C_R   0.541374 0.671674 0.054711 -0.039215
C77   C     C_R   0.934297 0.461695 0.330386 -0.020258
C78   C     C_R   0.055098 0.545708 0.668399 -0.077120
C79   C     C_R   0.588803 0.063429 0.721661 -0.056768
C80   C     C_R   0.389307 0.993579 0.264666 -0.061492
C81   C     C_R   0.015879 0.732711 0.609618 -0.071812
C82   C     C_R   0.356707 0.933514 0.594808 0.472586
C83   C     C_R   0.962738 0.274265 0.401163 -0.075416
C84   C     C_R   0.730501 0.608951 0.017950 -0.079421
C85   C     C_R   0.265604 0.387956 0.992022 -0.063559
C86   C     C_R   0.277782 0.952754 0.404460 -0.077140
C87   C     C_R   0.719445 0.066142 0.589469 -0.095734
C88   C     C_R   0.404448 0.277172 0.948326 -0.032668
C89   C     C_R   0.592168 0.721980 0.055765 -0.050742
C90   C     C_R   0.938188 0.409500 0.279182 -0.039630
C91   C     C_R   0.055959 0.594076 0.720778 -0.080374
C92   C     C_R   0.677147 0.068315 0.678374 -0.305705
C93   C     C_R   0.655386 0.073266 0.395783 0.466559
C94   C     C_R   0.316011 0.959672 0.314018 -0.325256
C95   C     C_R   0.049493 0.684128 0.683019 -0.336156
C96   C     C_R   0.941711 0.319785 0.320061 -0.350278
C97   C     C_R   0.682528 0.683026 0.050084 -0.311608
C98   C     C_R   0.313111 0.314002 0.959244 -0.344193
C99   C     C_R   0.578550 0.061232 0.582117 -0.096167
C100  C     C_R   0.399956 0.997330 0.403009 -0.082518
C101  C     C_R   0.017914 0.595830 0.593656 -0.101084
C102  C     C_R   0.966141 0.414788 0.407737 -0.091497
C103  C     C_R   0.590769 0.595884 0.019856 -0.093835
C104  C     C_R   0.590159 0.378714 0.891536 0.447789
C105  C     C_R   0.406345 0.399201 0.988881 -0.094589
C106  C     C_3   0.255498 0.123040 0.662900 -0.190922
C107  C     C_3   0.482781 0.257143 0.267139 -0.353651
C108  C     C_3   0.996501 0.764820 0.300023 -0.327645
C109  C     C_3   0.217719 0.304513 0.472381 -0.430403
C110  C     C_3   0.759348 0.300909 0.001901 -0.323839
C111  C     C_3   0.310464 0.472108 0.250751 -0.326800
C112  C     C_3   0.423754 0.821114 0.702359 -0.305299
C113  C     C_3   0.750763 0.978759 0.308908 -0.255232
C114  C     C_3   0.638143 0.474303 0.750994 -0.298841
H1    H     H_    0.716739 0.064855 0.717404 0.184312
H2    H     H_    0.441643 0.256719 0.339010 0.145922
H3    H     H_    0.438361 0.268406 0.227209 0.185634
H4    H     H_    0.511655 0.315258 0.235640 0.189507
H5    H     H_    0.042334 0.698062 0.288958 0.153577
H6    H     H_    0.033019 0.797846 0.313374 0.165488
H7    H     H_    0.978580 0.808904 0.235849 0.172407
H8    H     H_    0.212218 0.374615 0.465921 0.179997
H9    H     H_    0.217157 0.301375 0.407712 0.167575
H10   H     H_    0.285059 0.260346 0.482752 0.185068
H11   H     H_    0.692676 0.291557 0.051846 0.162397
H12   H     H_    0.283818 0.944112 0.280327 0.184043
H13   H     H_    0.797326 0.313908 0.033728 0.174390
H14   H     H_    0.800442 0.236436 0.984148 0.174265
H15   H     H_    0.384502 0.461712 0.235313 0.155937
H16   H     H_    0.297712 0.407272 0.264867 0.146232
H17   H     H_    0.274011 0.493687 0.313893 0.190667
H18   H     H_    0.472170 0.850413 0.701886 0.155008
H19   H     H_    0.458119 0.781760 0.651778 0.117692
H20   H     H_    0.405953 0.772426 0.771025 0.177147
H21   H     H_    0.787878 0.975682 0.237646 0.166913
H22   H     H_    0.704724 0.934804 0.340285 0.154700
H23   H     H_    0.063005 0.718374 0.716191 0.195139
H24   H     H_    0.802610 0.951883 0.345784 0.223631
H25   H     H_    0.612250 0.534371 0.776193 0.138080
H26   H     H_    0.585622 0.471831 0.728714 0.160414
H27   H     H_    0.698387 0.482927 0.690085 0.183747
H28   H     H_    0.322309 0.683608 0.945892 0.172966
H29   H     H_    0.345653 0.781378 0.942466 0.158889
H30   H     H_    0.230938 0.774593 0.985193 0.196001
H31   H     H_    0.766343 0.631202 0.525119 0.140463
H32   H     H_    0.720830 0.602702 0.462119 0.160911
H33   H     H_    0.685054 0.716571 0.467521 0.178754
H34   H     H_    0.936469 0.282763 0.283810 0.188646
H35   H     H_    0.978500 0.245656 0.805610 0.156245
H36   H     H_    0.920453 0.346394 0.733590 0.192254
H37   H     H_    0.963282 0.353349 0.813401 0.213132
H38   H     H_    0.329765 0.018316 0.861236 0.150477
H39   H     H_    0.248827 0.128214 0.822331 0.169973
H40   H     H_    0.301216 0.112229 0.901030 0.169511
H41   H     H_    0.644833 0.062617 0.160038 0.125180
H42   H     H_    0.608307 0.181880 0.096404 0.165700
H43   H     H_    0.622527 0.092959 0.056478 0.158770
H44   H     H_    0.747468 0.889476 0.569728 0.192287
H45   H     H_    0.717632 0.715759 0.063069 0.185230
H46   H     H_    0.805995 0.793130 0.644286 0.145710
H47   H     H_    0.764699 0.778865 0.567520 0.153622
H48   H     H_    0.044793 0.171948 0.691247 0.172945
H49   H     H_    0.094823 0.118405 0.600102 0.164167
H50   H     H_    0.995054 0.096874 0.691814 0.142383
H51   H     H_    0.805067 0.639505 0.808546 0.154098
H52   H     H_    0.759982 0.578500 0.777119 0.140333
H53   H     H_    0.879443 0.558068 0.746775 0.194885
H54   H     H_    0.165826 0.634908 0.073499 0.135464
H55   H     H_    0.105827 0.592143 0.193760 0.169296
H56   H     H_    0.277761 0.280919 0.947044 0.194115
H57   H     H_    0.062603 0.612222 0.104361 0.161014
H58   H     H_    0.357614 0.745989 0.613194 0.150026
H59   H     H_    0.310370 0.780291 0.520100 0.142833
H60   H     H_    0.247037 0.737380 0.636024 0.187676
H61   H     H_    0.717752 0.236082 0.439631 0.148090
H62   H     H_    0.677965 0.254173 0.345699 0.163476
H63   H     H_    0.791921 0.252927 0.324497 0.184599
H64   H     H_    0.689519 0.195715 0.911557 0.096527
H65   H     H_    0.730407 0.243373 0.787916 0.214664
H66   H     H_    0.694173 0.143811 0.835564 0.162125
H67   H     H_    0.257756 0.115392 0.599503 0.180454
H68   H     H_    0.259724 0.777984 0.174264 0.188392
H69   H     H_    0.317319 0.845233 0.061754 0.140940
H70   H     H_    0.298118 0.865134 0.165276 0.160894
H71   H     H_    0.918081 0.694882 0.189518 0.095046
H72   H     H_    0.793986 0.739861 0.228029 0.197412
H73   H     H_    0.848789 0.701542 0.128931 0.165673
H74   H     H_    0.245014 0.444438 0.674337 0.138268
H75   H     H_    0.246566 0.342560 0.659409 0.171631
H76   H     H_    0.263122 0.337121 0.760488 0.208231
H77   H     H_    0.274866 0.184633 0.647451 0.180791
H78   H     H_    0.184149 0.133476 0.707786 0.203137
O1    O     O_R   0.982940 0.138950 0.510160 -0.590718
O2    O     O_R   0.982940 0.510160 0.138950 -0.598585
O3    O     O_R   0.861050 0.017060 0.489840 -0.535830
O4    O     O_R   0.138950 0.982940 0.510160 -0.592732
O5    O     O_R   0.867700 0.025880 0.612340 -0.650429
O6    O     O_R   0.132300 0.974120 0.387660 -0.649661
O7    O     O_R   0.025880 0.612340 0.867700 -0.653171
O8    O     O_R   0.974120 0.387660 0.132300 -0.655648
O9    O     O_R   0.612340 0.867700 0.025880 -0.643626
O10   O     O_R   0.387660 0.132300 0.974120 -0.664875
O11   O     O_R   0.387660 0.974120 0.132300 -0.658377
O12   O     O_R   0.017060 0.861050 0.489840 -0.595853
O13   O     O_R   0.612340 0.025880 0.867700 -0.652382
O14   O     O_R   0.132300 0.387660 0.974120 -0.634231
O15   O     O_R   0.867700 0.612340 0.025880 -0.656513
O16   O     O_R   0.974120 0.132300 0.387660 -0.622107
O17   O     O_R   0.025880 0.867700 0.612340 -0.634939
O18   O     O_3   0.309905 0.043353 0.709777 -0.609492
O19   O     O_3   0.555718 0.176754 0.263626 -0.563438
O20   O     O_3   0.915206 0.755848 0.371395 -0.545618
O21   O     O_3   0.148015 0.272678 0.548112 -0.616383
O22   O     O_3   0.747640 0.371058 0.921146 -0.551140
O23   O     O_R   0.138950 0.510160 0.982940 -0.613614
O24   O     O_3   0.276514 0.540883 0.179461 -0.558752
O25   O     O_3   0.342701 0.889408 0.687603 -0.526344
O26   O     O_3   0.700817 0.069857 0.306717 -0.562883
O27   O     O_3   0.665924 0.393082 0.817513 -0.551876
O28   O     O_3   0.308567 0.690206 0.072571 -0.590043
O29   O     O_3   0.814437 0.677983 0.382509 -0.554242
O30   O     O_3   0.062158 0.317726 0.696625 -0.589384
O31   O     O_3   0.385382 0.126807 0.768506 -0.621213
O32   O     O_3   0.504031 0.120289 0.162634 -0.602579
O33   O     O_3   0.879495 0.827053 0.505888 -0.558558
O34   O     O_R   0.861050 0.489840 0.017060 -0.594388
O35   O     O_3   0.970488 0.223666 0.599549 -0.603673
O36   O     O_3   0.822370 0.503221 0.883065 -0.566842
O37   O     O_3   0.170023 0.494646 0.124427 -0.599933
O38   O     O_3   0.251187 0.867298 0.602212 -0.557111
O39   O     O_3   0.770432 0.127389 0.385520 -0.558453
O40   O     O_3   0.590111 0.262907 0.839822 -0.612407
O41   O     O_3   0.399958 0.748950 0.145312 -0.610635
O42   O     O_3   0.841470 0.600044 0.251298 -0.602801
O43   O     O_3   0.130905 0.397264 0.755077 -0.572955
O44   O     O_R   0.510160 0.982940 0.138950 -0.605511
O45   O     O_R   0.489840 0.017060 0.861050 -0.614832
O46   O     O_R   0.489840 0.861050 0.017060 -0.612665
O47   O     O_R   0.510160 0.138950 0.982940 -0.602030
O48   O     O_R   0.017060 0.489840 0.861050 -0.541121
Zn1   Zn    Zn3+2 0.004880 0.004880 0.583590 0.974603
Zn2   Zn    Zn3+2 0.995120 0.995120 0.416410 1.019826
Zn3   Zn    Zn3+2 0.004880 0.583590 0.004880 0.919694
Zn4   Zn    Zn3+2 0.995120 0.416410 0.995120 1.009986
Zn5   Zn    Zn3+2 0.583590 0.004880 0.004880 0.912504
Zn6   Zn    Zn3+2 0.416410 0.995120 0.995120 0.900814

loop_
_geom_bond_atom_site_label_1
_geom_bond_atom_site_label_2
_ccdc_geom_bond_type
C48   C55   A    
C30   O8    A    
C46   C99   A    
C18   H75   S    
C11   H57   S    
C15   H65   S    
C15   O40   S    
C73   C100  A    
C50   C64   A    
C108  H6    S    
C108  H5    S    
C106  H78   S    
C114  O27   S    
C32   O4    A    
C8    H44   S    
C72   C85   A    
C53   C59   A    
C2    C57   A    
C1    C33   A    
C57   C62   A    
C24   O11   A    
C69   C102  A    
O6    Zn2   S    
C26   C89   S    
C16   O41   S    
C66   C79   A    
C3    H28   S    
O5    Zn1   S    
C42   C75   A    
C20   O1    A    
C60   C63   A    
C24   O44   A    
C84   C97   A    
C97   H45   S    
C44   C77   A    
C110  O22   S    
O16   Zn2   S    
C39   O37   S    
C109  O21   S    
C8    H47   S    
C10   H51   S    
C28   O47   A    
C81   C95   A    
C16   H68   S    
C109  H8    S    
C107  O19   S    
C48   C101  A    
C51   C103  A    
C71   O24   S    
C106  O18   S    
C49   O21   S    
O48   Zn4   S    
C5    H35   S    
C40   C73   A    
C22   O14   A    
C22   C85   S    
C18   H74   S    
C9    H49   S    
C60   O22   S    
C32   O6    A    
C85   C98   A    
C86   C94   A    
C41   C74   A    
C4    H31   S    
C111  H15   S    
C37   O36   S    
C41   C93   A    
C7    H42   S    
C41   O39   S    
C17   H71   S    
C3    O28   S    
C29   O7    A    
C113  H22   S    
C28   C88   S    
C14   H62   S    
C112  O25   S    
C45   C78   A    
C51   C57   A    
C114  H26   S    
C74   C87   A    
C2    C43   A    
C70   C84   A    
C112  H19   S    
C107  H4    S    
O23   Zn3   S    
C30   C90   S    
C110  H13   S    
C13   C56   A    
C6    H38   S    
C76   C103  A    
C5    O30   S    
C32   C86   S    
C11   O37   S    
C49   C64   A    
C35   O33   S    
C15   H66   S    
C78   C101  A    
C2    O28   S    
C21   O12   A    
O46   Zn6   S    
C77   C102  A    
C62   C71   A    
C19   O30   S    
C106  H77   S    
C25   O13   A    
C108  O20   S    
C24   C80   S    
C33   C66   A    
C94   H12   S    
C27   C34   A    
O10   Zn6   S    
O14   Zn4   S    
C77   C90   A    
C16   H69   S    
C95   H23   S    
O2    Zn3   S    
C3    H30   S    
C46   C61   A    
C53   C93   A    
C14   H63   S    
C114  H27   S    
C40   C82   A    
C35   C38   A    
O9    Zn5   S    
C111  O24   S    
C12   H58   S    
C43   O41   S    
O17   Zn1   S    
C18   O43   S    
C10   H53   S    
C23   C84   S    
C17   O42   S    
C4    H33   S    
C91   C95   A    
C50   C56   A    
C47   C100  A    
C96   H34   S    
C42   C104  A    
C93   O26   S    
C66   C99   A    
O7    Zn3   S    
C9    H50   S    
C10   O36   S    
C104  O27   S    
C14   H61   S    
C69   C83   A    
C44   O42   S    
C50   C102  A    
C56   C65   A    
C26   O46   A    
C111  H16   S    
O34   Zn4   S    
C68   C101  A    
C38   C65   A    
C25   O45   A    
C17   H72   S    
C10   H52   S    
C4    H32   S    
C55   C64   A    
C26   O9    A    
C27   O19   S    
C79   C92   A    
C51   C63   A    
C9    O35   S    
C114  H25   S    
C112  H18   S    
C12   O38   S    
O11   Zn6   S    
C14   O39   S    
C6    H40   S    
C39   C72   A    
C52   C58   A    
C67   C100  A    
C108  H7    S    
C33   O31   S    
C111  H17   S    
C19   C45   A    
O3    Zn2   S    
C21   C81   S    
C52   C105  A    
C11   H55   S    
C36   O35   S    
C47   C54   A    
C11   H54   S    
C48   C65   A    
C20   C83   S    
C31   C87   S    
C58   C104  A    
C37   C60   A    
C20   O16   A    
C80   C94   A    
C8    H46   S    
C113  O26   S    
C54   C82   A    
C23   O34   A    
C87   C92   A    
C36   C69   A    
C12   H60   S    
C6    O31   S    
C19   C55   A    
C58   C63   A    
O8    Zn4   S    
C18   H76   S    
C29   O48   A    
C23   O15   A    
C1    O18   S    
C25   C79   S    
O1    Zn1   S    
O44   Zn5   S    
C109  H9    S    
C67   C80   A    
C45   O43   S    
C13   O29   S    
C1    C61   A    
C34   C67   A    
O12   Zn2   S    
C8    O33   S    
C16   H70   S    
C109  H10   S    
C90   C96   A    
C74   C99   A    
C7    H43   S    
C54   C61   A    
C78   C91   A    
C76   C89   A    
C106  H67   S    
O13   Zn5   S    
C5    H37   S    
C68   C81   A    
O4    Zn1   S    
O47   Zn5   S    
C28   O10   A    
C34   O32   S    
C31   O5    A    
C37   C70   A    
C52   C62   A    
C31   O3    A    
C7    O32   S    
C30   O2    A    
C82   O25   S    
C35   C68   A    
C17   H73   S    
O15   Zn3   S    
C83   C96   A    
C46   C53   A    
C112  H20   S    
C21   O17   A    
O45   Zn6   S    
C9    H48   S    
C92   H1    S    
C107  H2    S    
C6    H39   S    
C5    H36   S    
C110  H11   S    
C47   C59   A    
C98   H56   S    
C75   C88   A    
C7    H41   S    
C72   C105  A    
C113  H21   S    
C15   H64   S    
C89   C97   A    
C39   C71   A    
C113  H24   S    
C43   C76   A    
C27   C59   A    
C73   C86   A    
C75   C105  A    
C38   O20   S    
C22   O23   A    
C40   O38   S    
C107  H3    S    
C13   C44   A    
C88   C98   A    
C36   C49   A    
C4    O29   S    
C3    H29   S    
C110  H14   S    
C12   H59   S    
C70   C103  A    
C29   C91   S    
C42   O40   S    
