data_mof_unit_34786.cif
_audit_creation_date              2012-12-10T20:44:49-0500
_audit_creation_method            fapswitch 2.2
_symmetry_space_group_name_H-M    P1
_symmetry_Int_Tables_number       1
_space_group_crystal_system       triclinic
_cell_length_a                    9.940407
_cell_length_b                    10.723377
_cell_length_c                    16.833779
_cell_angle_alpha                 87.356305
_cell_angle_beta                  97.235779
_cell_angle_gamma                 88.820627
_cell_volume                      1777.57673038

loop_
_atom_site_label
_atom_site_type_symbol
_atom_type_description
_atom_site_fract_x
_atom_site_fract_y
_atom_site_fract_z
_atom_type_partial_charge
C1    C     C_R   0.499706 0.260753 0.495936 1.025319
C2    C     C_R   0.498015 0.129564 0.484595 -0.098348
C3    C     C_R   0.379970 0.069069 0.450280 -0.058165
C4    C     C_R   0.519674 0.506888 0.653888 0.911401
C5    C     C_R   0.378634 0.939022 0.457469 -0.220034
C6    C     C_R   0.496437 0.871675 0.489739 -0.166358
C7    C     C_R   0.617062 0.932432 0.507597 0.211298
C8    C     C_3   0.720897 0.914502 0.579448 0.167521
C9    C     C_3   0.718965 0.056008 0.583091 -0.296090
C10   C     C_R   0.081614 0.401397 0.534074 0.060983
C11   C     C_R   0.060750 0.591173 0.459059 0.459052
C12   C     C_R   0.650330 0.505542 0.795583 -0.271437
C13   C     C_R   0.918426 0.591582 0.459106 0.468084
C14   C     C_R   0.939378 0.402922 0.536141 0.128890
C15   C     C_3   0.965689 0.371840 0.624274 0.234845
C16   C     C_R   0.498474 0.739609 0.498423 0.903910
C17   C     C_3   0.115143 0.357119 0.618710 -0.478629
C18   C     C_R   0.478973 0.500104 0.346553 0.953529
C19   C     C_R   0.528704 0.524312 0.741822 -0.212045
C20   C     C_R   0.407578 0.555860 0.773514 0.444148
C21   C     C_R   0.402958 0.541190 0.855629 -0.254795
C22   C     C_R   0.518627 0.503060 0.907868 0.207481
C23   C     C_R   0.496137 0.382861 0.141104 -0.159887
C24   C     C_R   0.644337 0.492765 0.879095 -0.100904
C25   C     C_2   0.621808 0.301960 0.268335 0.955809
C26   C     C_2   0.669722 0.096929 0.659648 0.959450
C27   C     C_2   0.768765 0.472463 0.937989 1.014102
C28   C     C_2   0.784316 0.506891 0.766898 1.021646
C29   C     C_2   0.294060 0.675358 0.249174 0.972669
C30   C     C_2   0.242135 0.646837 0.075504 0.971781
C31   C     C_2   0.257935 0.135974 0.407309 0.957000
C32   C     C_R   0.523817 0.394040 0.223314 -0.067635
C33   C     C_R   0.404137 0.464518 0.094193 0.237442
C34   C     C_R   0.457043 0.490233 0.259486 -0.162523
C35   C     C_R   0.360989 0.571904 0.212290 -0.132030
C36   C     C_R   0.333664 0.557957 0.128888 -0.110351
C37   C     C_R   0.615975 0.059050 0.509466 0.007622
H1    H     H_    0.286695 0.890663 0.437797 0.230134
H2    H     H_    0.905943 0.857757 0.609353 0.363488
H3    H     H_    0.522942 0.176932 0.714396 0.350820
H4    H     H_    0.201602 0.655208 0.402525 0.368340
H5    H     H_    0.753459 0.659961 0.399821 0.376404
H6    H     H_    0.946365 0.240510 0.703117 0.395823
H7    H     H_    0.861790 0.375212 0.035797 0.374444
H8    H     H_    0.751987 0.679776 0.714343 0.306462
H9    H     H_    0.316549 0.832742 0.309040 0.353384
H10   H     H_    0.101116 0.671435 0.978565 0.377892
H11   H     H_    0.220223 0.621217 0.755308 0.348623
H12   H     H_    0.683077 0.861000 0.630094 0.084142
H13   H     H_    0.053870 0.143836 0.382552 0.353782
H14   H     H_    0.815259 0.097252 0.569595 0.248949
H15   H     H_    0.941241 0.451944 0.658657 0.199699
H16   H     H_    0.176399 0.422730 0.656071 0.239234
H17   H     H_    0.548872 0.311804 0.112080 0.214600
H18   H     H_    0.154316 0.258784 0.624188 0.236514
H19   H     H_    0.308887 0.562210 0.879044 0.193121
H20   H     H_    0.793922 0.198225 0.269847 0.360835
N1    N     N_2   0.514614 0.490418 0.991319 -0.132372
N2    N     N_2   0.400538 0.467318 0.010538 -0.128923
N3    N     N_R   0.142860 0.499130 0.500540 -0.198362
N4    N     N_R   0.857210 0.499170 0.500530 -0.230138
O1    O     O_R   0.614690 0.316790 0.499990 -0.575889
O2    O     O_R   0.735243 0.261970 0.234012 -0.769172
O3    O     O_3   0.843309 0.867037 0.558565 -0.651099
O4    O     O_2   0.743163 0.077965 0.723155 -0.574910
O5    O     O_R   0.541774 0.153800 0.659052 -0.829321
O6    O     O_3   0.113126 0.685310 0.415207 -0.670776
O7    O     O_3   0.845423 0.688297 0.416286 -0.633717
O8    O     O_3   0.908022 0.260441 0.646555 -0.740980
O9    O     O_2   0.866416 0.538916 0.934049 -0.579914
O10   O     O_R   0.772632 0.378991 0.999042 -0.757261
O11   O     O_2   0.865282 0.420639 0.787054 -0.582127
O12   O     O_R   0.385350 0.316760 0.500000 -0.611232
O13   O     O_R   0.823906 0.610554 0.722838 -0.786570
O14   O     O_2   0.170381 0.687636 0.239298 -0.547279
O15   O     O_R   0.373177 0.760775 0.293065 -0.807482
O16   O     O_2   0.244549 0.758933 0.085944 -0.572847
O17   O     O_R   0.155883 0.602081 0.011613 -0.751669
O18   O     O_3   0.295678 0.604526 0.723588 -0.747327
O19   O     O_2   0.270104 0.227595 0.363015 -0.597241
O20   O     O_R   0.128931 0.090924 0.414990 -0.760507
O21   O     O_R   0.627460 0.498860 0.616130 -0.612150
O22   O     O_R   0.398120 0.498820 0.616130 -0.552320
O23   O     O_R   0.614650 0.683240 0.500000 -0.600750
O24   O     O_R   0.385310 0.683210 0.500010 -0.619760
O25   O     O_R   0.601880 0.501180 0.383870 -0.637688
O26   O     O_R   0.372540 0.501140 0.383870 -0.623932
O27   O     O_2   0.601526 0.257473 0.333661 -0.628128
Zn1   Zn    Zn3+2 0.653130 0.500020 0.499990 1.027622
Zn2   Zn    Zn3+2 0.346870 0.499980 0.500010 1.022778

loop_
_geom_bond_atom_site_label_1
_geom_bond_atom_site_label_2
_ccdc_geom_bond_type
C35   C36   A    
C9    H14   S    
C24   C27   S    
C28   O13   S    
C1    O1    A    
H9    O15   S    
C7    C8    S    
H4    O6    S    
C29   O15   S    
H2    O3    S    
C18   O25   A    
O21   Zn1   S    
C12   C28   S    
H11   O18   S    
O12   Zn2   S    
C34   C35   A    
C5    C6    A    
C10   C17   S    
O1    Zn1   S    
C16   O23   A    
C33   C36   A    
H7    O10   S    
C1    C2    S    
C25   O2    S    
C30   O16   D    
C19   C20   A    
C11   O6    S    
C8    C9    S    
C23   C33   A    
C17   H18   S    
C25   C32   S    
H6    O8    S    
H3    O5    S    
C21   C22   A    
H5    O7    S    
C4    C19   S    
C28   O11   D    
N4    Zn1   S    
C9    C26   S    
H20   O2    S    
C15   O8    S    
C26   O5    S    
C31   O19   D    
C10   C14   A    
N1    N2    D    
C14   N4    A    
C25   O27   D    
H8    O13   S    
C32   C34   A    
C10   N3    A    
C9    C37   S    
C7    C37   A    
C13   N4    A    
C15   H15   S    
C3    C31   S    
C18   C34   S    
C27   O9    D    
C8    O3    S    
C16   O24   A    
C22   C24   A    
O23   Zn1   S    
C11   N3    A    
C17   H16   S    
C27   O10   S    
C23   H17   S    
C15   C17   S    
O22   Zn2   S    
C12   C24   A    
C20   O18   S    
C26   O4    D    
C3    C5    A    
O25   Zn1   S    
C22   N1    S    
C21   H19   S    
O24   Zn2   S    
C6    C7    A    
C29   O14   D    
N3    Zn2   S    
C29   C35   S    
C18   O26   A    
C31   O20   S    
C30   C36   S    
C1    O12   A    
C23   C32   A    
C2    C3    A    
C11   C13   A    
C2    C37   A    
C4    O22   A    
C12   C19   A    
C6    C16   S    
C30   O17   S    
C4    O21   A    
C20   C21   A    
C33   N2    S    
O26   Zn2   S    
C14   C15   S    
H10   O17   S    
C5    H1    S    
C8    H12   S    
H13   O20   S    
C13   O7    S    
