data_mof_unit_44695.cif
_audit_creation_date              2012-12-10T16:58:29-0500
_audit_creation_method            fapswitch 2.2
_symmetry_space_group_name_H-M    P1
_symmetry_Int_Tables_number       1
_space_group_crystal_system       triclinic
_cell_length_a                    7.743621
_cell_length_b                    8.553066
_cell_length_c                    23.397895
_cell_angle_alpha                 91.029366
_cell_angle_beta                  85.849504
_cell_angle_gamma                 93.684306
_cell_volume                      1542.28577542

loop_
_atom_site_label
_atom_site_type_symbol
_atom_type_description
_atom_site_fract_x
_atom_site_fract_y
_atom_site_fract_z
_atom_type_partial_charge
C1    C     C_R   0.545898 0.794838 0.498358 0.966171
C2    C     C_R   0.454112 0.205162 0.501444 0.954080
C3    C     C_R   0.665389 0.471989 0.757971 -0.264834
C4    C     C_R   0.614365 0.580367 0.234612 -0.326101
C5    C     C_R   0.662343 0.463725 0.698638 0.452275
C6    C     C_R   0.622765 0.583780 0.293671 0.430921
C7    C     C_R   0.507603 0.492955 0.673117 -0.234964
C8    C     C_R   0.490941 0.503198 0.327918 -0.188269
C9    C     C_R   0.355568 0.516357 0.707948 -0.377117
C10   C     C_R   0.348606 0.426383 0.303331 -0.436668
C11   C     C_R   0.357007 0.512710 0.767279 0.541786
C12   C     C_R   0.336801 0.426483 0.243597 0.581463
C13   C     C_R   0.514347 0.496237 0.792156 0.138259
C14   C     C_R   0.473698 0.501955 0.209936 0.178267
C15   C     C_2   0.570197 0.958290 0.497226 -0.389834
C16   C     C_2   0.429860 0.041701 0.502217 -0.377124
C17   C     C_R   0.502215 0.497896 0.610757 0.923858
C18   C     C_R   0.497750 0.500776 0.389602 0.926182
C19   C     C_R   0.511432 0.364640 0.119914 0.564039
C20   C     C_R   0.484972 0.635485 0.882249 0.589334
C21   C     C_R   0.439446 0.632774 0.121952 0.529752
C22   C     C_R   0.551298 0.365879 0.880274 0.467486
C23   C     C_R   0.449038 0.636121 0.062197 -0.023679
C24   C     C_R   0.545665 0.363678 0.939979 -0.009592
C25   C     C_R   0.492104 0.499650 0.031157 -0.018138
C26   C     C_R   0.504037 0.500479 0.971004 -0.020673
C27   C     C_R   0.523146 0.362316 0.060123 -0.028251
C28   C     C_R   0.473740 0.637949 0.942035 -0.047513
C29   C     C_R   0.418129 0.772253 0.032947 -0.164202
C30   C     C_R   0.577910 0.227893 0.969210 -0.174147
C31   C     C_R   0.430826 0.773276 0.973326 -0.170283
C32   C     C_R   0.566851 0.227236 0.028823 -0.171560
H1    H     H_    0.383995 0.878121 0.055981 0.195929
H2    H     H_    0.611790 0.121985 0.946162 0.193484
H3    H     H_    0.405438 0.879717 0.951896 0.191922
H4    H     H_    0.592947 0.120966 0.050238 0.189991
H5    H     H_    0.785220 0.457507 0.777586 0.185475
H6    H     H_    0.717910 0.638258 0.207618 0.183486
H7    H     H_    0.234969 0.536852 0.689410 0.222207
H8    H     H_    0.250815 0.364106 0.331141 0.162577
H9    H     H_    0.702691 0.009402 0.492380 0.178173
H10   H     H_    0.297368 0.990589 0.507016 0.179971
H11   H     H_    0.014057 0.382702 0.456784 0.187241
H12   H     H_    0.985890 0.617035 0.543304 0.211367
N1    N     N_R   0.471858 0.498874 0.149205 -0.327332
N2    N     N_R   0.519488 0.499977 0.852915 -0.336612
N3    N     N_2   0.950330 0.457950 0.484560 -0.179315
N4    N     N_2   0.049670 0.542050 0.515440 -0.170334
O1    O     O_R   0.389250 0.738570 0.503790 -0.612048
O2    O     O_R   0.610750 0.261430 0.496210 -0.622726
O3    O     O_R   0.678390 0.711620 0.493890 -0.633208
O4    O     O_R   0.321610 0.288380 0.506110 -0.638947
O5    O     O_R   0.355400 0.513520 0.588790 -0.623690
O6    O     O_R   0.644600 0.486480 0.411210 -0.579817
O7    O     O_R   0.644550 0.486570 0.578900 -0.574866
O8    O     O_R   0.355450 0.513430 0.421100 -0.632094
O9    O     O_2   0.540616 0.234666 0.148699 -0.547575
O10   O     O_2   0.460770 0.766810 0.853473 -0.513011
O11   O     O_2   0.398824 0.761960 0.152760 -0.540836
O12   O     O_2   0.585102 0.234620 0.849687 -0.562917
Zn1   Zn    Zn3+2 0.306930 0.518000 0.506610 0.939700
Zn2   Zn    Zn3+2 0.693070 0.482000 0.493390 0.961677
O13   O     O_3   0.812852 0.432965 0.666003 -0.593733
C33   C     C_3   0.829888 0.269382 0.665160 0.102920
H13   H     H_    0.713771 0.205468 0.648252 0.142023
H14   H     H_    0.848053 0.226639 0.708879 0.148325
C34   C     C_3   0.987903 0.231147 0.626225 -0.763577
H15   H     H_    0.106645 0.291934 0.641923 0.252399
H16   H     H_    0.002824 0.102864 0.625810 0.198248
H17   H     H_    0.971946 0.268506 0.581858 0.263774
O14   O     O_3   0.763138 0.661009 0.317531 -0.602953
C35   C     C_3   0.727368 0.819779 0.326459 0.134449
H18   H     H_    0.607197 0.830887 0.355125 0.125619
H19   H     H_    0.712653 0.877679 0.284949 0.159356
C36   C     C_3   0.877340 0.905219 0.354991 -0.817808
H20   H     H_    0.998888 0.899452 0.326965 0.261188
H21   H     H_    0.849840 0.030043 0.362613 0.196022
H22   H     H_    0.894888 0.850604 0.396723 0.266213
O15   O     O_3   0.206848 0.536427 0.801047 -0.583513
C37   C     C_3   0.130835 0.390087 0.820092 0.071986
H23   H     H_    0.227646 0.304978 0.829807 0.159959
H24   H     H_    0.049829 0.336826 0.786665 0.153927
C38   C     C_3   0.017142 0.415275 0.874885 -0.759821
H25   H     H_    0.920282 0.501951 0.867926 0.254977
H26   H     H_    0.948125 0.302741 0.888439 0.228746
H27   H     H_    0.098807 0.459655 0.909549 0.247357
O16   O     O_3   0.203587 0.347825 0.215230 -0.590380
C39   C     C_3   0.046052 0.327267 0.249457 0.053526
H28   H     H_    0.012805 0.437772 0.272475 0.183513
H29   H     H_    0.053679 0.231234 0.280423 0.147240
C40   C     C_3   0.900573 0.279648 0.211200 -0.688571
H30   H     H_    0.927906 0.168293 0.188152 0.267163
H31   H     H_    0.776145 0.262388 0.237722 0.220353
H32   H     H_    0.888423 0.372451 0.179395 0.252274

loop_
_geom_bond_atom_site_label_1
_geom_bond_atom_site_label_2
_ccdc_geom_bond_type
O16   C39   S    
C16   H10   S    
N3    Zn2   S    
C19   O9    S    
C23   C29   A    
C24   C26   A    
C21   O11   S    
O4    Zn1   S    
C35   C36   S    
C22   O12   S    
C13   N2    S    
C15   C16   D    
O7    Zn2   S    
C29   H1    S    
C9    H7    S    
C5    O13   S    
C10   H8    S    
C2    O2    A    
O5    Zn1   S    
C38   H25   S    
C7    C17   S    
C1    C15   S    
C2    C16   S    
C17   O7    A    
C3    C13   A    
C18   O8    A    
O3    Zn2   S    
C37   C38   S    
C10   C12   A    
C14   N1    S    
C21   N1    A    
C6    O14   S    
O1    Zn1   S    
C30   H2    S    
C34   H15   S    
C33   C34   S    
C15   H9    S    
C35   H19   S    
C40   H30   S    
C5    C7    A    
C37   H23   S    
C6    C8    A    
O6    Zn2   S    
C25   C26   A    
C8    C18   S    
O13   C33   S    
C34   H16   S    
C33   H14   S    
C36   H20   S    
C2    O4    A    
C40   H31   S    
C36   H21   S    
N3    N4    D    
C39   C40   S    
C19   N1    A    
C9    C11   A    
C11   O15   S    
C37   H24   S    
C38   H26   S    
C12   C14   A    
C21   C23   A    
O2    Zn2   S    
C22   C24   A    
C4    C6    A    
C20   O10   S    
C17   O5    A    
C19   C27   A    
C7    C9    A    
C12   O16   S    
C22   N2    A    
C27   C32   A    
C28   C31   A    
C39   H29   S    
C35   H18   S    
C3    C5    A    
C32   H4    S    
C25   C27   A    
C20   C28   A    
C26   C28   A    
C1    O3    A    
C34   H17   S    
C33   H13   S    
O14   C35   S    
C29   C31   A    
C40   H32   S    
C30   C32   A    
C11   C13   A    
N4    Zn1   S    
C1    O1    A    
C31   H3    S    
C23   C25   A    
C4    C14   A    
C36   H22   S    
C24   C30   A    
C18   O6    A    
O15   C37   S    
C38   H27   S    
C39   H28   S    
C3    H5    S    
C8    C10   A    
O8    Zn1   S    
C4    H6    S    
H11   N3    S    
C20   N2    A    
H12   N4    S    
