data_mof_unit_35759.cif
_audit_creation_date              2012-12-10T19:06:24-0500
_audit_creation_method            fapswitch 2.2
_symmetry_space_group_name_H-M    P1
_symmetry_Int_Tables_number       1
_space_group_crystal_system       triclinic
_cell_length_a                    23.511834
_cell_length_b                    10.877344
_cell_length_c                    9.532622
_cell_angle_alpha                 89.658627
_cell_angle_beta                  90.170301
_cell_angle_gamma                 90.168785
_cell_volume                      2437.86837538

loop_
_atom_site_label
_atom_site_type_symbol
_atom_type_description
_atom_site_fract_x
_atom_site_fract_y
_atom_site_fract_z
_atom_type_partial_charge
C1    C     C_R   0.500440 0.262803 0.500194 0.833191
C2    C     C_R   0.970067 0.275973 0.489525 -0.159962
C3    C     C_R   0.029412 0.275826 0.490112 -0.160423
C4    C     C_R   0.059899 0.387065 0.493058 -0.015697
C5    C     C_R   0.030153 0.499313 0.495301 -0.017667
C6    C     C_R   0.060301 0.611431 0.498353 -0.016173
C7    C     C_R   0.030219 0.722807 0.500400 -0.160242
C8    C     C_R   0.970877 0.722916 0.499658 -0.160012
C9    C     C_R   0.119566 0.389278 0.493948 0.534542
C10   C     C_R   0.119956 0.608960 0.499271 0.535412
C11   C     C_R   0.238606 0.502526 0.625250 -0.105614
C12   C     C_R   0.390885 0.499785 0.499829 0.796358
C13   C     C_R   0.297924 0.502642 0.626134 -0.214123
C14   C     C_R   0.328230 0.499434 0.499235 -0.038047
C15   C     C_R   0.298078 0.495852 0.371662 -0.209297
C16   C     C_R   0.238773 0.495534 0.371181 -0.105877
C17   C     C_R   0.208983 0.498963 0.497861 0.366452
C18   C     C_R   0.760458 0.460774 0.377690 -0.097083
C19   C     C_R   0.701148 0.460942 0.379128 -0.216781
C20   C     C_R   0.671677 0.499851 0.498939 -0.034257
C21   C     C_R   0.702577 0.539184 0.616736 -0.218063
C22   C     C_R   0.761864 0.539117 0.615112 -0.096959
C23   C     C_R   0.500812 0.737477 0.499119 0.841806
C24   C     C_R   0.791023 0.499815 0.495693 0.351502
C25   C     C_R   0.498499 0.060983 0.620093 0.132078
C26   C     C_R   0.502455 0.130549 0.498514 -0.140909
C27   C     C_R   0.508624 0.067338 0.370848 -0.315637
C28   C     C_R   0.508997 0.937540 0.367697 0.407567
C29   C     C_R   0.502950 0.870434 0.495568 -0.147196
C30   C     C_R   0.498792 0.937298 0.618676 0.050330
C31   C     C_3   0.489143 0.926426 0.772778 -0.431030
C32   C     C_3   0.488790 0.067985 0.774138 -0.459437
C33   C     C_R   0.526634 0.592065 0.073390 0.326856
C34   C     C_R   0.609085 0.500124 0.499951 0.796697
C35   C     C_R   0.469058 0.416367 0.074800 -0.092477
C36   C     C_R   0.469036 0.416393 0.925818 -0.081397
C37   C     C_R   0.526822 0.591715 0.925847 0.253805
C38   C     C_3   0.588628 0.622006 0.921216 -0.533564
C39   C     C_3   0.588229 0.624198 0.080101 -0.479812
C40   C     C_R   0.880721 0.609481 0.496489 0.533586
C41   C     C_R   0.880314 0.389782 0.491930 0.533978
C42   C     C_R   0.939978 0.387366 0.491786 -0.014682
C43   C     C_R   0.970126 0.499443 0.494623 -0.017755
C44   C     C_R   0.940388 0.611648 0.496958 -0.014568
Cu1   Cu    Cu3+1 0.500000 0.499980 0.640670 0.944333
Cu2   Cu    Cu3+1 0.500000 0.500020 0.359330 0.966427
H1    H     H_    0.947892 0.188577 0.487383 0.189995
H2    H     H_    0.678410 0.429486 0.287110 0.149778
H3    H     H_    0.681092 0.571794 0.709156 0.148305
H4    H     H_    0.785226 0.569655 0.706630 0.144255
H5    H     H_    0.512746 0.118192 0.273319 0.163184
H6    H     H_    0.447155 0.884665 0.797879 0.206820
H7    H     H_    0.526124 0.885581 0.828728 0.196191
H8    H     H_    0.446562 0.107509 0.799774 0.193013
H9    H     H_    0.525570 0.109034 0.830688 0.200667
H10   H     H_    0.444899 0.347222 0.130997 0.143997
H11   H     H_    0.051278 0.188343 0.488375 0.189646
H12   H     H_    0.444830 0.347365 0.870167 0.139406
H13   H     H_    0.614280 0.544967 0.879697 0.217599
H14   H     H_    0.597070 0.713364 0.872721 0.197506
H15   H     H_    0.614608 0.550240 0.127482 0.208618
H16   H     H_    0.595573 0.717358 0.123906 0.228921
H17   H     H_    0.052400 0.810195 0.502638 0.189863
H18   H     H_    0.949019 0.810408 0.501380 0.189787
H19   H     H_    0.215598 0.505150 0.723415 0.136078
H20   H     H_    0.319966 0.505404 0.725985 0.158940
H21   H     H_    0.320233 0.493207 0.272292 0.159296
H22   H     H_    0.215899 0.492803 0.272482 0.135963
H23   H     H_    0.782724 0.430505 0.284874 0.144048
N1    N     N_R   0.852032 0.499689 0.494342 -0.470782
N2    N     N_R   0.148119 0.499058 0.497086 -0.473155
N3    N     N_R   0.500360 0.500930 0.147930 -0.194208
N4    N     N_R   0.500360 0.500890 0.852020 -0.185848
O1    O     O_R   0.500000 0.319640 0.618810 -0.583054
O2    O     O_2   0.850760 0.283247 0.490986 -0.530121
O3    O     O_2   0.148875 0.282831 0.491900 -0.527292
O4    O     O_2   0.149642 0.715286 0.502140 -0.526011
O5    O     O_R   0.500010 0.319680 0.381230 -0.592341
O6    O     O_R   0.417880 0.499940 0.618820 -0.586266
O7    O     O_R   0.417880 0.499980 0.381240 -0.584152
O8    O     O_R   0.499990 0.680320 0.618770 -0.591401
O9    O     O_R   0.500000 0.680360 0.381190 -0.518277
O10   O     O_R   0.582120 0.500020 0.618760 -0.582965
O11   O     O_R   0.582120 0.500060 0.381180 -0.588545
O12   O     O_2   0.851554 0.716142 0.497275 -0.530187
O13   O     O_3   0.514862 0.876398 0.241871 -0.730732
H24   H     H_    0.518520 0.937072 0.164328 0.313281

loop_
_geom_bond_atom_site_label_1
_geom_bond_atom_site_label_2
_ccdc_geom_bond_type
C23   O9    A    
C41   C42   A    
C35   C36   A    
C31   H6    S    
C18   H23   S    
C21   H3    S    
C24   N1    S    
C7    C8    A    
Cu1   Cu2   S    
C26   C27   A    
C29   C30   A    
C40   N1    A    
C18   C24   A    
C1    O1    A    
C23   C29   S    
C28   C29   A    
C36   H12   S    
C5    C6    A    
C15   C16   A    
C12   O6    A    
Cu1   N4    S    
C18   C19   A    
C33   N3    A    
Cu2   O9    S    
C19   C20   A    
C16   C17   A    
C16   H22   S    
C9    O3    S    
C32   H9    S    
Cu2   N3    S    
C22   H4    S    
C20   C34   S    
C10   N2    A    
C25   C32   S    
C5    C43   A    
C21   C22   A    
C1    O5    A    
Cu1   O10   S    
C34   O11   A    
C32   H8    S    
C10   O4    S    
C27   H5    S    
C13   H20   S    
C39   H15   S    
C9    N2    A    
Cu2   O5    S    
C19   H2    S    
C25   C26   A    
C33   C37   A    
Cu1   O1    S    
C40   O12   S    
C43   C44   A    
C37   C38   S    
C41   O2    S    
C31   C32   S    
C30   C31   S    
C15   H21   S    
Cu1   O6    S    
C33   C39   S    
C31   H7    S    
C7    H17   S    
C8    H18   S    
C38   H14   S    
C3    H11   S    
C12   C14   S    
C35   N3    A    
C17   N2    S    
C28   O13   S    
C1    C26   S    
Cu2   O11   S    
C42   C43   A    
C3    C4    A    
C25   C30   A    
C39   H16   S    
C37   N4    A    
C11   C17   A    
C23   O8    A    
C35   H10   S    
O13   H24   S    
Cu1   O8    S    
C8    C44   A    
C4    C5    A    
C6    C10   A    
C6    C7    A    
C2    H1    S    
C2    C3    A    
Cu2   O7    S    
C11   C13   A    
C38   C39   S    
C2    C42   A    
C12   O7    A    
C22   C24   A    
C36   N4    A    
C38   H13   S    
C40   C44   A    
C20   C21   A    
C34   O10   A    
C27   C28   A    
C14   C15   A    
C4    C9    A    
C13   C14   A    
C11   H19   S    
C41   N1    A    
