data_mof_unit_33157.cif
_audit_creation_date              2012-12-11T15:49:17-0500
_audit_creation_method            fapswitch 2.2
_symmetry_space_group_name_H-M    P1
_symmetry_Int_Tables_number       1
_space_group_crystal_system       triclinic
_cell_length_a                    8.673246
_cell_length_b                    18.957414
_cell_length_c                    26.766081
_cell_angle_alpha                 95.090138
_cell_angle_beta                  92.191001
_cell_angle_gamma                 85.340453
_cell_volume                      4366.96363551

loop_
_atom_site_label
_atom_site_type_symbol
_atom_type_description
_atom_site_fract_x
_atom_site_fract_y
_atom_site_fract_z
_atom_type_partial_charge
Ba1   Ba    Ba6+2 0.854000 0.466860 0.523710 1.738038
Ba2   Ba    Ba6+2 0.335820 0.533080 0.476290 1.791452
C1    C     C_3   0.684118 0.236228 0.686987 0.554034
C2    C     C_R   0.008028 0.583844 0.188494 0.691781
C3    C     C_2   0.783586 0.551407 0.271255 0.378759
C4    C     C_3   0.130282 0.327722 0.672014 0.219359
C5    C     C_3   0.753252 0.572615 0.326410 -0.150079
C6    C     C_1   0.992093 0.497890 0.345887 0.106281
C7    C     C_2   0.036894 0.497147 0.298791 -0.136665
C8    C     C_2   0.926163 0.521722 0.258264 0.202497
C9    C     C_R   0.071208 0.521467 0.106994 -0.165164
C10   C     C_R   0.040691 0.456598 0.126156 -0.101194
C11   C     C_R   0.051995 0.393633 0.093142 0.427139
C12   C     C_3   0.704824 0.301942 0.659458 0.324433
C13   C     C_R   0.054117 0.585881 0.138293 -0.055022
C14   C     C_2   0.863903 0.534781 0.362344 -0.187882
C15   C     C_2   0.331469 0.484814 0.643587 -0.236075
C16   C     C_3   0.087758 0.309874 0.725073 0.307878
C17   C     C_R   0.207633 0.457668 0.976906 -0.020872
C18   C     C_R   0.161885 0.587920 0.983322 0.051470
C19   C     C_R   0.202450 0.523072 0.954440 0.028283
C20   C     C_R   0.277543 0.396091 0.949477 0.346555
C21   C     C_R   0.314325 0.397877 0.899177 -0.015363
C22   C     C_R   0.292399 0.460674 0.874965 -0.109695
C23   C     C_3   0.574351 0.644846 0.627147 0.282887
C24   C     C_R   0.240130 0.523843 0.902908 -0.088005
C25   C     C_R   0.228017 0.588012 0.879574 -0.033740
C26   C     C_R   0.260899 0.587492 0.828079 0.608323
C27   C     C_R   0.326560 0.462001 0.823746 0.608084
C28   C     C_3   0.165793 0.299296 0.403055 0.598232
C29   C     C_2   0.462184 0.509845 0.726411 -0.011550
C30   C     C_3   0.481725 0.503410 0.669947 -0.080046
C31   C     C_1   0.203235 0.519229 0.660389 0.057192
C32   C     C_2   0.180709 0.530240 0.710098 -0.052802
C33   C     C_2   0.319866 0.522556 0.745923 0.240041
C34   C     C_3   0.627071 0.667808 0.680767 0.251976
C35   C     C_R   0.146232 0.457375 0.025882 -0.002945
C36   C     C_R   0.117945 0.522023 0.056154 0.055365
C37   C     C_R   0.133578 0.587296 0.035531 -0.018995
C38   C     C_R   0.101264 0.395132 0.044192 -0.032147
C39   C     C_R   0.083453 0.650086 0.118057 0.439504
C40   C     C_3   0.135704 0.220341 0.384735 0.245072
C41   C     C_R   0.149820 0.651345 0.958743 -0.081226
C42   C     C_R   0.181739 0.651242 0.908071 -0.032237
C43   C     C_R   0.120460 0.650078 0.067832 -0.093587
C44   C     C_R   0.420108 0.303201 0.531776 -0.242964
C45   C     C_3   0.014897 0.738532 0.340299 0.325210
C46   C     C_R   0.555196 0.280806 0.505601 0.054953
C47   C     C_R   0.605742 0.208285 0.501142 -0.127937
C48   C     C_R   0.516133 0.157074 0.518339 0.039422
C49   C     C_R   0.376034 0.180479 0.542364 -0.000066
C50   C     C_R   0.327894 0.253598 0.549449 0.026170
C51   C     C_R   0.607634 0.036642 0.547927 0.394101
C52   C     C_3   0.078441 0.693218 0.589982 0.310997
C53   C     C_R   0.677107 0.966996 0.539103 0.001285
C54   C     C_R   0.677910 0.933823 0.489795 -0.020056
C55   C     C_R   0.634791 0.974773 0.449784 -0.042148
C56   C     C_3   0.064862 0.766946 0.292492 0.329293
C57   C     C_R   0.584218 0.047279 0.457912 0.025594
C58   C     C_R   0.566321 0.079260 0.507844 0.019989
C59   C     C_R   0.838534 0.826157 0.455340 -0.119549
C60   C     C_R   0.875204 0.752521 0.450022 -0.040485
C61   C     C_R   0.643371 0.734226 0.494175 0.078265
C62   C     C_R   0.606579 0.808679 0.500382 0.034776
C63   C     C_R   0.704776 0.855014 0.480156 0.062008
C64   C     C_3   0.179369 0.753532 0.609845 -0.197025
C65   C     C_R   0.772270 0.707007 0.466394 -0.218799
C66   C     C_3   0.646675 0.326504 0.354911 0.834055
C67   C     C_3   0.559862 0.725363 0.342828 0.796525
C68   C     C_3   0.656986 0.268260 0.308896 0.294252
C69   C     C_3   0.978077 0.212587 0.362155 -0.268565
C70   C     C_3   0.920193 0.723419 0.574560 -0.328568
C71   C     C_3   0.121392 0.796020 0.657772 -0.270836
C72   C     C_3   0.505636 0.235901 0.291039 -0.297612
C73   C     C_3   0.522108 0.212870 0.675436 -0.109738
C74   C     C_3   0.033750 0.568422 0.730642 -0.307067
C75   C     C_3   0.469889 0.838078 0.531244 -0.335896
C76   C     C_3   0.749725 0.929254 0.582794 -0.283653
C77   C     C_3   0.022973 0.374679 0.757865 -0.361901
C78   C     C_3   0.611239 0.753678 0.295100 -0.251652
C79   C     C_3   0.544276 0.086300 0.411845 -0.320084
C80   C     C_3   0.331370 0.300507 0.406818 -0.260118
C81   C     C_R   0.995527 0.457585 0.176925 0.709806
Cl1   Cl    Cl    0.164760 0.160216 0.433158 -0.693715
Cl2   Cl    Cl    0.458697 0.796096 0.379400 -0.609083
Cl3   Cl    Cl    0.001333 0.310331 0.109314 -0.430370
Cl4   Cl    Cl    0.352769 0.319121 0.977545 -0.541542
Cl5   Cl    Cl    0.645744 0.576932 0.224648 -0.610726
Cl6   Cl    Cl    0.075612 0.734027 0.152813 -0.553907
Cl7   Cl    Cl    0.563363 0.066398 0.609930 -0.670793
Cl8   Cl    Cl    0.106424 0.322030 0.463524 -0.617070
Cl9   Cl    Cl    0.805226 0.373328 0.361652 -0.675920
Cl10  Cl    Cl    0.507851 0.391837 0.337725 -0.627181
Cl11  Cl    Cl    0.825074 0.166618 0.666866 -0.534895
Cl12  Cl    Cl    0.739695 0.299823 0.255254 -0.461783
Cl13  Cl    Cl    0.484679 0.727738 0.711354 -0.626996
Cl14  Cl    Cl    0.707624 0.255193 0.753418 -0.501405
Cl15  Cl    Cl    0.244843 0.266499 0.758225 -0.516458
Cl16  Cl    Cl    0.112606 0.856749 0.304374 -0.525782
H1    H     H_    0.826286 0.314751 0.663279 0.036733
H2    H     H_    0.647975 0.620760 0.702630 -0.019926
H3    H     H_    0.737320 0.693754 0.680532 0.073272
H4    H     H_    0.981563 0.683279 0.331313 -0.095436
H5    H     H_    0.913109 0.773174 0.354039 -0.029438
H6    H     H_    0.167057 0.733905 0.277371 0.133836
H7    H     H_    0.968376 0.765384 0.264074 0.096235
H8    H     H_    0.664475 0.708748 0.365513 -0.254403
H9    H     H_    0.674718 0.801924 0.304474 0.097541
H10   H     H_    0.509206 0.767428 0.270465 0.181692
H11   H     H_    0.050634 0.372528 0.660255 0.025925
H12   H     H_    0.216360 0.199428 0.354562 0.051312
H13   H     H_    0.689878 0.713107 0.274538 0.099486
H14   H     H_    0.153671 0.477331 0.288891 0.142879
H15   H     H_    0.563734 0.505372 0.751312 0.093159
H16   H     H_    0.364954 0.349745 0.879305 0.207465
H17   H     H_    0.094930 0.347103 0.019640 0.178646
H18   H     H_    0.110563 0.702005 0.977399 0.098272
H19   H     H_    0.249948 0.344623 0.672621 0.017195
H20   H     H_    0.169298 0.701334 0.891166 0.147407
H21   H     H_    0.143603 0.700556 0.055258 0.128671
H22   H     H_    0.848145 0.547179 0.402230 0.062272
H23   H     H_    0.131664 0.664586 0.556413 0.094515
H24   H     H_    0.328489 0.443862 0.612570 0.027943
H25   H     H_    0.708778 0.190984 0.480340 0.117550
H26   H     H_    0.637789 0.949578 0.411799 0.134603
H27   H     H_    0.919561 0.861233 0.443183 0.111686
H28   H     H_    0.302706 0.141957 0.554286 0.141484
H29   H     H_    0.804604 0.650513 0.463895 0.030069
H30   H     H_    0.378725 0.358746 0.534266 0.076945
H31   H     H_    0.998481 0.271325 0.721212 0.173915
H32   H     H_    0.963071 0.155965 0.349718 0.144483
H33   H     H_    0.890874 0.231508 0.390441 0.167265
H34   H     H_    0.187430 0.790705 0.580448 0.082591
H35   H     H_    0.967904 0.243173 0.328613 0.162027
H36   H     H_    0.854022 0.747346 0.607338 0.136391
H37   H     H_    0.929820 0.764161 0.548041 0.037123
H38   H     H_    0.860636 0.678014 0.557043 0.060278
H39   H     H_    0.010340 0.827211 0.650297 0.107870
H40   H     H_    0.207567 0.834014 0.671567 0.179360
H41   H     H_    0.106498 0.760310 0.687658 0.189137
H42   H     H_    0.468071 0.201963 0.319292 0.056684
H43   H     H_    0.412384 0.276866 0.282111 0.179555
H44   H     H_    0.525623 0.200149 0.256313 0.185150
H45   H     H_    0.297102 0.730212 0.617935 0.167339
H46   H     H_    0.503535 0.201853 0.634618 0.064127
H47   H     H_    0.501732 0.165773 0.695448 0.231686
H48   H     H_    0.436792 0.256760 0.686672 0.136452
H49   H     H_    0.009794 0.550232 0.767625 0.096849
H50   H     H_    0.045788 0.626485 0.734826 0.165144
H51   H     H_    0.931096 0.558983 0.706445 0.142605
H52   H     H_    0.429262 0.893249 0.523988 0.133792
H53   H     H_    0.370757 0.806754 0.521849 0.166798
H54   H     H_    0.498880 0.835363 0.571746 0.118945
H55   H     H_    0.836492 0.962462 0.602692 0.185099
H56   H     H_    0.728572 0.221300 0.319107 0.015536
H57   H     H_    0.660351 0.920264 0.609599 0.172634
H58   H     H_    0.811613 0.877581 0.570865 0.068866
H59   H     H_    0.095413 0.419472 0.756016 0.110461
H60   H     H_    0.903027 0.390502 0.745537 0.147463
H61   H     H_    0.018986 0.362230 0.797554 0.190050
H62   H     H_    0.458585 0.057601 0.387670 0.177702
H63   H     H_    0.493340 0.141021 0.420390 0.139329
H64   H     H_    0.650354 0.088705 0.390302 0.115618
H65   H     H_    0.382602 0.257829 0.429172 0.072120
H66   H     H_    0.370140 0.290409 0.368619 0.085405
H67   H     H_    0.676129 0.289945 0.618861 -0.011124
H68   H     H_    0.359166 0.353682 0.422618 0.131305
H69   H     H_    0.456320 0.626055 0.626781 -0.024026
H70   H     H_    0.656672 0.600401 0.613478 0.024035
N1    N     N_R   0.977634 0.520688 0.206824 -0.435597
N2    N     N_R   0.302289 0.524273 0.800129 -0.440788
O1    O     O_2   0.913240 0.537010 0.617740 -0.478533
O2    O     O_2   0.187090 0.749922 0.471508 -0.464545
O3    O     O_3   0.138409 0.739395 0.375745 -0.491744
O4    O     O_3   0.145240 0.536960 0.557560 -0.491382
O5    O     O_3   0.557280 0.416300 0.475860 -0.470771
O6    O     O_2   0.376710 0.670070 0.522470 -0.479548
O7    O     O_3   0.574578 0.702541 0.597777 -0.654088
O8    O     O_2   0.435679 0.535791 0.320267 -0.367988
O9    O     O_3   0.458700 0.671272 0.330129 -0.562970
O10   O     O_2   0.971630 0.402553 0.194685 -0.435087
O11   O     O_2   0.377139 0.407547 0.800050 -0.505369
O12   O     O_3   0.625804 0.294886 0.400405 -0.709971
O13   O     O_2   0.993982 0.638371 0.216238 -0.569593
O14   O     O_2   0.253126 0.643304 0.808190 -0.540502
O15   O     O_3   0.669960 0.410470 0.588880 -0.486391
O16   O     O_2   0.798405 0.455237 0.675971 -0.526971
O17   O     O_3   0.059480 0.649305 0.628145 -0.637602
O18   O     O_3   0.606873 0.358764 0.680025 -0.603026
O19   O     O_2   0.812980 0.329910 0.477500 -0.364251
O20   O     O_3   0.078660 0.374870 0.564770 -0.445467
O21   O     O_2   0.009897 0.242463 0.546951 -0.374258
O22   O     O_3   0.115136 0.266980 0.638342 -0.584810
O23   O     O_2   0.276450 0.462960 0.382230 -0.425897
O24   O     O_3   0.044470 0.462980 0.442430 -0.430134
O25   O     O_3   0.519740 0.589470 0.411120 -0.447826
O26   O     O_3   0.110756 0.349245 0.368713 -0.582051
O27   O     O_3   0.632420 0.583650 0.524140 -0.483764
O28   O     O_3   0.111040 0.625070 0.435230 -0.491540
P1    P     P_3+3 0.082480 0.557670 0.610090 0.977531
P2    P     P_3+3 0.635220 0.340300 0.462910 1.073819
P3    P     P_3+3 0.135135 0.285553 0.575737 1.060327
P4    P     P_3+3 0.107220 0.442270 0.389900 1.162945
P5    P     P_3+3 0.073033 0.716556 0.432614 1.015694
P6    P     P_3+3 0.640951 0.435523 0.652234 0.942143
P7    P     P_3+3 0.556540 0.673097 0.533996 0.933215
P8    P     P_3+3 0.544576 0.589213 0.346524 1.139461

loop_
_geom_bond_atom_site_label_1
_geom_bond_atom_site_label_2
_ccdc_geom_bond_type
C39   Cl6   S    
C53   C54   A    
Ba1   O5    S    
O27   P7    S    
C33   N2    S    
C79   H63   S    
Ba1   O27   S    
C19   C24   A    
Ba1   P2    S    
C75   H52   S    
C69   H35   S    
C67   H8    S    
C66   O12   S    
Ba1   O15   S    
C54   C55   A    
C24   C25   A    
C2    N1    Am   
C60   C65   A    
O2    P5    D    
C17   C19   A    
C22   C24   A    
C32   C33   S    
C35   C38   A    
C67   O9    S    
C77   H60   S    
C36   C37   A    
C55   C57   A    
O24   P4    S    
C71   H39   S    
O17   P1    S    
C54   C63   S    
C81   N1    Am   
C44   C50   A    
O6    P7    D    
C81   O10   D    
C34   H3    S    
Ba2   O24   S    
C62   C75   S    
C1    Cl14  S    
C22   C27   A    
C11   C38   A    
C17   C35   A    
Ba2   O5    S    
C69   H33   S    
C3    Cl5   S    
C9    C13   A    
C25   C42   A    
C15   H24   S    
O18   P6    S    
C16   C77   S    
C61   P7    S    
C78   H10   S    
C68   C72   S    
C21   C22   A    
O1    P1    D    
C59   H27   S    
Ba2   O6    S    
C12   H67   S    
O9    P8    S    
C1    C73   S    
C7    C8    S    
C29   H15   S    
C50   P3    S    
C37   C43   A    
C75   H54   S    
Ba1   O19   S    
C52   H23   S    
C57   C58   A    
C6    C14   D    
C52   O17   S    
C4    H11   S    
O16   P6    D    
C15   C31   D    
C77   H59   S    
C79   H64   S    
C75   H53   S    
C51   C58   A    
C48   C49   A    
C44   C46   A    
C80   H68   S    
C51   C53   A    
C23   H69   S    
C4    C16   S    
C44   H30   S    
C61   C65   A    
C45   H4    S    
C73   H47   S    
C56   Cl16  S    
C68   H56   S    
O12   P2    S    
C17   C20   A    
C40   Cl1   S    
C13   C39   A    
C5    P8    S    
C27   O11   D    
C77   H61   S    
C3    C5    S    
C53   C76   S    
C23   O7    S    
C6    C7    D    
C70   H36   S    
C71   H40   S    
C42   H20   S    
C73   H48   S    
C64   C71   S    
C21   H16   S    
C46   P2    S    
C73   H46   S    
O22   P3    S    
C49   C50   A    
C10   C81   A    
C34   H2    S    
Ba2   O23   S    
C28   C80   S    
C9    C36   A    
C14   H22   S    
C35   C36   A    
Ba2   O4    S    
C64   H34   S    
C34   Cl13  S    
C76   H58   S    
C29   C30   S    
O8    P8    D    
C74   H51   S    
C78   H13   S    
O3    P5    S    
C31   C32   D    
C52   C70   S    
C20   Cl4   S    
C2    O13   D    
C60   P5    S    
C1    C12   S    
C41   H18   S    
Ba1   O20   S    
C43   H21   S    
C66   C68   S    
C70   H38   S    
O20   P3    S    
C72   H42   S    
O7    P7    S    
C41   C42   A    
C5    C14   S    
O28   P5    S    
C29   C33   D    
C16   H31   S    
C72   H44   S    
C25   C26   A    
C18   C41   A    
C67   Cl2   S    
C23   H70   S    
C12   O18   S    
Ba1   O4    S    
O21   P3    D    
C45   H5    S    
O15   P6    S    
Ba1   O24   S    
C27   N2    Am   
Ba2   O27   S    
C79   H62   S    
O5    P2    S    
C6    P4    S    
C76   H55   S    
Ba2   P4    S    
C57   C79   S    
C11   Cl3   S    
C28   Cl8   S    
C9    C10   A    
O19   P2    D    
C12   H1    S    
C52   C64   S    
C71   H41   S    
C8    N1    S    
C78   H9    S    
Ba1   O1    S    
C66   Cl10  S    
C31   P1    S    
C26   N2    Am   
C48   C58   S    
C62   C63   A    
C56   H6    S    
O25   P8    S    
C68   Cl12  S    
C18   C37   A    
C7    H14   S    
C3    C8    D    
C49   H28   S    
C26   O14   D    
C45   C56   S    
C55   H26   S    
C47   H25   S    
C76   H57   S    
C38   H17   S    
C80   H65   S    
C74   H50   S    
C2    C13   A    
C46   C47   A    
O23   P4    D    
Ba1   Ba2   S    
C80   H66   S    
C40   C69   S    
C66   Cl9   S    
O26   P4    S    
C1    Cl11  S    
Ba2   O25   S    
C40   H12   S    
C72   H43   S    
C59   C60   A    
O4    P1    S    
C45   O3    S    
C70   H37   S    
C23   C34   S    
C69   H32   S    
C61   C62   A    
Ba1   P1    S    
C59   C63   A    
C28   O26   S    
C64   H45   S    
C10   C11   A    
C74   H49   S    
C18   C19   A    
C47   C48   A    
C51   Cl7   S    
C15   C30   S    
C39   C43   A    
C20   C21   A    
C28   C40   S    
C67   C78   S    
C16   Cl15  S    
C56   H7    S    
C30   P6    S    
C65   H29   S    
C4    H19   S    
C4    O22   S    
C32   C74   S    
Ba2   O28   S    
