data_mof_unit_17021.cif
_audit_creation_date              2012-10-26T18:54:15-0400
_audit_creation_method            fapswitch 2.2
_symmetry_space_group_name_H-M    P1
_symmetry_Int_Tables_number       1
_space_group_crystal_system       triclinic
_cell_length_a                    14.661336
_cell_length_b                    14.758434
_cell_length_c                    23.572876
_cell_angle_alpha                 76.646334
_cell_angle_beta                  103.2154
_cell_angle_gamma                 115.489832
_cell_volume                      4430.93544376

loop_
_atom_site_label
_atom_site_type_symbol
_atom_type_description
_atom_site_fract_x
_atom_site_fract_y
_atom_site_fract_z
_atom_type_partial_charge
C1    C     C_R   0.879151 0.312062 0.512138 0.547068
C2    C     C_R   0.086994 0.562414 0.302646 0.194238
C3    C     C_R   0.038717 0.437684 0.775252 -0.062273
C4    C     C_R   0.088592 0.558583 0.244216 -0.058717
C5    C     C_R   0.999555 0.498166 0.791214 0.135873
C6    C     C_R   0.000728 0.498265 0.210222 0.135061
C7    C     C_R   0.809308 0.205385 0.528659 -0.007595
C8    C     C_R   0.189732 0.794583 0.498356 -0.008781
C9    C     C_R   0.784869 0.032178 0.571983 -0.155794
C10   C     C_R   0.213026 0.963362 0.508666 -0.155247
C11   C     C_R   0.849026 0.131469 0.552984 -0.197159
C12   C     C_R   0.120727 0.688030 0.492145 0.542097
C13   C     C_R   0.149103 0.865703 0.496666 -0.198359
C14   C     C_R   0.702886 0.178594 0.524014 0.234597
C15   C     C_R   0.296708 0.823219 0.511841 0.255070
C16   C     C_R   0.998828 0.498574 0.608979 0.565429
C17   C     C_R   0.999684 0.499311 0.391325 0.603904
C18   C     C_R   0.638470 0.079893 0.547881 0.029062
C19   C     C_R   0.360607 0.918147 0.530546 0.039217
C20   C     C_R   0.680021 0.005358 0.568575 0.007426
C21   C     C_R   0.318413 0.990532 0.524869 0.007647
C22   C     C_R   0.532003 0.050430 0.546941 0.020985
C23   C     C_R   0.957356 0.556636 0.746995 -0.060759
C24   C     C_R   0.466977 0.946268 0.550135 0.027863
C25   C     C_R   0.510380 0.874401 0.574189 -0.104755
C26   C     C_R   0.488075 0.120148 0.543967 -0.111539
C27   C     C_R   0.615808 0.904152 0.584542 -0.148346
C28   C     C_R   0.382502 0.089798 0.534487 -0.147832
C29   C     C_R   0.706367 0.653006 0.394206 -0.161078
C30   C     C_R   0.290178 0.341314 0.603445 -0.156745
C31   C     C_R   0.792535 0.631013 0.413357 0.033615
C32   C     C_R   0.207389 0.369047 0.586626 0.048556
C33   C     C_R   0.716211 0.511340 0.493110 0.061431
C34   C     C_R   0.912318 0.438053 0.236250 -0.066296
C35   C     C_R   0.281574 0.484405 0.505163 0.060160
C36   C     C_R   0.625965 0.530123 0.475960 -0.002444
C37   C     C_R   0.368378 0.459673 0.519829 0.004351
C38   C     C_R   0.622628 0.602402 0.425040 0.033339
C39   C     C_R   0.371174 0.386716 0.570441 0.036246
C40   C     C_R   0.031370 0.589380 0.111701 0.422334
C41   C     C_R   0.957815 0.407147 0.888185 0.423211
C42   C     C_R   0.539771 0.480296 0.507087 0.024354
C43   C     C_R   0.452366 0.505416 0.486996 0.021396
C44   C     C_R   0.451810 0.575162 0.434758 -0.144545
C45   C     C_R   0.958757 0.559149 0.687538 0.186266
C46   C     C_R   0.537927 0.406313 0.557505 -0.135388
C47   C     C_R   0.535576 0.623069 0.404817 -0.132443
C48   C     C_R   0.454920 0.360118 0.588110 -0.134078
C49   C     C_R   0.970768 0.408543 0.129004 0.400435
C50   C     C_R   0.041383 0.588044 0.874053 0.402746
C51   C     C_R   0.966986 0.406741 0.069334 0.010249
C52   C     C_R   0.039492 0.589867 0.932936 0.010086
C53   C     C_R   0.001245 0.498926 0.030781 -0.066444
C54   C     C_R   0.000524 0.497676 0.970841 -0.066479
C55   C     C_R   0.036159 0.592136 0.052092 0.070621
C56   C     C_R   0.912715 0.434236 0.296294 0.194621
C57   C     C_R   0.960889 0.404443 0.948880 0.071234
C58   C     C_R   0.930135 0.314501 0.047801 -0.120696
C59   C     C_R   0.076374 0.682108 0.954482 -0.119479
C60   C     C_R   0.925557 0.312255 0.988202 0.091117
C61   C     C_R   0.074061 0.684330 0.013126 0.091276
C62   C     C_3   0.990813 0.716710 0.635168 0.010123
C63   C     C_3   0.944464 0.780486 0.587776 -0.361972
C64   C     C_3   0.814276 0.266767 0.326268 -0.016309
C65   C     C_3   0.709302 0.207282 0.294287 -0.379429
C66   C     C_3   0.968895 0.269913 0.698979 -0.003943
C67   C     C_R   0.997025 0.496975 0.671486 0.005325
C68   C     C_3   0.997453 0.182065 0.699422 -0.366506
C69   C     C_3   0.161507 0.726631 0.320032 -0.018862
C70   C     C_3   0.247746 0.804769 0.286885 -0.380981
C71   C     C_3   0.358533 0.785868 0.443097 -0.014691
C72   C     C_3   0.471717 0.818482 0.441477 -0.391382
C73   C     C_3   0.627893 0.232535 0.434995 -0.005700
C74   C     C_3   0.582225 0.308488 0.402170 -0.342051
C75   C     C_R   0.999646 0.498622 0.329281 0.019237
C76   C     C_R   0.032791 0.432536 0.715981 0.195532
Cu1   Cu    Cu3+1 0.081740 0.475680 0.515360 0.980435
Cu2   Cu    Cu3+1 0.918260 0.524320 0.484640 0.968394
H1    H     H_    0.903465 0.242987 0.077068 0.159518
H2    H     H_    0.725452 0.457079 0.530697 0.152895
H3    H     H_    0.145240 0.335180 0.612128 0.159753
H4    H     H_    0.856888 0.668895 0.389250 0.127402
H5    H     H_    0.704850 0.708583 0.355262 0.097209
H6    H     H_    0.291219 0.285329 0.642240 0.100469
H7    H     H_    0.387282 0.594408 0.415450 0.114815
H8    H     H_    0.599660 0.381925 0.574690 0.109597
H9    H     H_    0.923786 0.601092 0.758726 0.162407
H10   H     H_    0.843582 0.392501 0.210124 0.158180
H11   H     H_    0.070117 0.390914 0.808978 0.167962
H12   H     H_    0.106522 0.753629 0.925701 0.160223
H13   H     H_    0.157521 0.605092 0.224769 0.159464
H14   H     H_    0.646791 0.846888 0.602119 0.117725
H15   H     H_    0.351229 0.145338 0.532078 0.117098
H16   H     H_    0.067644 0.845947 0.485923 0.132927
H17   H     H_    0.929986 0.150205 0.556999 0.132062
H18   H     H_    0.931209 0.176266 0.992725 0.229331
H19   H     H_    0.812085 0.174549 0.978287 0.233100
H20   H     H_    0.070276 0.821676 0.006592 0.233644
H21   H     H_    0.188335 0.820679 0.025448 0.227231
H22   H     H_    0.057020 0.716707 0.619477 0.135305
H23   H     H_    0.817285 0.975913 0.589007 0.115474
H24   H     H_    0.018079 0.752519 0.675980 0.141674
H25   H     H_    0.002781 0.859019 0.579196 0.087575
H26   H     H_    0.917097 0.746925 0.546322 0.174602
H27   H     H_    0.879089 0.783361 0.602460 0.151894
H28   H     H_    0.818990 0.232505 0.373449 0.129491
H29   H     H_    0.873199 0.256807 0.308386 0.142113
H30   H     H_    0.704727 0.236570 0.246380 0.160386
H31   H     H_    0.695858 0.125805 0.300784 0.101684
H32   H     H_    0.648743 0.214323 0.311625 0.145263
H33   H     H_    0.916525 0.277686 0.657501 0.133895
H34   H     H_    0.179917 0.017690 0.505480 0.118249
H35   H     H_    0.927268 0.249586 0.737278 0.152288
H36   H     H_    0.053200 0.175448 0.739215 0.167206
H37   H     H_    0.927979 0.110135 0.700005 0.111859
H38   H     H_    0.031146 0.193572 0.659474 0.130463
H39   H     H_    0.168262 0.751770 0.362221 0.129787
H40   H     H_    0.087078 0.725836 0.294103 0.134172
H41   H     H_    0.237605 0.785400 0.242444 0.175854
H42   H     H_    0.247172 0.881213 0.281852 0.107556
H43   H     H_    0.322661 0.806585 0.311355 0.142687
H44   H     H_    0.334458 0.846467 0.415274 0.105391
H45   H     H_    0.463573 0.794987 0.586217 0.180111
H46   H     H_    0.315500 0.716216 0.422352 0.184030
H47   H     H_    0.501069 0.765358 0.473256 0.178039
H48   H     H_    0.483231 0.818783 0.396479 0.093843
H49   H     H_    0.515653 0.896381 0.452647 0.149364
H50   H     H_    0.568105 0.154608 0.431492 0.119374
H51   H     H_    0.692792 0.244478 0.413422 0.159160
H52   H     H_    0.642209 0.386814 0.400850 0.187822
H53   H     H_    0.550227 0.293185 0.356245 0.101361
H54   H     H_    0.520231 0.302129 0.424495 0.153539
H55   H     H_    0.534221 0.197642 0.551106 0.169999
H56   H     H_    0.532072 0.677034 0.365289 0.111518
H57   H     H_    0.456954 0.303750 0.626576 0.114926
H58   H     H_    0.273284 0.539706 0.468034 0.143006
N1    N     N_R   0.001038 0.498740 0.148997 -0.396559
N2    N     N_R   0.999743 0.497779 0.852497 -0.397023
N3    N     N_R   0.795430 0.560810 0.461550 -0.241819
N4    N     N_R   0.204570 0.439190 0.538450 -0.238428
N5    N     N_3   0.886608 0.215665 0.968606 -0.550686
N6    N     N_3   0.112283 0.780912 0.032628 -0.553973
O1    O     O_R   0.977900 0.338110 0.520250 -0.527045
O2    O     O_2   0.911902 0.320326 0.864605 -0.468654
O3    O     O_2   0.945179 0.320599 0.166921 -0.524053
O4    O     O_2   0.085400 0.676023 0.838680 -0.517896
O5    O     O_3   0.915739 0.617238 0.645237 -0.543415
O6    O     O_3   0.827625 0.368934 0.322710 -0.556611
O7    O     O_3   0.058061 0.360757 0.702274 -0.551064
O8    O     O_3   0.169979 0.631537 0.333076 -0.579554
O9    O     O_3   0.339492 0.761729 0.502216 -0.565491
O10   O     O_3   0.661896 0.248311 0.494344 -0.574255
O11   O     O_R   0.022100 0.661890 0.479750 -0.531688
O12   O     O_R   0.839850 0.379180 0.494310 -0.447646
O13   O     O_R   0.160150 0.620820 0.505690 -0.449119
O14   O     O_R   0.069020 0.479430 0.595090 -0.470760
O15   O     O_R   0.930980 0.520570 0.404910 -0.486930
O16   O     O_R   0.930970 0.520500 0.569150 -0.474286
O17   O     O_R   0.069030 0.479500 0.430850 -0.493039
O18   O     O_2   0.055153 0.676145 0.132206 -0.471102

loop_
_geom_bond_atom_site_label_1
_geom_bond_atom_site_label_2
_ccdc_geom_bond_type
C2    O8    S    
C66   C68   S    
C34   C56   A    
C8    C13   A    
C23   C45   A    
C66   H35   S    
C74   H54   S    
C73   C74   S    
C14   C18   A    
H21   N6    S    
C36   C42   A    
Cu1   N4    S    
C12   O11   A    
Cu2   N3    S    
C15   O9    S    
C5    N2    S    
Cu1   Cu2   S    
C15   C19   A    
C32   H3    S    
C31   H4    S    
C69   O8    S    
C35   C37   A    
C29   H5    S    
C49   N1    A    
Cu1   O17   S    
Cu1   O14   S    
C35   N4    A    
C58   C60   A    
C69   H40   S    
C33   C36   A    
C9    H23   S    
C42   C46   A    
C71   H44   S    
H18   N5    S    
Cu2   O16   S    
C7    C14   A    
C71   O9    S    
C70   H42   S    
C49   C51   A    
C29   C38   A    
C45   C67   A    
C50   C52   A    
C10   H34   S    
C66   H33   S    
C63   H27   S    
C17   O15   A    
C65   H30   S    
C44   C47   A    
C4    H13   S    
C50   O4    S    
C56   C75   A    
C45   O5    S    
C74   H53   S    
C64   O6    S    
C1    O12   A    
C52   C54   A    
C46   C48   A    
C53   C55   A    
C10   C21   A    
C73   H51   S    
C59   C61   A    
C72   H49   S    
C16   O16   A    
C73   O10   S    
C71   H46   S    
C24   C25   A    
C41   O2    S    
C63   H25   S    
C16   C67   S    
Cu2   O12   S    
C57   C60   A    
C53   C54   A    
C6    C34   A    
C72   H48   S    
C28   H15   S    
C51   C53   A    
C59   H12   S    
C56   O6    S    
C7    C11   A    
C43   C44   A    
Cu1   O1    S    
C16   O14   A    
C62   C63   S    
C1    O1    A    
C52   C59   A    
C60   N5    S    
C9    C11   A    
C9    C20   A    
C5    C23   A    
C70   H41   S    
C8    C12   S    
C40   C55   A    
H19   N5    S    
C40   N1    A    
C38   C47   A    
C48   H57   S    
C49   O3    S    
C27   H14   S    
Cu2   O11   S    
C51   C58   A    
C34   H10   S    
C3    C76   A    
C25   H45   S    
C65   H31   S    
C41   N2    A    
C58   H1    S    
C66   O7    S    
C62   H22   S    
C4    C6    A    
C21   C28   A    
C68   H38   S    
C8    C15   A    
C62   O5    S    
C74   H52   S    
C47   H56   S    
C22   C24   A    
C37   C43   A    
C42   C43   A    
C12   O13   A    
C31   N3    A    
C44   H7    S    
Cu2   O15   S    
C64   H29   S    
C11   H17   S    
C19   C21   A    
C1    C7    S    
C40   O18   S    
C63   H26   S    
C3    C5    A    
C10   C13   A    
C35   H58   S    
C50   N2    A    
C33   H2    S    
C64   H28   S    
C20   C27   A    
C25   C27   A    
C73   H50   S    
C72   H47   S    
C26   C28   A    
C13   H16   S    
C3    H11   S    
C64   C65   S    
C6    N1    S    
C18   C22   A    
C19   C24   A    
C41   C57   A    
C71   C72   S    
C29   C31   A    
C26   H55   S    
Cu1   O13   S    
C36   C38   A    
C30   C32   A    
C70   H43   S    
C76   O7    S    
C33   N3    A    
C2    C4    A    
C55   C61   A    
C69   H39   S    
C30   C39   A    
C18   C20   A    
C32   N4    A    
C30   H6    S    
C69   C70   S    
C17   O17   A    
C65   H32   S    
C68   H37   S    
C61   N6    S    
C37   C39   A    
C22   C26   A    
C14   O10   S    
C17   C75   S    
C23   H9    S    
C67   C76   A    
C62   H24   S    
H20   N6    S    
C2    C75   A    
C68   H36   S    
C39   C48   A    
C46   H8    S    
C54   C57   A    
