data_mof_unit_44250.cif
_audit_creation_date              2012-12-11T16:44:20-0500
_audit_creation_method            fapswitch 2.2
_symmetry_space_group_name_H-M    P1
_symmetry_Int_Tables_number       1
_space_group_crystal_system       triclinic
_cell_length_a                    27.082699
_cell_length_b                    7.203273
_cell_length_c                    22.818874
_cell_angle_alpha                 89.549243
_cell_angle_beta                  101.539133
_cell_angle_gamma                 89.487672
_cell_volume                      4361.23838509

loop_
_atom_site_label
_atom_site_type_symbol
_atom_type_description
_atom_site_fract_x
_atom_site_fract_y
_atom_site_fract_z
_atom_type_partial_charge
O1    O     O_R   0.707300 0.594030 0.176840 -0.531474
O2    O     O_R   0.292700 0.405970 0.823160 -0.531474
O3    O     O_R   0.792700 0.094030 0.323160 -0.532237
O4    O     O_R   0.207300 0.905970 0.676840 -0.532244
O5    O     O_R   0.697330 0.262360 0.295660 -0.539485
O6    O     O_R   0.302670 0.737640 0.704340 -0.539484
O7    O     O_R   0.802670 0.762360 0.204340 -0.538819
O8    O     O_R   0.197330 0.237640 0.795660 -0.538820
C1    C     C_R   0.685042 0.432643 0.312139 0.684152
C2    C     C_R   0.314958 0.567357 0.687860 0.684146
C3    C     C_R   0.814958 0.932430 0.187810 0.688589
C4    C     C_R   0.185043 0.067570 0.812191 0.688587
O9    O     O_R   0.701410 0.264250 0.175600 -0.534367
O10   O     O_R   0.298590 0.735750 0.824400 -0.534366
O11   O     O_R   0.798590 0.764250 0.324400 -0.534548
O12   O     O_R   0.201410 0.235750 0.675600 -0.534554
O13   O     O_R   0.796800 0.094950 0.202240 -0.539277
O14   O     O_R   0.203200 0.905050 0.797760 -0.539278
O15   O     O_R   0.703200 0.594950 0.297760 -0.539212
O16   O     O_R   0.296800 0.405050 0.702240 -0.539212
C5    C     C_R   0.689852 0.433508 0.153381 0.695007
C6    C     C_R   0.310148 0.566491 0.846619 0.695008
C7    C     C_R   0.810269 0.930740 0.346851 0.697085
C8    C     C_R   0.189730 0.069259 0.653151 0.697110
O17   O     O_3   0.781290 0.427390 0.258880 -0.372262
O18   O     O_3   0.218710 0.572610 0.741120 -0.372263
O19   O     O_3   0.718710 0.927390 0.241120 -0.371958
O20   O     O_3   0.281290 0.072610 0.758880 -0.371957
V1    V     V_3+5 0.744190 0.152150 0.248350 1.417587
V2    V     V_3+5 0.255810 0.847850 0.751650 1.417581
V3    V     V_3+5 0.755810 0.652150 0.251650 1.421676
V4    V     V_3+5 0.244190 0.347850 0.748350 1.421666
C9    C     C_R   0.154488 0.075339 0.594368 -0.087985
C10   C     C_R   0.845507 0.924657 0.405636 -0.088018
C11   C     C_R   0.344666 0.558583 0.905456 -0.076302
C12   C     C_R   0.655334 0.441415 0.094544 -0.076301
C13   C     C_R   0.131029 0.237844 0.498681 0.169972
C14   C     C_R   0.868960 0.762305 0.501311 0.169850
C15   C     C_R   0.358237 0.607093 0.012780 0.166431
C16   C     C_R   0.641760 0.392865 0.987222 0.166423
C17   C     C_R   0.166830 0.188115 0.549615 -0.156600
C18   C     C_R   0.833159 0.812031 0.450383 -0.156414
C19   C     C_R   0.326593 0.607195 0.956089 -0.163161
C20   C     C_R   0.673405 0.392770 0.043913 -0.163163
C21   C     C_R   0.106359 0.996945 0.585495 -0.191520
C22   C     C_R   0.893636 0.002962 0.414522 -0.191612
C23   C     C_R   0.396012 0.520453 0.910371 -0.199025
C24   C     C_R   0.603989 0.479568 0.089629 -0.199029
C25   C     C_R   0.068676 0.044163 0.534120 0.056220
C26   C     C_R   0.931312 0.955822 0.465902 0.056161
C27   C     C_R   0.430210 0.526614 0.966496 0.042838
C28   C     C_R   0.569790 0.473395 0.033504 0.042838
C29   C     C_R   0.079973 0.183201 0.493957 0.081261
C30   C     C_R   0.920012 0.816896 0.506057 0.081456
C31   C     C_R   0.410026 0.552423 0.019259 0.070658
C32   C     C_R   0.589973 0.447563 0.980742 0.070667
C33   C     C_R   0.019384 0.964234 0.523279 0.054769
C34   C     C_R   0.980601 0.035757 0.476751 0.054758
C35   C     C_R   0.483751 0.506181 0.971429 0.029092
C36   C     C_R   0.516250 0.493834 0.028571 0.029086
C37   C     C_R   0.991318 0.192170 0.444556 -0.164208
C38   C     C_R   0.008661 0.807903 0.555487 -0.164111
C39   C     C_R   0.494065 0.492466 0.079248 -0.189522
C40   C     C_R   0.505936 0.507545 0.920752 -0.189528
C41   C     C_R   0.039474 0.266535 0.452745 0.153462
C42   C     C_R   0.960504 0.733650 0.547297 0.153459
C43   C     C_R   0.442579 0.520881 0.075604 0.149138
C44   C     C_R   0.557421 0.479111 0.924396 0.149131
H1    H     H_    0.902106 0.087080 0.378516 0.116836
H2    H     H_    0.097898 0.912722 0.621514 0.116771
H3    H     H_    0.592026 0.515341 0.130455 0.109452
H4    H     H_    0.407976 0.484702 0.869544 0.109448
H5    H     H_    0.795148 0.758992 0.444883 0.113580
H6    H     H_    0.204841 0.241247 0.555103 0.113628
H7    H     H_    0.712760 0.352765 0.048926 0.107568
H8    H     H_    0.287235 0.647175 0.951076 0.107565
H9    H     H_    0.961767 0.266229 0.414462 0.153606
H10   H     H_    0.038202 0.733884 0.585599 0.153615
H11   H     H_    0.515973 0.461593 0.123085 0.153891
H12   H     H_    0.484030 0.538423 0.876913 0.153888
C45   C     C_R   0.858346 0.111921 0.118142 -0.151937
C46   C     C_R   0.141650 0.888068 0.881852 -0.151944
C47   C     C_R   0.641426 0.611202 0.381693 -0.151314
C48   C     C_R   0.358573 0.388798 0.618307 -0.151323
H13   H     H_    0.834696 0.230695 0.122929 0.125338
H14   H     H_    0.165292 0.769284 0.877054 0.125335
H15   H     H_    0.665001 0.728863 0.376943 0.125226
H16   H     H_    0.334998 0.271137 0.623057 0.125226
C49   C     C_R   0.893754 0.128303 0.080970 0.183335
C50   C     C_R   0.106246 0.871691 0.919031 0.183302
C51   C     C_R   0.605980 0.627598 0.418840 0.184160
C52   C     C_R   0.394020 0.372401 0.581160 0.184158
C53   C     C_R   0.924797 0.974331 0.074046 0.074835
C54   C     C_R   0.075214 0.025677 0.925968 0.074824
C55   C     C_R   0.575057 0.474986 0.425727 0.076021
C56   C     C_R   0.424943 0.525013 0.574273 0.076020
C57   C     C_R   0.919811 0.808402 0.105052 -0.179516
C58   C     C_R   0.080204 0.191615 0.894970 -0.179505
C59   C     C_R   0.580141 0.310503 0.394661 -0.172818
C60   C     C_R   0.419860 0.689496 0.605339 -0.172820
H17   H     H_    0.943697 0.689972 0.100796 0.130974
H18   H     H_    0.056325 0.310053 0.899236 0.130979
H19   H     H_    0.556334 0.193203 0.398877 0.132370
H20   H     H_    0.443667 0.806795 0.601124 0.132370
C61   C     C_R   0.884004 0.792978 0.141461 -0.163477
C62   C     C_R   0.116007 0.207035 0.858556 -0.163480
C63   C     C_R   0.615973 0.295002 0.358282 -0.163066
C64   C     C_R   0.384028 0.704997 0.641718 -0.163069
H21   H     H_    0.881107 0.662655 0.164451 0.138136
H22   H     H_    0.118909 0.337367 0.835573 0.138132
H23   H     H_    0.618958 0.165742 0.335268 0.137608
H24   H     H_    0.381043 0.834257 0.664733 0.137609
C65   C     C_R   0.852907 0.944836 0.148682 -0.086242
C66   C     C_R   0.147095 0.055163 0.851322 -0.086232
C67   C     C_R   0.647007 0.445411 0.351155 -0.086288
C68   C     C_R   0.352993 0.554589 0.648845 -0.086289
C69   C     C_R   0.014824 0.975075 0.061923 -0.153206
C70   C     C_R   0.985188 0.024927 0.938093 -0.153198
C71   C     C_R   0.485097 0.479788 0.438066 -0.146415
C72   C     C_R   0.514903 0.520208 0.561935 -0.146412
H25   H     H_    0.026816 0.957275 0.109852 0.126413
H26   H     H_    0.973195 0.042728 0.890164 0.126432
H27   H     H_    0.473041 0.465619 0.390128 0.137902
H28   H     H_    0.526959 0.534377 0.609873 0.137904
C73   C     C_R   0.051228 0.990501 0.026347 -0.140390
C74   C     C_R   0.948784 0.009500 0.973668 -0.140370
C75   C     C_R   0.448766 0.494704 0.473775 -0.139318
C76   C     C_R   0.551234 0.505291 0.526226 -0.139311
H29   H     H_    0.090773 0.984408 0.047408 0.119908
H30   H     H_    0.909239 0.015595 0.952609 0.119923
H31   H     H_    0.409208 0.491950 0.452805 0.122940
H32   H     H_    0.590793 0.508044 0.547196 0.122949
C77   C     C_R   0.036716 0.014445 0.964079 0.086643
C78   C     C_R   0.963295 0.985561 0.035937 0.086656
C79   C     C_R   0.463367 0.513913 0.536059 0.081055
C80   C     C_R   0.536633 0.486085 0.463941 0.081053
I1    I     I_    0.040929 0.533741 0.411700 -0.455109
I2    I     I_    0.959035 0.466768 0.588422 -0.455099
I3    I     I_    0.420498 0.472201 0.159260 -0.436761
I4    I     I_    0.579509 0.527787 0.840742 -0.436737
C81   C     C_3   0.150515 0.333364 0.448975 -0.721660
H33   H     H_    0.189365 0.284317 0.447929 0.194790
H34   H     H_    0.127339 0.299001 0.404662 0.235094
H35   H     H_    0.151801 0.485649 0.456154 0.235717
C82   C     C_3   0.849484 0.666887 0.550981 -0.722072
H36   H     H_    0.810602 0.715627 0.551934 0.194851
H37   H     H_    0.848290 0.514691 0.543879 0.235885
H38   H     H_    0.872609 0.701536 0.595289 0.235142
C83   C     C_3   0.335980 0.686905 0.062729 -0.708071
H39   H     H_    0.302483 0.776021 0.045194 0.192706
H40   H     H_    0.323207 0.573506 0.089080 0.236870
H41   H     H_    0.363526 0.777999 0.091230 0.238804
C84   C     C_3   0.664010 0.312998 0.937277 -0.708068
H42   H     H_    0.697497 0.223852 0.954819 0.192719
H43   H     H_    0.636456 0.221928 0.908775 0.238801
H44   H     H_    0.676793 0.426362 0.910923 0.236873
C85   C     C_3   0.898864 0.311872 0.050675 -0.802991
H45   H     H_    0.874534 0.421037 0.064653 0.205424
H46   H     H_    0.938517 0.358859 0.062352 0.216080
H47   H     H_    0.887611 0.297866 0.001474 0.213367
C86   C     C_3   0.101130 0.688122 0.949318 -0.802764
H48   H     H_    0.125463 0.578924 0.935333 0.205375
H49   H     H_    0.112386 0.702126 0.998530 0.213326
H50   H     H_    0.061465 0.641170 0.937635 0.216052
C87   C     C_3   0.600711 0.809800 0.449169 -0.799913
H51   H     H_    0.625027 0.918322 0.435291 0.204614
H52   H     H_    0.561022 0.859726 0.437409 0.217551
H53   H     H_    0.611895 0.792443 0.498382 0.213619
C88   C     C_3   0.399291 0.190198 0.550833 -0.799903
H54   H     H_    0.374973 0.081678 0.564710 0.204612
H55   H     H_    0.388109 0.207554 0.501618 0.213612
H56   H     H_    0.438980 0.140272 0.562596 0.217549

loop_
_geom_bond_atom_site_label_1
_geom_bond_atom_site_label_2
_ccdc_geom_bond_type
O17   V3    S    
C59   H19   S    
O1    C5    A    
C87   H51   S    
O19   V1    S    
C9    C21   A    
C88   H54   S    
O12   C8    A    
O3    C7    A    
C45   C49   A    
C10   C18   A    
O1    V3    S    
O15   V3    S    
C82   H38   S    
C82   H36   S    
C25   C33   A    
C33   C38   A    
C5    C12   S    
C39   H11   S    
O7    C3    A    
C6    C11   S    
C35   C40   A    
C85   H45   S    
C13   C81   S    
C62   C66   A    
C36   C39   A    
C40   C44   A    
C61   C65   A    
C75   C79   A    
C14   C18   A    
C83   H40   S    
C62   H22   S    
O4    C8    A    
C55   C59   A    
C54   C58   A    
C73   C77   A    
C52   C56   A    
C54   C77   S    
O13   V1    S    
O2    V4    S    
C70   H26   S    
O3    V1    S    
C69   H25   S    
O12   V4    S    
C22   H1    S    
C28   C36   A    
C86   H49   S    
C17   H6    S    
C72   H28   S    
C1    O15   A    
C60   H20   S    
C15   C31   A    
C2    O16   A    
C16   C32   A    
C42   I2    S    
O2    C6    A    
C10   C22   A    
C84   H43   S    
C11   C19   A    
C16   C20   A    
O5    V1    S    
C45   H13   S    
C13   C29   A    
C34   C37   A    
O11   C7    A    
C11   C23   A    
C35   C36   A    
C48   C68   A    
C13   C17   A    
C40   H12   S    
C59   C63   A    
O10   V2    S    
C69   C78   A    
C76   H32   S    
C82   H37   S    
C51   C87   S    
C50   C54   A    
C56   C79   S    
C4    C66   S    
C39   C43   A    
C60   C64   A    
O7    V3    S    
C38   C42   A    
C50   C86   S    
O8    V4    S    
C47   C67   A    
C46   C66   A    
C53   C78   S    
C81   H35   S    
C37   H9    S    
O18   V4    S    
C15   C19   A    
C32   C44   A    
O4    V2    S    
C64   H24   S    
C81   H34   S    
C26   C34   A    
C85   H46   S    
C20   H7    S    
C14   C82   S    
O5    C1    A    
C37   C41   A    
C31   C43   A    
C14   C30   A    
C21   C25   A    
C52   C88   S    
O8    C4    A    
C7    C10   S    
C29   C41   A    
O9    C5    A    
C26   C30   A    
C84   H44   S    
C49   C85   S    
C63   C67   A    
C70   C77   A    
O14   V2    S    
O6    V2    S    
C87   H53   S    
C88   H56   S    
C16   C84   S    
C83   H41   S    
C27   C35   A    
C24   H3    S    
C45   C65   A    
C44   I4    S    
C53   C57   A    
C86   H50   S    
C43   I3    S    
C15   C83   S    
O16   V4    S    
O9    V1    S    
C19   H8    S    
C61   H21   S    
C3    O13   A    
C18   H5    S    
C21   H2    S    
C63   H23   S    
C57   C61   A    
C38   H10   S    
C48   H16   S    
C46   C50   A    
C47   H15   S    
O6    C2    A    
C23   C27   A    
C72   C76   A    
O11   V3    S    
C30   C42   A    
C1    C67   S    
C71   H27   S    
C85   H47   S    
C47   C51   A    
C22   C26   A    
C8    C9    S    
C58   C62   A    
C72   C79   A    
C9    C17   A    
O10   C6    A    
C76   C80   A    
C41   I1    S    
C70   C74   A    
C58   H18   S    
C81   H33   S    
C71   C80   A    
C46   H14   S    
C64   C68   A    
C33   C34   A    
C86   H48   S    
C25   C29   A    
C56   C60   A    
O20   V2    S    
C55   C80   S    
C12   C24   A    
C27   C31   A    
C49   C53   A    
C3    C65   S    
C2    C68   S    
C75   H31   S    
C23   H4    S    
C12   C20   A    
C51   C55   A    
C73   H29   S    
C24   C28   A    
C74   C78   A    
C87   H52   S    
C4    O14   A    
C74   H30   S    
C48   C52   A    
C84   H42   S    
C83   H39   S    
C69   C73   A    
C57   H17   S    
C28   C32   A    
C88   H55   S    
C71   C75   A    
