data_mof_unit_60305.cif
_audit_creation_date              2012-12-10T20:00:28-0500
_audit_creation_method            fapswitch 2.2
_symmetry_space_group_name_H-M    P1
_symmetry_Int_Tables_number       1
_space_group_crystal_system       triclinic
_cell_length_a                    14.959856
_cell_length_b                    14.151982
_cell_length_c                    15.839828
_cell_angle_alpha                 90.000976
_cell_angle_beta                  90.002032
_cell_angle_gamma                 89.99525
_cell_volume                      3353.47551878

loop_
_atom_site_label
_atom_site_type_symbol
_atom_type_description
_atom_site_fract_x
_atom_site_fract_y
_atom_site_fract_z
_atom_type_partial_charge
C1    C     C_R   0.328066 0.500004 0.500023 0.865630
C2    C     C_R   0.569013 0.795693 0.536274 -0.108411
C3    C     C_R   0.568577 0.204302 0.463000 -0.110607
C4    C     C_R   0.430990 0.795703 0.463722 -0.110662
C5    C     C_R   0.500000 0.053240 0.500001 -0.076843
C6    C     C_R   0.500001 0.946770 0.499997 -0.076556
C7    C     C_R   0.499972 0.499999 0.339206 0.885068
C8    C     C_R   0.500028 0.500001 0.660792 0.883668
C9    C     C_R   0.513970 0.584817 0.956209 0.532530
C10   C     C_R   0.486039 0.415178 0.043780 0.532397
C11   C     C_R   0.513932 0.584820 0.043790 0.532392
C12   C     C_R   0.671934 0.499997 0.499995 0.865626
C13   C     C_R   0.486040 0.415182 0.956200 0.532522
C14   C     C_R   0.500015 0.500000 0.912970 -0.383479
C15   C     C_R   0.499977 0.499999 0.087021 -0.382799
C16   C     C_1   0.500027 0.500001 0.824053 0.254228
C17   C     C_1   0.499967 0.499998 0.175941 0.255252
C18   C     C_1   0.499965 0.499998 0.250806 -0.106769
C19   C     C_1   0.500032 0.500002 0.749190 -0.108373
C20   C     C_R   0.093482 0.542893 0.433467 -0.165782
C21   C     C_R   0.906521 0.457084 0.433468 -0.165798
C22   C     C_R   0.906474 0.542870 0.566697 -0.165788
C23   C     C_R   0.047984 0.500015 0.500099 0.074820
C24   C     C_R   0.093526 0.457154 0.566718 -0.165796
C25   C     C_R   0.185978 0.543724 0.433206 -0.025315
C26   C     C_R   0.814025 0.456257 0.433197 -0.025240
C27   C     C_R   0.813975 0.543703 0.566905 -0.026826
C28   C     C_R   0.186025 0.456324 0.566937 -0.026754
C29   C     C_R   0.232214 0.500015 0.500055 -0.105770
C30   C     C_R   0.767787 0.499987 0.500032 -0.105780
C31   C     C_1   0.231972 0.587500 0.363048 0.194318
C32   C     C_1   0.768032 0.412466 0.363040 0.194389
C33   C     C_1   0.767929 0.587496 0.637031 0.191657
C34   C     C_R   0.952017 0.499982 0.500094 0.074820
C35   C     C_1   0.232072 0.412563 0.637081 0.191709
C36   C     C_R   0.429848 0.104808 0.537444 0.591673
C37   C     C_R   0.570595 0.895203 0.536691 0.591579
C38   C     C_R   0.570152 0.104795 0.462559 0.591516
C39   C     C_R   0.429408 0.895213 0.463302 0.591415
C40   C     C_R   0.431423 0.204316 0.537002 -0.108401
F1    F     F_    0.527393 0.666910 0.086385 -0.560833
F2    F     F_    0.472530 0.333101 0.913601 -0.560429
F3    F     F_    0.527497 0.666898 0.913620 -0.560427
F4    F     F_    0.472562 0.333087 0.086366 -0.560847
F5    F     F_    0.361078 0.059334 0.575786 -0.586501
F6    F     F_    0.639825 0.940679 0.574293 -0.586708
F7    F     F_    0.638919 0.059305 0.424213 -0.586637
F8    F     F_    0.360172 0.940701 0.425709 -0.586824
H1    H     H_    0.056667 0.575950 0.382355 0.160489
H2    H     H_    0.943337 0.424011 0.382366 0.160490
H3    H     H_    0.943254 0.575949 0.617818 0.160296
H4    H     H_    0.056746 0.424093 0.617845 0.160295
H5    H     H_    0.377603 0.243152 0.566590 0.191527
H6    H     H_    0.623183 0.756871 0.565300 0.191475
H7    H     H_    0.622397 0.243127 0.433410 0.191053
H8    H     H_    0.376814 0.756889 0.434702 0.191023
N1    N     N_R   0.500000 0.252470 0.500000 -0.159835
N2    N     N_R   0.500000 0.747530 0.500000 -0.159711
N3    N     N_1   0.268876 0.622476 0.306950 -0.145333
N4    N     N_1   0.731130 0.377482 0.306942 -0.145441
N5    N     N_1   0.730982 0.622484 0.693104 -0.134721
N6    N     N_1   0.269016 0.377602 0.693170 -0.134836
O1    O     O_R   0.369060 0.579480 0.500010 -0.615135
O2    O     O_R   0.630940 0.420520 0.499990 -0.614862
O3    O     O_R   0.630940 0.579480 0.499990 -0.613973
O4    O     O_R   0.369060 0.420520 0.500010 -0.613698
O5    O     O_R   0.499980 0.579460 0.378020 -0.592545
O6    O     O_R   0.500020 0.420540 0.621980 -0.593401
O7    O     O_R   0.500020 0.579460 0.621980 -0.593165
O8    O     O_R   0.499980 0.420540 0.378020 -0.592786
Zn1   Zn    Zn3+2 0.500000 0.606140 0.500000 1.008305
Zn2   Zn    Zn3+2 0.500000 0.393860 0.500000 1.008237

loop_
_geom_bond_atom_site_label_1
_geom_bond_atom_site_label_2
_ccdc_geom_bond_type
C24   H4    S    
C9    C14   A    
C2    N2    A    
C25   C31   S    
C20   H1    S    
C21   C34   A    
C12   O3    A    
C4    C39   A    
C20   C23   A    
O6    Zn2   S    
C23   C24   A    
C7    C18   S    
C23   C34   S    
C7    O8    A    
C1    C29   S    
C17   C18   T    
C8    O7    A    
C6    C37   A    
C36   F5    S    
C8    O6    A    
O3    Zn1   S    
C13   C14   A    
C27   C33   S    
C27   C30   A    
C26   C32   S    
C9    C11   A    
C2    C37   A    
C38   F7    S    
C11   C15   A    
C16   C19   T    
C22   C34   A    
C3    N1    A    
C28   C29   A    
C21   C26   A    
O1    Zn1   S    
C1    O4    A    
C35   N6    T    
O5    Zn1   S    
C22   C27   A    
O2    Zn2   S    
N1    Zn2   S    
C25   C29   A    
C5    C6    S    
C12   O2    A    
C14   C16   S    
N2    Zn1   S    
C9    F3    S    
C8    C19   S    
O7    Zn1   S    
C20   C25   A    
C32   N4    T    
C10   F4    S    
C5    C36   A    
C1    O1    A    
C36   C40   A    
C31   N3    T    
C28   C35   S    
C7    O5    A    
C33   N5    T    
C40   H5    S    
C2    H6    S    
C11   F1    S    
C4    N2    A    
C15   C17   S    
C6    C39   A    
C13   F2    S    
O8    Zn2   S    
C40   N1    A    
C21   H2    S    
C12   C30   S    
C37   F6    S    
C5    C38   A    
C3    H7    S    
C10   C13   A    
C22   H3    S    
C4    H8    S    
C24   C28   A    
C3    C38   A    
O4    Zn2   S    
C10   C15   A    
C39   F8    S    
C26   C30   A    
