data_mof_unit_44669.cif
_audit_creation_date              2012-12-10T18:53:41-0500
_audit_creation_method            fapswitch 2.2
_symmetry_space_group_name_H-M    P1
_symmetry_Int_Tables_number       1
_space_group_crystal_system       triclinic
_cell_length_a                    10.630755
_cell_length_b                    9.971197
_cell_length_c                    19.214809
_cell_angle_alpha                 89.728325
_cell_angle_beta                  92.49281
_cell_angle_gamma                 90.076251
_cell_volume                      2034.84412995

loop_
_atom_site_label
_atom_site_type_symbol
_atom_type_description
_atom_site_fract_x
_atom_site_fract_y
_atom_site_fract_z
_atom_type_partial_charge
C1    C     C_R   0.260964 0.499842 0.500155 0.883673
C2    C     C_R   0.739036 0.500158 0.499845 0.883672
C3    C     C_R   0.498102 0.500598 0.930140 0.279731
C4    C     C_R   0.501896 0.499402 0.069860 0.279731
C5    C     C_R   0.499807 0.500298 0.365869 0.981103
C6    C     C_R   0.500192 0.499702 0.634131 0.981104
C7    C     C_R   0.069336 0.465755 0.562128 0.452612
C8    C     C_R   0.930664 0.534245 0.437872 0.452611
C9    C     C_R   0.939781 0.467230 0.562096 0.432898
C10   C     C_R   0.060219 0.532770 0.437904 0.432899
C11   C     C_R   0.871432 0.500828 0.499932 -0.431119
C12   C     C_R   0.128568 0.499171 0.500068 -0.431119
C13   C     C_R   0.589159 0.070692 0.538486 0.413650
C14   C     C_R   0.410841 0.929308 0.461514 0.413650
C15   C     C_R   0.410868 0.071212 0.461469 0.421065
C16   C     C_R   0.589132 0.928788 0.538531 0.421066
C17   C     C_R   0.425260 0.592668 0.251983 0.368296
C18   C     C_R   0.574739 0.407332 0.748017 0.368296
C19   C     C_R   0.420282 0.589938 0.743099 0.378611
C20   C     C_R   0.579717 0.410062 0.256901 0.378610
C21   C     C_R   0.428912 0.595897 0.179145 0.356215
C22   C     C_R   0.571087 0.404103 0.820855 0.356215
C23   C     C_R   0.421975 0.593495 0.816145 0.352748
C24   C     C_R   0.578024 0.406505 0.183855 0.352748
C25   C     C_R   0.503361 0.500727 0.145276 -0.238453
C26   C     C_R   0.496638 0.499272 0.854724 -0.238453
C27   C     C_R   0.501495 0.500977 0.290138 -0.289959
C28   C     C_R   0.498505 0.499023 0.709862 -0.289959
N1    N     N_R   0.500000 0.857200 0.500000 -0.276043
N2    N     N_R   0.500000 0.142800 0.500000 -0.276043
N3    N     N_R   0.392635 0.477153 0.032801 -0.113494
N4    N     N_R   0.607364 0.522847 0.967199 -0.113494
N5    N     N_R   0.390775 0.477558 0.963722 -0.115817
N6    N     N_R   0.609224 0.522441 0.036278 -0.115817
O1    O     O_R   0.316770 0.614620 0.500000 -0.596885
O2    O     O_R   0.683230 0.385380 0.500000 -0.596886
O3    O     O_R   0.683230 0.614620 0.500000 -0.624045
O4    O     O_R   0.316770 0.385380 0.500000 -0.624046
O5    O     O_R   0.499990 0.614700 0.398140 -0.613823
O6    O     O_R   0.500010 0.385300 0.601860 -0.613824
O7    O     O_R   0.500010 0.614700 0.601860 -0.603563
O8    O     O_R   0.499990 0.385300 0.398140 -0.603563
Zn1   Zn    Zn3+2 0.500000 0.653120 0.500000 1.002359
Zn2   Zn    Zn3+2 0.500000 0.346880 0.500000 1.002358
O9    O     O_3   0.133469 0.433741 0.624354 -0.646787
H1    H     H_    0.225085 0.446250 0.620692 0.339302
O10   O     O_3   0.866531 0.566259 0.375646 -0.646786
H2    H     H_    0.774915 0.553747 0.379308 0.339302
O11   O     O_3   0.884430 0.436926 0.624243 -0.635227
H3    H     H_    0.794329 0.461445 0.621835 0.336641
O12   O     O_3   0.115570 0.563074 0.375757 -0.635228
H4    H     H_    0.205670 0.538554 0.378164 0.336641
O13   O     O_3   0.348548 0.677992 0.287725 -0.715959
H5    H     H_    0.296034 0.732959 0.254825 0.421805
O14   O     O_3   0.651451 0.322007 0.712275 -0.715959
H6    H     H_    0.703965 0.267040 0.745175 0.421805
O15   O     O_3   0.343808 0.674256 0.702380 -0.704974
H7    H     H_    0.289556 0.728312 0.731968 0.407585
O16   O     O_3   0.656192 0.325744 0.297620 -0.704975
H8    H     H_    0.710443 0.271688 0.268031 0.407585
O17   O     O_3   0.359278 0.693132 0.143105 -0.717271
H9    H     H_    0.394137 0.709109 0.096903 0.360189
O18   O     O_3   0.640720 0.306868 0.856895 -0.717271
H10   H     H_    0.605861 0.290891 0.903097 0.360189
O19   O     O_3   0.351044 0.690624 0.847585 -0.719922
H11   H     H_    0.382500 0.704995 0.896149 0.361353
O20   O     O_3   0.648956 0.309376 0.152414 -0.719922
H12   H     H_    0.617499 0.295005 0.103851 0.361354
O21   O     O_3   0.681233 0.132468 0.579341 -0.632263
H13   H     H_    0.656380 0.225941 0.585847 0.404421
O22   O     O_3   0.318767 0.867531 0.420658 -0.632263
H14   H     H_    0.343620 0.774059 0.414153 0.404421
O23   O     O_3   0.318800 0.133451 0.420517 -0.657150
H15   H     H_    0.343838 0.226924 0.413338 0.378500
O24   O     O_3   0.681200 0.866549 0.579483 -0.657150
H16   H     H_    0.656162 0.773076 0.586662 0.378500

loop_
_geom_bond_atom_site_label_1
_geom_bond_atom_site_label_2
_ccdc_geom_bond_type
O14   H6    S    
C16   O24   S    
O23   H15   S    
C5    O8    A    
C4    C25   S    
O13   H5    S    
C19   O15   S    
C7    O9    S    
C3    N5    A    
C14   O22   S    
C23   C26   A    
C24   O20   S    
C22   O18   S    
C5    C27   S    
C6    C28   S    
C20   C24   A    
C6    O7    A    
N3    N5    A    
O1    Zn1   S    
C21   O17   S    
O17   H9    S    
O16   H8    S    
N1    Zn1   S    
O7    Zn1   S    
N2    Zn2   S    
O21   H13   S    
C1    C12   S    
O8    Zn2   S    
C2    C11   S    
C7    C12   A    
C4    N6    A    
O12   H4    S    
C17   C27   A    
C13   N2    A    
C9    O11   S    
C24   C25   A    
O5    Zn1   S    
C16   N1    A    
O9    H1    S    
C17   C21   A    
O20   H12   S    
N4    N6    A    
O3    Zn1   S    
C19   C23   A    
O24   H16   S    
O4    Zn2   S    
O10   H2    S    
C18   C28   A    
C20   O16   S    
C19   C28   A    
C9    C11   A    
C10   C12   A    
C1    O4    A    
C18   O14   S    
C15   O23   S    
O11   H3    S    
C5    O5    A    
C6    O6    A    
O2    Zn2   S    
C14   N1    A    
C17   O13   S    
C1    O1    A    
C15   N2    A    
C2    O2    A    
C7    C9    A    
C21   C25   A    
C18   C22   A    
C3    C26   S    
C20   C27   A    
C10   O12   S    
C23   O19   S    
C8    O10   S    
O22   H14   S    
C2    O3    A    
O15   H7    S    
C13   O21   S    
C8    C11   A    
C3    N4    A    
C4    N3    A    
O18   H10   S    
O6    Zn2   S    
C8    C10   A    
O19   H11   S    
C22   C26   A    
C13   C16   A    
C14   C15   A    
