data_mof_unit_18305.cif
_audit_creation_date              2012-10-26T20:32:53-0400
_audit_creation_method            fapswitch 2.2
_symmetry_space_group_name_H-M    P1
_symmetry_Int_Tables_number       1
_space_group_crystal_system       triclinic
_cell_length_a                    27.811107
_cell_length_b                    10.825936
_cell_length_c                    9.526431
_cell_angle_alpha                 89.934669
_cell_angle_beta                  90.025613
_cell_angle_gamma                 90.273083
_cell_volume                      2868.19516896

loop_
_atom_site_label
_atom_site_type_symbol
_atom_type_description
_atom_site_fract_x
_atom_site_fract_y
_atom_site_fract_z
_atom_type_partial_charge
C1    C     C_R   0.500583 0.262343 0.500049 0.552305
C2    C     C_R   0.974323 0.404554 0.446713 0.019842
C3    C     C_R   0.975034 0.611576 0.553881 0.003234
C4    C     C_R   0.407470 0.503195 0.499849 0.541476
C5    C     C_R   0.949336 0.509202 0.499061 0.029119
C6    C     C_R   0.947131 0.302171 0.399343 -0.141960
C7    C     C_R   0.897307 0.304253 0.398751 -0.119928
C8    C     C_R   0.872458 0.407724 0.446622 0.023831
C9    C     C_R   0.898193 0.511344 0.496409 -0.039843
C10   C     C_R   0.872741 0.616728 0.542760 0.011746
C11   C     C_R   0.821869 0.610288 0.548114 0.388045
C12   C     C_R   0.279785 0.459981 0.621904 -0.063917
C13   C     C_R   0.822122 0.409211 0.446425 0.384848
C14   C     C_R   0.721370 0.500082 0.626231 -0.060755
C15   C     C_R   0.671221 0.497958 0.626869 -0.147075
C16   C     C_R   0.500401 0.737794 0.499949 0.542227
C17   C     C_R   0.670874 0.508476 0.372406 -0.146747
C18   C     C_R   0.720978 0.510989 0.372108 -0.060488
C19   C     C_R   0.746409 0.506778 0.498889 0.242480
C20   C     C_R   0.025439 0.405437 0.443541 0.016935
C21   C     C_R   0.050910 0.504778 0.506804 0.034565
C22   C     C_R   0.025874 0.605856 0.566380 0.017581
C23   C     C_R   0.253518 0.505024 0.508177 0.234724
C24   C     C_R   0.052220 0.310648 0.378156 -0.143423
C25   C     C_R   0.102627 0.694279 0.642573 -0.112751
C26   C     C_R   0.949200 0.718808 0.589546 -0.149629
C27   C     C_R   0.899081 0.723609 0.582246 -0.013374
C28   C     C_R   0.592559 0.500425 0.500030 0.553075
C29   C     C_R   0.052716 0.697601 0.638003 -0.144036
C30   C     C_R   0.502082 0.063747 0.626113 0.029632
C31   C     C_R   0.504628 0.129377 0.500240 0.010254
C32   C     C_R   0.512938 0.064857 0.374798 -0.158394
C33   C     C_R   0.512640 0.936229 0.374821 -0.164175
C34   C     C_R   0.101993 0.503441 0.509860 -0.028078
C35   C     C_R   0.504198 0.871102 0.500172 0.005378
C36   C     C_R   0.501891 0.936507 0.626189 0.022771
C37   C     C_3   0.465042 0.930451 0.740191 -0.273745
C38   C     C_3   0.465393 0.070561 0.740180 -0.267530
C39   C     C_R   0.539410 0.540143 0.073562 0.158409
C40   C     C_R   0.177944 0.408720 0.446855 0.398921
C41   C     C_R   0.463391 0.447387 0.074507 -0.002165
C42   C     C_R   0.463357 0.447520 0.925527 -0.014061
C43   C     C_R   0.539511 0.539567 0.926150 0.157809
C44   C     C_3   0.562424 0.663998 0.918964 -0.274569
C45   C     C_R   0.127473 0.406872 0.445232 0.024057
C46   C     C_3   0.561747 0.665480 0.078326 -0.276735
C47   C     C_R   0.178177 0.596745 0.577049 0.399495
C48   C     C_R   0.277301 0.553186 0.390979 -0.060488
C49   C     C_R   0.327657 0.557117 0.385905 -0.040234
C50   C     C_R   0.329809 0.461342 0.617966 -0.163777
C51   C     C_R   0.876520 0.845759 0.605388 0.082295
C52   C     C_R   0.852204 0.905004 0.495084 -0.054528
C53   C     C_R   0.831616 0.021022 0.515926 -0.097253
C54   C     C_R   0.836052 0.079994 0.645753 -0.085122
C55   C     C_R   0.860892 0.022575 0.755272 -0.110921
C56   C     C_R   0.102177 0.311628 0.379111 -0.113266
C57   C     C_R   0.881148 0.905878 0.735340 -0.080486
C58   C     C_R   0.350600 0.616199 0.262161 0.042560
C59   C     C_R   0.340994 0.571560 0.126476 -0.107790
C60   C     C_R   0.362665 0.626784 0.009668 -0.112662
C61   C     C_R   0.394027 0.726746 0.027334 -0.094858
C62   C     C_R   0.403335 0.772799 0.161649 -0.092209
C63   C     C_R   0.381418 0.718570 0.278723 -0.039259
C64   C     C_R   0.127710 0.598993 0.576978 0.024123
C65   C     C_R   0.354431 0.508410 0.500375 -0.004370
C66   C     C_R   0.645508 0.502085 0.499844 0.004713
Cu1   Cu    Cu3+1 0.500000 0.499980 0.640670 0.933648
Cu2   Cu    Cu3+1 0.500000 0.500020 0.359330 0.942821
H1    H     H_    0.349303 0.423591 0.706516 0.113678
H2    H     H_    0.430372 0.889769 0.704186 0.136922
H3    H     H_    0.261365 0.422953 0.712921 0.127645
H4    H     H_    0.479616 0.890666 0.838812 0.123623
H5    H     H_    0.430907 0.111588 0.704315 0.136886
H6    H     H_    0.480400 0.110901 0.838225 0.139131
H7    H     H_    0.433378 0.406689 0.130183 0.126301
H8    H     H_    0.433301 0.406944 0.869943 0.109883
H9    H     H_    0.599322 0.660172 0.874459 0.129445
H10   H     H_    0.538717 0.734571 0.871019 0.151221
H11   H     H_    0.598245 0.664300 0.125812 0.125997
H12   H     H_    0.256290 0.589837 0.304725 0.126360
H13   H     H_    0.537020 0.735889 0.121432 0.140566
H14   H     H_    0.120936 0.237075 0.327126 0.166147
H15   H     H_    0.652658 0.492848 0.726629 0.125086
H16   H     H_    0.740830 0.496272 0.724609 0.128601
H17   H     H_    0.878293 0.223483 0.360620 0.150312
H18   H     H_    0.963175 0.217272 0.364466 0.106493
H19   H     H_    0.035743 0.235352 0.321893 0.108910
H20   H     H_    0.848965 0.860840 0.393521 0.109793
H21   H     H_    0.812362 0.065229 0.431114 0.157004
H22   H     H_    0.820340 0.170223 0.661385 0.142225
H23   H     H_    0.121507 0.767270 0.697819 0.166225
H24   H     H_    0.864439 0.068480 0.855639 0.112148
H25   H     H_    0.900307 0.862258 0.820945 0.104702
H26   H     H_    0.317163 0.493268 0.111381 0.115069
H27   H     H_    0.355449 0.591488 0.905502 0.117476
H28   H     H_    0.411018 0.768483 0.936864 0.108310
H29   H     H_    0.427477 0.850604 0.175018 0.100198
H30   H     H_    0.388762 0.755493 0.382221 0.100182
H31   H     H_    0.967490 0.803759 0.615968 0.106575
H32   H     H_    0.652075 0.511837 0.272923 0.123894
H33   H     H_    0.740128 0.516399 0.273324 0.128033
H34   H     H_    0.036076 0.771975 0.694986 0.109069
H35   H     H_    0.517558 0.113117 0.276021 0.137229
H36   H     H_    0.516943 0.888682 0.276104 0.120258
N1    N     N_R   0.202073 0.502984 0.511692 -0.397742
N2    N     N_R   0.798010 0.508787 0.497975 -0.396737
N3    N     N_R   0.500300 0.500930 0.147930 -0.229686
N4    N     N_R   0.500310 0.500890 0.852020 -0.231939
O1    O     O_R   0.500000 0.319640 0.618810 -0.496680
O2    O     O_R   0.569730 0.499960 0.618810 -0.500617
O3    O     O_R   0.569740 0.500000 0.381220 -0.501645
O4    O     O_2   0.202756 0.317299 0.384072 -0.497545
O5    O     O_2   0.797313 0.311102 0.396799 -0.533661
O6    O     O_2   0.203210 0.687935 0.640714 -0.496201
O7    O     O_2   0.796236 0.703086 0.604855 -0.493395
O8    O     O_R   0.500010 0.319680 0.381230 -0.507088
O9    O     O_R   0.430260 0.500000 0.618780 -0.515669
O10   O     O_R   0.430270 0.500040 0.381190 -0.495113
O11   O     O_R   0.499990 0.680320 0.618770 -0.501116
O12   O     O_R   0.500000 0.680360 0.381190 -0.509073

loop_
_geom_bond_atom_site_label_1
_geom_bond_atom_site_label_2
_ccdc_geom_bond_type
C10   C27   A    
C47   O6    S    
C8    C13   A    
C22   C29   A    
C33   H36   S    
C41   C42   A    
C35   C36   A    
C14   H16   S    
C61   H28   S    
C7    C8    A    
C40   O4    S    
C53   C54   A    
C39   N3    A    
C12   C23   A    
C26   C27   A    
C62   C63   A    
C49   C65   A    
C44   H9    S    
C50   H1    S    
C54   H22   S    
C63   H30   S    
C16   O12   A    
C16   C35   S    
C30   C31   A    
Cu1   N4    S    
C23   N1    S    
C1    C31   S    
C30   C38   S    
C18   C19   A    
C4    C65   S    
Cu2   O10   S    
Cu1   O1    S    
C46   H11   S    
C20   C24   A    
C45   C56   A    
C27   C51   S    
C8    C9    A    
C47   N1    A    
C51   C57   A    
Cu2   N3    S    
C11   O7    S    
C9    C10   A    
C26   H31   S    
C1    O1    A    
C25   C64   A    
C59   C60   A    
C57   H25   S    
C21   C22   A    
C4    O10   A    
C2    C6    A    
C17   H32   S    
C44   C46   S    
C28   O3    A    
C25   C29   A    
C40   C45   A    
C25   H23   S    
C2    C20   A    
Cu1   Cu2   S    
C52   H20   S    
C16   O11   A    
C47   C64   A    
C39   C43   A    
C21   C34   A    
C28   O2    A    
C58   C59   A    
C15   C66   A    
C49   C58   S    
C51   C52   A    
C60   C61   A    
Cu2   O3    S    
C28   C66   S    
C43   C44   S    
C60   H27   S    
C5    C9    A    
C37   C38   S    
C41   H7    S    
C62   H29   S    
Cu1   O2    S    
C31   C32   A    
C11   N2    A    
C34   C64   A    
C17   C18   A    
C17   C66   A    
C32   H35   S    
C34   C45   A    
Cu1   O9    S    
Cu2   O8    S    
C39   C46   S    
C48   C49   A    
C59   H26   S    
C55   H24   S    
C50   C65   A    
C55   C57   A    
C53   H21   S    
C4    O9    A    
C2    C5    A    
C52   C53   A    
C38   H6    S    
C46   H13   S    
C58   C63   A    
C1    O8    A    
C54   C55   A    
C36   C37   S    
C23   C48   A    
C41   N3    A    
C14   C19   A    
C12   H3    S    
C3    C26   A    
C13   N2    A    
C3    C5    A    
C12   C50   A    
C56   H14   S    
C6    C7    A    
C24   C56   A    
C42   H8    S    
C6    H18   S    
C30   C36   A    
C32   C33   A    
C48   H12   S    
C44   H10   S    
Cu2   O12   S    
C7    H17   S    
C42   N4    A    
C15   H15   S    
C33   C35   A    
C29   H34   S    
C43   N4    A    
C61   C62   A    
C24   H19   S    
C10   C11   A    
C19   N2    S    
C20   C21   A    
C37   H4    S    
C14   C15   A    
C3    C22   A    
C37   H2    S    
Cu1   O11   S    
C18   H33   S    
C13   O5    S    
C40   N1    A    
C38   H5    S    
