data_mof_unit_7612.cif
_audit_creation_date              2013-03-05T15:45:15-0500
_audit_creation_method            fapswitch 2.2
_symmetry_space_group_name_H-M    P1
_symmetry_Int_Tables_number       1
_space_group_crystal_system       triclinic
_cell_length_a                    16.934295
_cell_length_b                    7.015447
_cell_length_c                    16.778645
_cell_angle_alpha                 90.000153
_cell_angle_beta                  100.912633
_cell_angle_gamma                 89.999256
_cell_volume                      1957.28528713

loop_
_atom_site_label
_atom_site_type_symbol
_atom_site_description
_atom_site_fract_x
_atom_site_fract_y
_atom_site_fract_z
_atom_type_partial_charge
O1    O     O_R   0.579510 0.506290 0.439030 -0.565700
O2    O     O_R   0.420490 0.006290 0.560970 -0.565737
O3    O     O_R   0.412540 0.170090 0.405290 -0.536761
O4    O     O_R   0.587460 0.670090 0.594710 -0.536757
C1    C     C_R   0.384637 0.345992 0.382106 0.963986
C2    C     C_R   0.615364 0.845991 0.617894 0.964013
O5    O     O_R   0.578390 0.176230 0.429330 -0.592885
O6    O     O_R   0.421610 0.676230 0.570670 -0.592934
O7    O     O_R   0.587530 0.011250 0.585190 -0.576217
O8    O     O_R   0.412470 0.511250 0.414810 -0.576255
C3    C     C_R   0.603680 0.344452 0.412295 0.989095
C4    C     C_R   0.396324 0.844455 0.587709 0.989101
O9    O     O_3   0.502800 0.340940 0.551110 -0.234245
O10   O     O_3   0.497200 0.840940 0.448890 -0.234191
V1    V     V_3+5 0.499480 0.064020 0.490520 1.326225
V2    V     V_3+5 0.500520 0.564020 0.509480 1.326202
C5    C     C_R   0.170416 0.924307 0.865847 -0.379426
C6    C     C_R   0.829587 0.424328 0.134160 -0.379555
C7    C     C_R   0.336529 0.845747 0.642657 -0.294820
C8    C     C_R   0.663481 0.345744 0.357355 -0.294724
C9    C     C_R   0.225274 0.683581 0.687114 -0.053899
C10   C     C_R   0.774716 0.183536 0.312873 -0.053571
C11   C     C_R   0.279329 0.698828 0.634440 -0.092218
C12   C     C_R   0.720670 0.198796 0.365557 -0.092364
C13   C     C_R   0.339023 0.980757 0.705960 0.334288
C14   C     C_R   0.660996 0.480782 0.294066 0.334271
C15   C     C_R   0.285274 0.962816 0.762209 -0.207704
C16   C     C_R   0.714757 0.462883 0.237829 -0.207950
C17   C     C_R   0.227368 0.813056 0.750884 0.159758
C18   C     C_R   0.772634 0.313052 0.249119 0.159948
C19   C     C_R   0.171311 0.794161 0.802837 -0.221374
C20   C     C_R   0.828676 0.294134 0.197150 -0.221080
C21   C     C_R   0.229052 0.068552 0.879208 0.662981
C22   C     C_R   0.770993 0.568681 0.120850 0.663061
C23   C     C_R   0.286826 0.087115 0.829650 0.195042
C24   C     C_R   0.713249 0.587296 0.170436 0.195069
H1    H     H_    0.126360 0.682247 0.792334 0.170945
H2    H     H_    0.873602 0.182160 0.207625 0.170937
H3    H     H_    0.181805 0.568452 0.678175 0.122760
H4    H     H_    0.818168 0.068368 0.321793 0.122721
H5    H     H_    0.276272 0.594313 0.586394 0.145453
H6    H     H_    0.723719 0.094257 0.413593 0.145494
C25   C     C_3   0.741233 0.803660 0.839562 -0.414782
C26   C     C_3   0.258765 0.303636 0.160440 -0.414718
H7    H     H_    0.761079 0.661583 0.865348 0.201636
H8    H     H_    0.238916 0.161557 0.134660 0.201681
H9    H     H_    0.721378 0.886891 0.888690 0.245357
H10   H     H_    0.278621 0.386851 0.111309 0.245389
C27   C     C_3   0.668917 0.776053 0.767926 -0.244049
C28   C     C_3   0.331081 0.276031 0.232076 -0.244051
H11   H     H_    0.614185 0.842490 0.783569 0.233597
H12   H     H_    0.385814 0.342451 0.216430 0.233618
H13   H     H_    0.656058 0.621265 0.758665 0.240299
H14   H     H_    0.343937 0.121242 0.241342 0.240303
H15   H     H_    0.856340 0.645235 0.763964 0.111035
H16   H     H_    0.143655 0.145256 0.236045 0.111032
C29   C     C_3   0.836152 0.789456 0.741022 0.487789
C30   C     C_3   0.163847 0.289478 0.258982 0.487802
C31   C     C_3   0.781798 0.104857 0.777518 -0.459217
C32   C     C_3   0.218208 0.604858 0.222474 -0.459217
C33   C     C_3   0.812600 0.908019 0.811573 -0.267114
C34   C     C_3   0.187400 0.408018 0.188426 -0.267149
H17   H     H_    0.830561 0.182967 0.755238 0.196249
H18   H     H_    0.169446 0.682985 0.244751 0.196252
H19   H     H_    0.764555 0.192813 0.826745 0.219828
H20   H     H_    0.235452 0.692798 0.173243 0.219835
C35   C     C_3   0.687106 0.865784 0.688858 -0.384511
C36   C     C_3   0.312895 0.365785 0.311142 -0.384492
C37   C     C_3   0.763536 0.768087 0.668943 0.434830
C38   C     C_3   0.236463 0.268110 0.331060 0.434817
C39   C     C_3   0.708764 0.081437 0.707276 0.686448
C40   C     C_3   0.291242 0.581438 0.292716 0.686410
H21   H     H_    0.723662 0.149897 0.652104 0.056528
H22   H     H_    0.276345 0.649914 0.347886 0.056543
H23   H     H_    0.778667 0.835198 0.613639 0.069245
H24   H     H_    0.221334 0.335237 0.386363 0.069245
O11   O     O_R   0.087500 0.266000 0.085220 -0.609692
O12   O     O_R   0.912500 0.766000 0.914780 -0.609697
O13   O     O_R   0.921600 0.589950 0.070670 -0.559025
O14   O     O_R   0.078400 0.089950 0.929330 -0.559080
C41   C     C_R   0.894373 0.422868 0.085403 1.061771
C42   C     C_R   0.105625 0.922864 0.914596 1.061830
O15   O     O_R   0.087460 0.596020 0.094710 -0.599422
O16   O     O_R   0.912540 0.096020 0.905290 -0.599428
O17   O     O_R   0.079520 0.760970 0.939020 -0.596167
O18   O     O_R   0.920480 0.260970 0.060980 -0.596137
C43   C     C_R   0.116198 0.426124 0.117805 1.058922
C44   C     C_R   0.883803 0.926125 0.882194 1.058930
O19   O     O_3   0.997180 0.425140 0.948910 -0.284083
O20   O     O_3   0.002820 0.925140 0.051090 -0.284046
V3    V     V_3+5 0.000520 0.702080 0.009480 1.229472
V4    V     V_3+5 0.999480 0.202080 0.990520 1.229456
F1    F     F_    0.749141 0.576288 0.652058 -0.694044
F2    F     F_    0.250854 0.076312 0.347952 -0.694054
F3    F     F_    0.643615 0.178212 0.726991 -0.616271
F4    F     F_    0.356393 0.678193 0.272998 -0.616282
F5    F     F_    0.900113 0.874948 0.714049 -0.720118
F6    F     F_    0.099888 0.374991 0.285952 -0.720113
F7    F     F_    0.232014 0.189695 0.942985 -0.674214
F8    F     F_    0.768062 0.689950 0.057120 -0.674192
N1    N     N_R   0.348224 0.228078 0.851743 0.287440
O21   O     O_R   0.420604 0.174493 0.884702 -0.268314
O22   O     O_R   0.328338 0.406469 0.855983 -0.308442
N2    N     N_R   0.651976 0.728595 0.148470 0.287423
O23   O     O_R   0.579610 0.675505 0.115241 -0.268115
O24   O     O_R   0.672014 0.906967 0.144621 -0.309035
N3    N     N_R   0.395920 0.133605 0.712302 0.251994
O25   O     O_R   0.472598 0.097683 0.730503 -0.311403
O26   O     O_R   0.371694 0.303912 0.688651 -0.377011
N4    N     N_R   0.604053 0.633539 0.287690 0.252006
O27   O     O_R   0.527395 0.597505 0.269310 -0.311454
O28   O     O_R   0.628183 0.803744 0.311587 -0.376854

loop_
_geom_bond_atom_site_label_1
_geom_bond_atom_site_label_2
_geom_bond_distance
_ccdc_geom_bond_type
C30   C34   1.559149 S    
O15   C43   1.317647 A    
O11   V4    2.012672 S    
O4    V2    1.992282 S    
N1    O21   1.301091 A    
C15   C17   1.425130 A    
C12   H6    1.083680 S    
O1    C3    1.314271 A    
C23   N1    1.431963 S    
O2    C4    1.314273 A    
C2    O7    1.330208 A    
N2    O24   1.301350 A    
O17   V3    1.989202 S    
O5    C3    1.305464 A    
C13   N3    1.432026 S    
C28   H14   1.112628 S    
C38   F2    1.387107 S    
C37   F1    1.387107 S    
C39   F3    1.387682 S    
C32   C40   1.547168 S    
O12   C44   1.302460 A    
C6    C41   1.487553 S    
C32   C34   1.546817 S    
C5    C42   1.487531 S    
N4    O27   1.301015 A    
C8    C12   1.403251 A    
C27   H11   1.112321 S    
C30   F6    1.386844 S    
C28   H12   1.112321 S    
N3    O25   1.301031 A    
C20   H2    1.084505 S    
O19   V3    2.188368 S    
C10   C18   1.398868 A    
C14   N4    1.432007 S    
O13   V3    1.994628 S    
C41   O18   1.312240 A    
O6    C4    1.305467 A    
O5    V1    1.994721 S    
C29   F5    1.386844 S    
O6    V2    1.994705 S    
N3    O26   1.300625 A    
C5    C21   1.405700 A    
C1    C36   1.537948 S    
N2    O23   1.301024 A    
C26   H8    1.112901 S    
C3    C8    1.492927 S    
C31   C33   1.546812 S    
C40   H22   1.113418 S    
O13   C41   1.300310 A    
C30   C38   1.560170 S    
C15   C23   1.424873 A    
C9    C17   1.398855 A    
C19   H1    1.084502 S    
C21   F7    1.359991 S    
O14   V4    1.994614 S    
C7    C11   1.403238 A    
C22   F8    1.359991 S    
C33   C44   1.527440 S    
C25   H7    1.112900 S    
O20   V4    2.188372 S    
C9    H3    1.083935 S    
C36   C40   1.573526 S    
C10   H4    1.083941 S    
O1    V2    1.987264 S    
C29   C37   1.560170 S    
O19   V4    1.710981 S    
O2    V1    1.987270 S    
C6    C22   1.405721 A    
O11   C43   1.302462 A    
O14   C42   1.300315 A    
C2    C35   1.537951 S    
C9    C11   1.391694 A    
C38   H24   1.112837 S    
C5    C19   1.399153 A    
C10   C12   1.391701 A    
O4    C2    1.351977 A    
C6    C20   1.399170 A    
O3    V1    1.992271 S    
C25   C33   1.559512 S    
C39   H21   1.113419 S    
C26   C28   1.557106 S    
C27   C35   1.551101 S    
C31   H17   1.113027 S    
C25   C27   1.557108 S    
O16   C44   1.317650 A    
C25   H9    1.112824 S    
O3    C1    1.351972 A    
C29   C33   1.559149 S    
O12   V3    2.012665 S    
C13   C15   1.435369 A    
C42   O17   1.312222 A    
O15   V3    1.992244 S    
C34   C43   1.527439 S    
C14   C16   1.435341 A    
C11   H5    1.083677 S    
C24   N2    1.431883 S    
C32   H18   1.113028 S    
C26   C34   1.559512 S    
H15   C29   1.113066 S    
O7    V1    1.996669 S    
C1    O8    1.330210 A    
C17   C19   1.411341 A    
O8    V2    1.996675 S    
C31   H19   1.113346 S    
C18   C20   1.411355 A    
O20   V3    1.710979 S    
C8    C14   1.417730 A    
C27   H13   1.112628 S    
C4    C7    1.492936 S    
C16   C18   1.425138 A    
C21   C23   1.404848 A    
C22   C24   1.404805 A    
H16   C30   1.113066 S    
C37   H23   1.112836 S    
C35   C39   1.573530 S    
C7    C13   1.417752 A    
N4    O28   1.300583 A    
C32   H20   1.113347 S    
C40   F4    1.387685 S    
C16   C24   1.424835 A    
N1    O22   1.301443 A    
O9    V2    1.711264 S    
C36   C38   1.555737 S    
O10   V1    1.711262 S    
O18   V4    1.989191 S    
O16   V4    1.992257 S    
C35   C37   1.555736 S    
C28   C36   1.551103 S    
C26   H10   1.112824 S    
C31   C39   1.547169 S    
