data_mof_unit_6703.cif
_audit_creation_date              2012-12-10T18:42:32-0500
_audit_creation_method            fapswitch 2.2
_symmetry_space_group_name_H-M    P1
_symmetry_Int_Tables_number       1
_space_group_crystal_system       triclinic
_cell_length_a                    8.580333
_cell_length_b                    10.6299
_cell_length_c                    9.891626
_cell_angle_alpha                 89.660321
_cell_angle_beta                  98.47008
_cell_angle_gamma                 90.342651
_cell_volume                      892.328324042

loop_
_atom_site_label
_atom_site_type_symbol
_atom_type_description
_atom_site_fract_x
_atom_site_fract_y
_atom_site_fract_z
_atom_type_partial_charge
C1    C     C_R   0.500789 0.260703 0.500362 0.911196
C2    C     C_R   0.499211 0.739297 0.499638 0.911196
C3    C     C_R   0.201315 0.499068 0.464278 0.936637
C4    C     C_R   0.798685 0.500932 0.535722 0.936637
C5    C     C_2   0.036188 0.498703 0.445083 -0.352812
C6    C     C_2   0.963812 0.501296 0.554917 -0.352812
C7    C     C_R   0.357337 0.066076 0.456717 0.156789
C8    C     C_R   0.642663 0.933924 0.543283 0.156789
C9    C     C_R   0.355840 0.934896 0.455962 0.130834
C10   C     C_R   0.644160 0.065104 0.544038 0.130834
C11   C     C_R   0.498838 0.871922 0.499119 -0.095597
C12   C     C_R   0.501162 0.128078 0.500880 -0.095597
C13   C     C_R   0.596648 0.579742 0.082573 0.448550
C14   C     C_R   0.403352 0.420258 0.917427 0.448550
C15   C     C_R   0.596263 0.579397 0.939230 -0.190825
C16   C     C_R   0.403737 0.420603 0.060769 -0.190825
H1    H     H_    0.974662 0.496295 0.340792 0.215135
H2    H     H_    0.025338 0.503705 0.659208 0.215135
H3    H     H_    0.673153 0.642820 0.893702 0.182950
H4    H     H_    0.326847 0.357180 0.106298 0.182950
N1    N     N_R   0.499960 0.499970 0.857200 -0.134353
N2    N     N_R   0.500040 0.500030 0.142800 -0.134353
O1    O     O_R   0.499990 0.316750 0.614620 -0.561624
O2    O     O_R   0.500010 0.683250 0.385380 -0.561624
O3    O     O_R   0.499990 0.316780 0.385290 -0.628330
O4    O     O_R   0.500010 0.683220 0.614710 -0.628330
O5    O     O_R   0.271750 0.499990 0.587840 -0.571690
O6    O     O_R   0.728250 0.500010 0.412160 -0.571691
O7    O     O_R   0.271750 0.500010 0.358510 -0.628753
O8    O     O_R   0.728250 0.499990 0.641490 -0.628753
Zn1   Zn    Zn3+2 0.500000 0.499980 0.653120 1.002060
Zn2   Zn    Zn3+2 0.500000 0.500020 0.346880 1.002060
C17   C     C_3   0.208417 0.142576 0.412893 -0.855019
H5    H     H_    0.224615 0.203800 0.324693 0.242392
H6    H     H_    0.101095 0.085983 0.380710 0.244802
H7    H     H_    0.184342 0.202486 0.499003 0.254109
C18   C     C_3   0.791582 0.857424 0.587107 -0.855019
H8    H     H_    0.775385 0.796200 0.675308 0.242392
H9    H     H_    0.815658 0.797514 0.500998 0.254109
H10   H     H_    0.898905 0.914017 0.619291 0.244802
C19   C     C_3   0.202662 0.863750 0.411336 -0.814660
H11   H     H_    0.213798 0.760311 0.416589 0.224145
H12   H     H_    0.115008 0.888888 0.478524 0.236884
H13   H     H_    0.156249 0.887912 0.303620 0.261849
C20   C     C_3   0.797338 0.136250 0.588664 -0.814659
H14   H     H_    0.786202 0.239689 0.583409 0.224145
H15   H     H_    0.843751 0.112089 0.696379 0.261849
H16   H     H_    0.884992 0.111111 0.521476 0.236884
Cl1   Cl    Cl    0.723925 0.684981 0.180978 -0.614670
Cl2   Cl    Cl    0.276075 0.315019 0.819022 -0.614670

loop_
_geom_bond_atom_site_label_1
_geom_bond_atom_site_label_2
_ccdc_geom_bond_type
C1    O3    A    
O2    Zn2   S    
C18   H8    S    
O7    Zn2   S    
C19   H12   S    
C19   H11   S    
C9    C19   S    
C15   N1    A    
C16   H4    S    
N1    Zn1   S    
C10   C20   S    
C3    O5    A    
C17   H5    S    
O4    Zn1   S    
C2    O4    A    
C20   H14   S    
C15   H3    S    
C5    C6    D    
C9    C11   A    
C3    O7    A    
C14   Cl2   S    
C1    C12   S    
N2    Zn2   S    
O3    Zn2   S    
C8    C11   A    
C13   Cl1   S    
C2    C11   S    
C10   C12   A    
C14   N1    A    
C4    C6    S    
C4    O6    A    
C13   N2    A    
C1    O1    A    
C18   H10   S    
C13   C15   A    
C2    O2    A    
O8    Zn1   S    
C6    H2    S    
C19   H13   S    
C14   C16   A    
C7    C12   A    
C20   H16   S    
C5    H1    S    
C8    C18   S    
C7    C17   S    
O5    Zn1   S    
O6    Zn2   S    
C17   H7    S    
C18   H9    S    
C20   H15   S    
C7    C9    A    
C16   N2    A    
C17   H6    S    
C8    C10   A    
C4    O8    A    
C3    C5    S    
O1    Zn1   S    
