data_mof_unit_21113.cif
_audit_creation_date              2013-03-05T16:33:14-0500
_audit_creation_method            fapswitch 2.2
_symmetry_space_group_name_H-M    P1
_symmetry_Int_Tables_number       1
_space_group_crystal_system       triclinic
_cell_length_a                    27.794858
_cell_length_b                    10.82522
_cell_length_c                    9.572083
_cell_angle_alpha                 89.413427
_cell_angle_beta                  89.373621
_cell_angle_gamma                 90.962829
_cell_volume                      2879.36536719

loop_
_atom_site_label
_atom_site_type_symbol
_atom_site_description
_atom_site_fract_x
_atom_site_fract_y
_atom_site_fract_z
_atom_type_partial_charge
O1    O     O_R   0.500000 0.319640 0.618810 -0.570841
O2    O     O_R   0.500010 0.319680 0.381230 -0.593500
C1    C     C_R   0.500854 0.262312 0.500380 0.796921
O3    O     O_R   0.430260 0.500000 0.618780 -0.614429
O4    O     O_R   0.430270 0.500040 0.381190 -0.581803
C2    C     C_R   0.407466 0.499761 0.500656 0.827576
Cu1   Cu    Cu3+1 0.500000 0.499980 0.640670 0.957382
Cu2   Cu    Cu3+1 0.500000 0.500020 0.359330 0.977810
O5    O     O_R   0.499990 0.680320 0.618770 -0.575273
O6    O     O_R   0.500000 0.680360 0.381190 -0.590562
O7    O     O_R   0.569730 0.499960 0.618810 -0.583956
O8    O     O_R   0.569740 0.500000 0.381220 -0.522903
C3    C     C_R   0.501115 0.737557 0.499357 0.801258
C4    C     C_R   0.592487 0.499359 0.499264 0.823313
C5    C     C_R   0.177544 0.387179 0.490866 0.646752
O9    O     O_2   0.202356 0.281124 0.487731 -0.521374
N1    N     N_R   0.201685 0.497769 0.500797 -0.426993
C6    C     C_R   0.177862 0.607219 0.501381 0.645555
C7    C     C_R   0.278771 0.511935 0.377277 0.461055
C8    C     C_R   0.329209 0.511838 0.376947 -0.291951
C9    C     C_R   0.328737 0.486604 0.628587 -0.257495
C10   C     C_R   0.278175 0.486291 0.631997 -0.066931
C11   C     C_R   0.253285 0.499333 0.504360 0.256574
C12   C     C_R   0.101708 0.494963 0.486990 -0.048785
C13   C     C_R   0.127083 0.383733 0.483811 -0.071756
C14   C     C_R   0.101908 0.272060 0.468493 -0.235298
C15   C     C_R   0.127462 0.607930 0.494499 -0.010627
C16   C     C_R   0.354405 0.499423 0.502117 -0.099047
H1    H     H_    0.348301 0.476949 0.725256 0.201784
H2    H     H_    0.121542 0.187026 0.457378 0.187308
C17   C     C_R   0.645429 0.497059 0.497071 -0.074592
C18   C     C_R   0.974061 0.379425 0.498261 0.017357
C19   C     C_R   0.974978 0.605043 0.464491 0.062082
C20   C     C_R   0.949169 0.491555 0.481550 0.058005
C21   C     C_R   0.947316 0.272797 0.538389 -0.229750
C22   C     C_R   0.896835 0.271011 0.543203 0.430726
C23   C     C_R   0.871767 0.380050 0.512304 -0.072825
C24   C     C_R   0.898050 0.490662 0.483949 -0.118764
C25   C     C_R   0.873182 0.601090 0.458999 -0.009379
C26   C     C_R   0.822775 0.599373 0.460608 0.594988
N2    N     N_R   0.797904 0.491807 0.487460 -0.465027
C27   C     C_R   0.820944 0.383390 0.512763 0.610452
C28   C     C_R   0.720239 0.451235 0.376991 -0.202025
C29   C     C_R   0.670131 0.453044 0.379501 -0.195609
C30   C     C_R   0.671680 0.538427 0.612503 -0.311685
C31   C     C_R   0.722242 0.536920 0.610657 0.482824
C32   C     C_R   0.746337 0.493289 0.491810 0.321612
O10   O     O_2   0.794526 0.279838 0.538693 -0.445617
C33   C     C_R   0.025067 0.378727 0.482044 0.025651
C34   C     C_R   0.050707 0.493424 0.482293 0.005212
C35   C     C_R   0.025795 0.606842 0.477186 0.063985
C36   C     C_R   0.051452 0.268303 0.462599 0.396554
H3    H     H_    0.650725 0.418532 0.290176 0.205714
H4    H     H_    0.738917 0.417136 0.285695 0.168844
H5    H     H_    0.965177 0.190906 0.574231 0.193662
O11   O     O_2   0.202929 0.714756 0.508950 -0.519756
C37   C     C_R   0.102491 0.718810 0.495399 -0.134531
H6    H     H_    0.348682 0.521777 0.278712 0.166263
H7    H     H_    0.121403 0.806788 0.502959 0.187189
C38   C     C_R   0.948922 0.713248 0.436273 -0.199120
C39   C     C_R   0.899009 0.710965 0.433074 -0.120323
O12   O     O_2   0.798669 0.704425 0.435733 -0.510598
C40   C     C_R   0.052646 0.718548 0.486580 -0.193055
H8    H     H_    0.966216 0.800996 0.412689 0.150192
H9    H     H_    0.653040 0.573318 0.703055 0.142297
H10   H     H_    0.880698 0.796495 0.411267 0.195419
H11   H     H_    0.035993 0.807625 0.491804 0.143120
C41   C     C_R   0.507633 0.061975 0.624875 0.116675
C42   C     C_R   0.505780 0.129210 0.499892 -0.091325
C43   C     C_R   0.511163 0.066060 0.372896 -0.196707
H12   H     H_    0.512812 0.115320 0.273848 0.169336
C44   C     C_R   0.511353 0.937241 0.372134 -0.207239
H13   H     H_    0.513030 0.890418 0.272793 0.154195
C45   C     C_R   0.506194 0.870725 0.498367 -0.087776
C46   C     C_R   0.507811 0.934814 0.623951 0.116343
C47   C     C_3   0.475639 0.923999 0.749475 -0.482257
C48   C     C_3   0.475343 0.063995 0.750593 -0.393983
H14   H     H_    0.439974 0.881526 0.725796 0.213280
H15   H     H_    0.494168 0.883375 0.840946 0.193490
H16   H     H_    0.439425 0.102626 0.727640 0.223475
H17   H     H_    0.493823 0.103235 0.842901 0.232287
C49   C     C_R   0.517953 0.599308 0.071279 0.204653
N3    N     N_R   0.500300 0.500930 0.147930 -0.201104
C50   C     C_R   0.477562 0.408952 0.077707 -0.048926
H18   H     H_    0.459695 0.334836 0.135753 0.161434
C51   C     C_R   0.476408 0.409461 0.930012 0.460116
N4    N     N_R   0.500310 0.500890 0.852020 -0.219305
C52   C     C_R   0.517695 0.599523 0.924345 0.118787
C53   C     C_3   0.566973 0.654668 0.913632 -0.502772
C54   C     C_3   0.567746 0.653989 0.072508 0.189707
H19   H     H_    0.593009 0.590682 0.865871 0.230144
H20   H     H_    0.567058 0.749206 0.867357 0.160238
H21   H     H_    0.569530 0.747119 0.120697 0.090932
O13   O     O_3   0.253259 0.523675 0.254943 -0.699936
H22   H     H_    0.276203 0.531529 0.175146 0.348380
O14   O     O_3   0.748896 0.577120 0.722765 -0.703946
H23   H     H_    0.726637 0.604446 0.797554 0.324551
C55   C     C_2   0.252659 0.472098 0.769493 0.902648
O15   O     O_2   0.275094 0.442304 0.873506 -0.591933
O16   O     O_R   0.203330 0.493364 0.781923 -0.761215
H24   H     H_    0.190684 0.480584 0.880872 0.351511
O17   O     O_3   0.450520 0.315426 0.870109 -0.766016
H25   H     H_    0.437270 0.346556 0.782290 0.366347
O18   O     O_3   0.601399 0.570944 0.124304 -0.688244
H26   H     H_    0.632810 0.615856 0.121349 0.326245
O19   O     O_3   0.871776 0.163947 0.580305 -0.649936
H27   H     H_    0.894661 0.096006 0.595921 0.323200
O20   O     O_3   0.028094 0.159932 0.425428 -0.747562
H28   H     H_    0.051736 0.092962 0.414808 0.322953

loop_
_geom_bond_atom_site_label_1
_geom_bond_atom_site_label_2
_geom_bond_distance
_ccdc_geom_bond_type
N4    C52   1.363057 A    
C10   C55   1.493496 S    
Cu2   N3    2.023388 S    
N2    C27   1.367113 A    
C21   C22   1.403167 A    
C12   C15   1.409447 A    
C4    C17   1.472082 S    
C28   C29   1.393176 A    
Cu1   Cu2   2.693004 S    
C30   C31   1.405658 A    
C41   C46   1.376757 A    
Cu1   O7    1.947126 S    
N1    C11   1.434804 S    
C22   C23   1.411103 A    
C1    C42   1.449687 S    
C47   H14   1.112280 S    
C24   C25   1.410427 A    
O7    C4    1.301547 A    
C5    C13   1.404795 A    
O19   H27   0.991696 S    
C5    O9    1.349606 S    
C55   O15   1.223882 D    
C26   O12   1.349981 S    
O20   H28   0.991867 S    
Cu1   O5    1.961312 S    
C23   C27   1.413668 A    
O5    C3    1.294399 A    
C29   H3    1.082329 S    
C2    C16   1.474685 S    
C7    C8    1.401910 A    
C41   C42   1.395863 A    
C47   H15   1.111229 S    
C37   C40   1.388868 A    
C43   H12   1.083154 S    
C53   H19   1.108407 S    
C6    O11   1.349614 S    
C17   C29   1.403565 A    
O1    Cu1   1.965531 S    
C9    C10   1.405332 A    
C42   C43   1.408506 A    
O3    Cu1   1.951987 S    
C39   H10   1.083546 S    
O18   H26   0.992135 S    
C19   C20   1.419256 A    
C12   C34   1.418579 A    
C25   C39   1.397503 A    
C40   H11   1.077985 S    
C45   C46   1.394843 A    
C22   O19   1.383319 S    
O17   H25   0.980279 S    
C18   C21   1.410072 A    
C50   H18   1.081900 S    
C35   C40   1.414476 A    
C12   C13   1.406072 A    
O3    C2    1.302128 A    
C15   C37   1.396628 A    
C25   C26   1.400767 A    
C51   N4    1.389312 A    
C8    C16   1.400804 A    
C34   C35   1.420345 A    
C13   C14   1.396411 A    
C21   H5    1.078098 S    
C38   C39   1.387802 A    
O1    C1    1.298114 A    
C18   C20   1.415735 A    
C7    C11   1.405227 A    
C46   C47   1.492360 S    
C23   C24   1.414466 A    
C14   C36   1.404099 A    
C28   H4    1.082865 S    
N3    C50   1.358116 A    
C48   H17   1.111414 S    
Cu2   O8    1.951982 S    
C33   C36   1.425614 A    
O14   H23   0.991750 S    
N1    C6    1.367012 A    
N2    C32   1.433822 S    
C31   O14   1.380534 S    
C27   O10   1.349069 S    
C47   C48   1.515802 S    
C53   H20   1.110931 S    
C54   O18   1.399366 S    
C7    O13   1.381425 S    
C44   C45   1.404991 A    
C26   N2    1.364834 A    
C9    C16   1.402893 A    
O8    C4    1.300811 A    
C49   N3    1.368135 A    
C19   C38   1.412742 A    
C55   O16   1.398081 S    
C30   H9    1.079736 S    
C8    H6    1.083301 S    
C51   O17   1.370816 S    
C54   H21   1.113523 S    
C48   H16   1.112096 S    
C41   C48   1.493875 S    
C5    N1    1.367190 A    
C31   C32   1.403820 A    
C20   C24   1.420663 A    
O2    Cu2   1.961314 S    
C6    C15   1.403274 A    
C50   C51   1.414422 A    
C44   H13   1.083042 S    
O6    C3    1.295457 A    
O4    Cu2   1.947129 S    
C14   H2    1.083551 S    
C19   C35   1.418798 A    
C49   C54   1.496295 S    
C38   H8    1.078051 S    
O2    C1    1.293667 A    
O4    C2    1.301323 A    
C9    H1    1.083423 S    
C49   C52   1.406540 A    
O16   H24   1.013990 S    
O13   H22   0.991740 S    
C18   C33   1.424661 A    
C37   H7    1.083516 S    
Cu1   N4    2.023297 S    
C52   C53   1.486979 S    
C36   O20   1.382888 S    
Cu2   O6    1.965530 S    
C33   C34   1.421216 A    
C17   C30   1.403774 A    
C10   C11   1.417553 A    
C43   C44   1.394688 A    
C53   C54   1.521107 S    
C28   C32   1.399253 A    
C3    C45   1.446025 S    
