data_mof_unit_5259.cif
_audit_creation_date              2012-12-10T18:20:31-0500
_audit_creation_method            fapswitch 2.2
_symmetry_space_group_name_H-M    P1
_symmetry_Int_Tables_number       1
_space_group_crystal_system       triclinic
_cell_length_a                    14.112396
_cell_length_b                    13.614511
_cell_length_c                    14.960187
_cell_angle_alpha                 89.001011
_cell_angle_beta                  89.044017
_cell_angle_gamma                 84.021888
_cell_volume                      2857.96568647

loop_
_atom_site_label
_atom_site_type_symbol
_atom_type_description
_atom_site_fract_x
_atom_site_fract_y
_atom_site_fract_z
_atom_type_partial_charge
C1    C     C_R   0.500531 0.500387 0.326831 0.892952
C2    C     C_R   0.658197 0.404227 0.953625 -0.005323
C3    C     C_R   0.803454 0.437574 0.556172 -0.082338
C4    C     C_R   0.196546 0.562427 0.443829 -0.082335
C5    C     C_R   0.793769 0.563343 0.443081 0.049943
C6    C     C_R   0.206231 0.436657 0.556919 0.049943
C7    C     C_R   0.894537 0.564781 0.442205 -0.022999
C8    C     C_R   0.105463 0.435219 0.557795 -0.022998
C9    C     C_R   0.949484 0.500273 0.499863 0.082142
C10   C     C_R   0.050516 0.499727 0.500137 0.082142
C11   C     C_R   0.903638 0.436133 0.557127 0.022634
C12   C     C_R   0.499469 0.499613 0.673168 0.892952
C13   C     C_R   0.096362 0.563868 0.442874 0.022632
C14   C     C_R   0.941949 0.628800 0.385278 -0.215031
C15   C     C_R   0.058051 0.371201 0.614723 -0.215032
C16   C     C_R   0.516394 0.314483 0.500314 0.905601
C17   C     C_R   0.483606 0.685516 0.499686 0.905600
C18   C     C_R   0.041178 0.628269 0.385943 -0.205768
C19   C     C_R   0.958821 0.371733 0.614059 -0.205777
C20   C     C_1   0.471677 0.788944 0.498321 -0.184120
C21   C     C_1   0.528323 0.211056 0.501679 -0.184118
C22   C     C_2   0.459396 0.980274 0.495876 -0.177029
C23   C     C_R   0.499946 0.498772 0.953483 0.043577
C24   C     C_2   0.540605 0.019726 0.504123 -0.177030
C25   C     C_1   0.537083 0.123469 0.503006 -0.004918
C26   C     C_1   0.462917 0.876531 0.496993 -0.004918
C27   C     C_R   0.577840 0.452495 0.813538 -0.261959
C28   C     C_R   0.422158 0.547502 0.186462 -0.261958
C29   C     C_R   0.498960 0.498416 0.768818 -0.055989
C30   C     C_R   0.501040 0.501584 0.231182 -0.055987
C31   C     C_R   0.420746 0.544365 0.814889 -0.262857
C32   C     C_R   0.579255 0.455637 0.185111 -0.262855
C33   C     C_R   0.420534 0.544882 0.907237 0.103607
C34   C     C_R   0.500055 0.501229 0.046517 0.043577
C35   C     C_R   0.579466 0.455119 0.092763 0.103606
C36   C     C_R   0.258393 0.650265 0.091266 0.125286
C37   C     C_R   0.268820 0.736578 0.138678 -0.168516
C38   C     C_R   0.189356 0.789701 0.178261 -0.145663
C39   C     C_R   0.099052 0.757547 0.170159 -0.130611
C40   C     C_R   0.088131 0.671779 0.123080 -0.132822
C41   C     C_R   0.167405 0.618437 0.083370 -0.155006
C42   C     C_R   0.741580 0.349688 0.908733 0.125278
C43   C     C_R   0.832584 0.381482 0.916607 -0.155004
C44   C     C_R   0.911834 0.328110 0.876883 -0.132849
C45   C     C_R   0.579243 0.450704 0.906488 0.063722
C46   C     C_R   0.900870 0.242347 0.829812 -0.130625
C47   C     C_R   0.810550 0.210225 0.821735 -0.145637
C48   C     C_R   0.731112 0.263378 0.861331 -0.168509
C49   C     C_R   0.737230 0.630162 0.380542 0.182456
C50   C     C_R   0.708724 0.728316 0.404308 -0.136538
C51   C     C_R   0.663462 0.794461 0.342094 -0.160584
C52   C     C_R   0.649395 0.764084 0.255000 -0.128079
C53   C     C_R   0.682283 0.668152 0.229512 -0.151259
C54   C     C_R   0.727435 0.601844 0.291649 -0.136006
C55   C     C_R   0.262770 0.369836 0.619457 0.182455
C56   C     C_R   0.420755 0.549293 0.093512 0.063725
C57   C     C_R   0.272567 0.398153 0.708349 -0.136004
C58   C     C_R   0.317721 0.331843 0.770485 -0.151262
C59   C     C_R   0.350607 0.235911 0.744995 -0.128081
C60   C     C_R   0.336537 0.205537 0.657901 -0.160581
C61   C     C_R   0.291274 0.271682 0.595689 -0.136538
C62   C     C_R   0.342425 0.592117 0.953372 -0.279990
C63   C     C_R   0.657573 0.407877 0.046628 -0.279990
C64   C     C_R   0.341797 0.595761 0.046374 -0.005323
H1    H     H_    0.637770 0.418569 0.775045 0.166180
H2    H     H_    0.096934 0.319846 0.660260 0.154342
H3    H     H_    0.074856 0.678644 0.342003 0.151834
H4    H     H_    0.925144 0.321359 0.658001 0.151835
H5    H     H_    0.608539 0.974966 0.511705 0.151346
H6    H     H_    0.391462 0.025034 0.488294 0.151346
H7    H     H_    0.338304 0.762792 0.144531 0.130882
H8    H     H_    0.197710 0.856054 0.214859 0.131689
H9    H     H_    0.037575 0.798862 0.200678 0.123955
H10   H     H_    0.018185 0.646822 0.117124 0.128796
H11   H     H_    0.158005 0.552421 0.046552 0.124820
H12   H     H_    0.362227 0.581425 0.224956 0.166176
H13   H     H_    0.842015 0.447496 0.953416 0.124820
H14   H     H_    0.981792 0.353042 0.882821 0.128802
H15   H     H_    0.962328 0.201010 0.799281 0.123958
H16   H     H_    0.802163 0.143875 0.785144 0.131689
H17   H     H_    0.661613 0.237191 0.855496 0.130884
H18   H     H_    0.721116 0.753252 0.471071 0.129076
H19   H     H_    0.639993 0.869475 0.361177 0.142387
H20   H     H_    0.614479 0.815362 0.206872 0.131302
H21   H     H_    0.673513 0.645431 0.161432 0.144669
H22   H     H_    0.755084 0.528555 0.270661 0.119629
H23   H     H_    0.360948 0.581349 0.778653 0.148683
H24   H     H_    0.244920 0.471442 0.729339 0.119629
H25   H     H_    0.326493 0.354564 0.838565 0.144668
H26   H     H_    0.385524 0.184633 0.793122 0.131300
H27   H     H_    0.360005 0.130522 0.638817 0.142386
H28   H     H_    0.278881 0.246748 0.528926 0.129075
H29   H     H_    0.639054 0.418652 0.221347 0.148683
H30   H     H_    0.282229 0.627785 0.916747 0.151785
H31   H     H_    0.717765 0.372202 0.083253 0.151784
H32   H     H_    0.767841 0.388637 0.600163 0.141388
H33   H     H_    0.232158 0.611364 0.399837 0.141385
H34   H     H_    0.903066 0.680155 0.339741 0.154339
N1    N     N_R   0.750030 0.500040 0.500070 -0.119094
N2    N     N_R   0.249970 0.499960 0.499930 -0.119094
O1    O     O_R   0.580280 0.500020 0.367860 -0.617701
O2    O     O_R   0.419720 0.499980 0.632140 -0.617702
O3    O     O_R   0.419730 0.500030 0.367840 -0.626352
O4    O     O_R   0.580270 0.499970 0.632160 -0.626351
O5    O     O_R   0.591830 0.359650 0.500030 -0.619607
O6    O     O_R   0.408170 0.640350 0.499970 -0.619606
O7    O     O_R   0.431280 0.359660 0.500010 -0.607527
O8    O     O_R   0.568720 0.640340 0.499990 -0.607527
Zn1   Zn    Zn3+2 0.607200 0.499990 0.500020 0.949012
Zn2   Zn    Zn3+2 0.392800 0.500010 0.499980 0.949012

loop_
_geom_bond_atom_site_label_1
_geom_bond_atom_site_label_2
_ccdc_geom_bond_type
C34   C56   A    
C16   C21   S    
C23   C45   A    
C51   H19   S    
C12   C29   S    
C27   C29   A    
C14   C18   A    
C6    C55   S    
C28   C56   A    
C37   H7    S    
C53   C54   A    
O8    Zn1   S    
C4    N2    A    
C15   C19   A    
C11   C19   A    
C21   C25   T    
C13   C18   A    
O3    Zn2   S    
C36   C37   A    
C12   O4    A    
C46   H15   S    
O1    Zn1   S    
C49   C54   A    
N1    Zn1   S    
C63   H31   S    
C17   C20   S    
C48   H17   S    
C34   C35   A    
C4    C13   A    
C52   H20   S    
C62   C64   A    
C16   O7    A    
C46   C47   A    
C7    C14   A    
C5    N1    A    
C33   C62   A    
C23   C33   A    
C56   C64   A    
C3    H32   S    
C9    C10   A    
C1    O3    A    
C61   H28   S    
C27   C45   A    
C32   H29   S    
C59   C60   A    
C4    H33   S    
C5    C49   S    
C36   C41   A    
C47   H16   S    
C44   C46   A    
C24   H5    S    
C14   H34   S    
C2    C45   A    
C38   H8    S    
C31   H23   S    
C51   C52   A    
C32   C35   A    
C24   C25   S    
C17   O8    A    
C39   C40   A    
C5    C7    A    
C6    C8    A    
C18   H3    S    
C15   H2    S    
C60   C61   A    
C59   H26   S    
C6    N2    A    
C43   C44   A    
C12   O2    A    
C37   C38   A    
C27   H1    S    
C41   H11   S    
C47   C48   A    
C23   C34   A    
C31   C33   A    
C50   C51   A    
C19   H4    S    
C55   C57   A    
C42   C48   A    
C9    C11   A    
C16   O5    A    
C40   C41   A    
C8    C15   A    
C62   H30   S    
O7    Zn2   S    
C22   C24   D    
O2    Zn2   S    
C42   C43   A    
C28   H12   S    
C1    O1    A    
C52   C53   A    
C50   H18   S    
C54   H22   S    
O6    Zn2   S    
C60   H27   S    
C7    C9    A    
O5    Zn1   S    
C2    C63   A    
C10   C13   A    
C53   H21   S    
C43   H13   S    
C57   H24   S    
C44   H14   S    
C58   C59   A    
C29   C31   A    
C17   O6    A    
C30   C32   A    
C57   C58   A    
C38   C39   A    
C20   C26   T    
C2    C42   S    
N2    Zn2   S    
C55   C61   A    
C28   C30   A    
C1    C30   S    
C40   H10   S    
C39   H9    S    
C58   H25   S    
C3    C11   A    
C3    N1    A    
C8    C10   A    
C49   C50   A    
C22   C26   S    
O4    Zn1   S    
C35   C63   A    
C36   C64   S    
C22   H6    S    
