data_mof_unit_66397.cif
_audit_creation_date              2012-12-11T20:51:08-0500
_audit_creation_method            fapswitch 2.2
_symmetry_space_group_name_H-M    P1
_symmetry_Int_Tables_number       1
_space_group_crystal_system       triclinic
_cell_length_a                    30.799358
_cell_length_b                    33.348442
_cell_length_c                    8.419991
_cell_angle_alpha                 90.000074
_cell_angle_beta                  89.611201
_cell_angle_gamma                 89.998611
_cell_volume                      8648.06292411

loop_
_atom_site_label
_atom_site_type_symbol
_atom_type_description
_atom_site_fract_x
_atom_site_fract_y
_atom_site_fract_z
_atom_type_partial_charge
Ba1   Ba    Ba6+2 0.999930 0.472870 0.844940 1.768951
Ba2   Ba    Ba6+2 0.999930 0.527130 0.344940 1.768855
Ba3   Ba    Ba6+2 0.499930 0.972870 0.844940 1.768838
Ba4   Ba    Ba6+2 0.499930 0.027130 0.344940 1.768835
C1    C     C_3   0.031517 0.286684 0.583502 0.040002
C2    C     C_R   0.205465 0.312785 0.393808 0.658344
C3    C     C_R   0.402637 0.087238 0.699708 0.028508
C4    C     C_R   0.871615 0.383432 0.159214 -0.071594
C5    C     C_R   0.873435 0.618008 0.654783 -0.092197
C6    C     C_R   0.373435 0.881992 0.154778 -0.092196
C7    C     C_R   0.371608 0.116567 0.659218 -0.071631
C8    C     C_R   0.862989 0.349826 0.257371 0.226306
C9    C     C_R   0.864232 0.651187 0.754652 0.225955
C10   C     C_R   0.364232 0.848812 0.254646 0.225958
C11   C     C_R   0.362967 0.150164 0.757409 0.226436
C12   C     C_2   0.082233 0.590607 0.846124 -0.212783
C13   C     C_R   0.705411 0.187312 0.893460 0.658524
C14   C     C_2   0.082390 0.409377 0.346034 -0.213165
C15   C     C_2   0.582399 0.090615 0.846025 -0.213226
C16   C     C_2   0.582230 0.909393 0.346119 -0.212769
C17   C     C_3   0.161534 0.507536 0.012393 0.382864
C18   C     C_3   0.161557 0.492413 0.512393 0.383146
C19   C     C_3   0.661553 0.007564 0.012420 0.383147
C20   C     C_3   0.661540 0.992452 0.512409 0.382850
C21   C     C_3   0.199543 0.533306 0.069253 -0.035499
C22   C     C_3   0.199524 0.466586 0.569222 -0.035670
C23   C     C_3   0.699533 0.033371 0.069262 -0.035768
C24   C     C_R   0.706415 0.813840 0.392592 0.658014
C25   C     C_3   0.699539 0.966673 0.569290 -0.035518
C26   C     C_3   0.844242 0.499177 0.957390 0.401367
C27   C     C_3   0.835029 0.512480 0.473274 0.398756
C28   C     C_3   0.335027 0.987519 0.973276 0.398775
C29   C     C_3   0.344243 0.000825 0.457390 0.401375
C30   C     C_3   0.813828 0.463574 0.929109 -0.304604
C31   C     C_3   0.799720 0.536955 0.556306 -0.347184
C32   C     C_3   0.299719 0.963047 0.056315 -0.347192
C33   C     C_3   0.313828 0.036430 0.429110 -0.304615
C34   C     C_3   0.011734 0.328480 0.579931 0.388293
C35   C     C_R   0.164617 0.703229 0.124562 0.623872
C36   C     C_3   0.011151 0.671334 0.074956 0.386759
C37   C     C_3   0.511151 0.828663 0.574943 0.386782
C38   C     C_3   0.511828 0.171466 0.080591 0.387621
C39   C     C_R   0.925275 0.409301 0.334303 -0.235262
C40   C     C_R   0.922971 0.589392 0.839205 -0.245846
C41   C     C_R   0.422971 0.910606 0.339199 -0.245844
C42   C     C_R   0.425273 0.090702 0.834300 -0.235333
C43   C     C_R   0.164040 0.296649 0.627693 0.622755
C44   C     C_R   0.664175 0.203189 0.128079 0.622505
C45   C     C_R   0.664611 0.796766 0.624552 0.623872
C46   C     C_R   0.196798 0.730887 0.171997 -0.049023
C47   C     C_R   0.196060 0.268822 0.675233 -0.048725
C48   C     C_R   0.696202 0.231008 0.175621 -0.048724
C49   C     C_3   0.031131 0.713059 0.077348 0.038221
C50   C     C_R   0.696793 0.769108 0.671987 -0.049017
C51   C     C_R   0.233866 0.736693 0.076294 -0.043346
C52   C     C_R   0.232853 0.262482 0.578695 -0.043177
C53   C     C_R   0.732897 0.237481 0.078711 -0.043143
C54   C     C_R   0.733862 0.763304 0.576293 -0.043353
C55   C     C_R   0.275542 0.720687 0.838888 -0.033426
C56   C     C_R   0.274160 0.277616 0.339533 -0.032941
C57   C     C_R   0.774029 0.222584 0.838912 -0.032681
C58   C     C_R   0.775543 0.779316 0.338901 -0.033438
C59   C     C_R   0.805475 0.250542 0.882570 -0.024875
C60   C     C_3   0.531130 0.786936 0.577322 0.038217
C61   C     C_R   0.807161 0.751501 0.382456 -0.026501
C62   C     C_R   0.307160 0.748501 0.882443 -0.026481
C63   C     C_R   0.305602 0.249651 0.383170 -0.025366
C64   C     C_R   0.801642 0.272234 0.025470 -0.003880
C65   C     C_R   0.803138 0.729328 0.524129 -0.004022
C66   C     C_R   0.303138 0.770673 0.024121 -0.004023
C67   C     C_R   0.301683 0.227844 0.525766 -0.003862
C68   C     C_R   0.765216 0.265686 0.124936 -0.067192
C69   C     C_R   0.766336 0.735247 0.622391 -0.067333
C70   C     C_R   0.266339 0.764751 0.122390 -0.067329
C71   C     C_3   0.531678 0.213231 0.084437 0.040203
C72   C     C_R   0.265173 0.234278 0.624929 -0.067229
C73   C     C_R   0.192674 0.752642 0.313758 -0.036101
C74   C     C_R   0.192030 0.247388 0.817826 -0.034999
C75   C     C_R   0.692276 0.252299 0.318591 -0.034821
C76   C     C_R   0.692666 0.747348 0.813732 -0.036112
C77   C     C_3   0.996770 0.318598 0.108794 0.301184
C78   C     C_3   0.997728 0.681957 0.606656 0.297535
C79   C     C_3   0.497729 0.818043 0.106651 0.297543
C80   C     C_3   0.496704 0.181355 0.608872 0.300885
C81   C     C_R   0.724011 0.279510 0.367693 0.206161
C82   C     C_R   0.238627 0.714379 0.934754 -0.020017
C83   C     C_R   0.724576 0.720334 0.862861 0.207177
C84   C     C_R   0.224586 0.779654 0.362891 0.207182
C85   C     C_R   0.223783 0.220201 0.866999 0.206339
C86   C     C_R   0.761051 0.287086 0.269925 -0.069219
C87   C     C_R   0.761938 0.713356 0.766062 -0.069119
C88   C     C_R   0.261943 0.786639 0.266071 -0.069114
C89   C     C_R   0.260927 0.212766 0.769620 -0.069364
C90   C     C_R   0.793912 0.315188 0.310312 0.636255
C91   C     C_R   0.794865 0.685331 0.806143 0.632001
C92   C     C_R   0.294867 0.814666 0.306142 0.632008
C93   C     C_R   0.237511 0.284427 0.436192 -0.019683
C94   C     C_R   0.293815 0.184697 0.810096 0.636227
C95   C     C_R   0.833632 0.300147 0.070979 0.594990
C96   C     C_R   0.835273 0.701528 0.569577 0.597036
C97   C     C_R   0.335273 0.798473 0.069567 0.597043
C98   C     C_R   0.333667 0.199921 0.571255 0.594990
C99   C     C_2   0.110869 0.656717 0.802417 0.148480
C100  C     C_2   0.110261 0.342900 0.304064 0.148295
C101  C     C_2   0.610240 0.157110 0.804157 0.148585
C102  C     C_2   0.610868 0.843283 0.302410 0.148476
C103  C     C_3   0.074696 0.629551 0.778223 -0.125179
C104  C     C_R   0.737462 0.215662 0.935869 -0.019509
C105  C     C_3   0.074461 0.370431 0.278826 -0.123410
C106  C     C_3   0.574456 0.129564 0.778875 -0.123205
C107  C     C_3   0.574694 0.870448 0.278216 -0.125178
C108  C     C_1   0.100663 0.587117 0.994625 -0.054972
C109  C     C_1   0.100664 0.412845 0.494794 -0.055486
C110  C     C_1   0.600683 0.087140 0.994757 -0.055609
C111  C     C_1   0.600658 0.912882 0.494623 -0.054957
C112  C     C_2   0.127403 0.617448 0.046893 -0.139808
C113  C     C_2   0.127229 0.382425 0.547531 -0.139284
C114  C     C_2   0.627275 0.117540 0.047444 -0.139361
C115  C     C_R   0.738626 0.785621 0.434761 -0.020026
C116  C     C_2   0.627394 0.882548 0.546899 -0.139831
C117  C     C_2   0.136454 0.652368 0.941389 0.220076
C118  C     C_2   0.135900 0.347237 0.442973 0.218810
C119  C     C_2   0.635924 0.152745 0.942952 0.218596
C120  C     C_2   0.636449 0.847630 0.441389 0.220078
C121  C     C_R   0.884797 0.345303 0.395145 -0.081504
C122  C     C_R   0.884801 0.654776 0.895451 -0.070837
C123  C     C_R   0.384801 0.845224 0.395445 -0.070836
C124  C     C_R   0.384768 0.154686 0.895194 -0.081575
C125  C     C_3   0.968845 0.284984 0.041917 0.055808
C126  C     C_R   0.206417 0.686160 0.892582 0.658004
C127  C     C_3   0.970430 0.715901 0.538938 0.056158
C128  C     C_3   0.470431 0.784099 0.038934 0.056162
C129  C     C_3   0.468797 0.214995 0.542090 0.055801
C130  C     C_R   0.917161 0.375592 0.442442 -0.023187
C131  C     C_R   0.915932 0.623680 0.945269 -0.013022
C132  C     C_R   0.415932 0.876319 0.445263 -0.013017
C133  C     C_R   0.417153 0.124410 0.942447 -0.023252
C134  C     C_R   0.902640 0.412763 0.199709 0.028477
C135  C     C_R   0.901931 0.587037 0.700791 -0.016057
C136  C     C_R   0.401930 0.912962 0.200786 -0.016066
H1    H     H_    0.035329 0.349701 0.633500 0.036191
H2    H     H_    0.845063 0.527405 0.361449 0.106694
H3    H     H_    0.345061 0.972593 0.861452 0.106679
H4    H     H_    0.365615 0.995090 0.354711 0.056417
H5    H     H_    0.831952 0.437850 0.878438 0.111037
H6    H     H_    0.813228 0.563759 0.613916 0.085241
H7    H     H_    0.313228 0.936244 0.113933 0.085242
H8    H     H_    0.331953 0.062153 0.378440 0.111012
H9    H     H_    0.788259 0.471613 0.843001 0.129617
H10   H     H_    0.775244 0.546730 0.468156 0.150831
H11   H     H_    0.275244 0.953270 0.968167 0.150827
H12   H     H_    0.034882 0.650079 0.127555 0.034162
H13   H     H_    0.288260 0.028392 0.343002 0.129618
H14   H     H_    0.797858 0.454317 0.041646 0.150833
H15   H     H_    0.783053 0.518818 0.648249 0.156093
H16   H     H_    0.283051 0.981186 0.148251 0.156095
H17   H     H_    0.297858 0.045687 0.541647 0.150834
H18   H     H_    0.942599 0.277747 0.128368 0.068631
H19   H     H_    0.944276 0.723643 0.625063 0.072434
H20   H     H_    0.444278 0.776358 0.125061 0.072427
H21   H     H_    0.442537 0.222206 0.628521 0.068808
H22   H     H_    0.280046 0.704221 0.729097 0.137426
H23   H     H_    0.534884 0.849916 0.627538 0.034162
H24   H     H_    0.278577 0.293785 0.229007 0.137019
H25   H     H_    0.778373 0.206514 0.728133 0.136911
H26   H     H_    0.780046 0.795783 0.229114 0.137430
H27   H     H_    0.142240 0.615848 0.163183 0.139274
H28   H     H_    0.142193 0.384138 0.663568 0.139620
H29   H     H_    0.642259 0.115810 0.163443 0.139780
H30   H     H_    0.642225 0.884144 0.663200 0.139295
H31   H     H_    0.040417 0.278777 0.706989 0.157820
H32   H     H_    0.040540 0.720942 0.200352 0.157900
H33   H     H_    0.540541 0.779052 0.700322 0.157905
H34   H     H_    0.535326 0.150217 0.134581 0.036699
H35   H     H_    0.540466 0.221123 0.208045 0.157661
H36   H     H_    0.078025 0.563757 0.774711 0.087672
H37   H     H_    0.078540 0.436183 0.274092 0.087871
H38   H     H_    0.578554 0.063814 0.774054 0.087905
H39   H     H_    0.578021 0.936242 0.274707 0.087699
H40   H     H_    0.974702 0.343834 0.140955 -0.059892
H41   H     H_    0.975229 0.657091 0.639498 -0.053276
H42   H     H_    0.475229 0.842908 0.139499 -0.053282
H43   H     H_    0.474631 0.156101 0.640732 -0.059669
H44   H     H_    0.012963 0.307117 0.216733 0.034948
H45   H     H_    0.217869 0.517383 0.162544 0.158280
H46   H     H_    0.014165 0.693370 0.714229 0.034254
H47   H     H_    0.514168 0.806628 0.214219 0.034251
H48   H     H_    0.512847 0.192785 0.716993 0.034913
H49   H     H_    0.148602 0.519204 0.898886 0.038737
H50   H     H_    0.148610 0.480775 0.398864 0.038600
H51   H     H_    0.648613 0.019209 0.898889 0.038616
H52   H     H_    0.648609 0.980788 0.398896 0.038749
H53   H     H_    0.187448 0.561707 0.119875 0.064292
H54   H     H_    0.187385 0.438196 0.619790 0.064252
H55   H     H_    0.687410 0.061761 0.119870 0.064290
H56   H     H_    0.217875 0.482474 0.662543 0.158368
H57   H     H_    0.687436 0.938278 0.619927 0.064290
H58   H     H_    0.006028 0.336979 0.454465 -0.174821
H59   H     H_    0.004901 0.662773 0.949883 -0.173880
H60   H     H_    0.504899 0.837226 0.449873 -0.173906
H61   H     H_    0.506258 0.162965 0.955035 -0.174000
H62   H     H_    0.061332 0.286038 0.509046 0.069198
H63   H     H_    0.060673 0.713581 0.001396 0.067849
H64   H     H_    0.560669 0.786412 0.501359 0.067850
H65   H     H_    0.561570 0.213831 0.010403 0.069237
H66   H     H_    0.164371 0.748495 0.388568 0.178290
H67   H     H_    0.717881 0.017470 0.162555 0.158406
H68   H     H_    0.163906 0.251900 0.893173 0.178317
H69   H     H_    0.664245 0.247659 0.394287 0.178396
H70   H     H_    0.664359 0.751492 0.888527 0.178288
H71   H     H_    0.833025 0.255008 0.803849 0.134699
H72   H     H_    0.834990 0.747527 0.304644 0.134876
H73   H     H_    0.334988 0.752476 0.804626 0.134876
H74   H     H_    0.333220 0.245277 0.304688 0.134657
H75   H     H_    0.878489 0.319854 0.471766 0.110994
H76   H     H_    0.878235 0.679998 0.972969 0.110456
H77   H     H_    0.378236 0.820002 0.472964 0.110463
H78   H     H_    0.717869 0.982593 0.662577 0.158292
H79   H     H_    0.378440 0.180126 0.971842 0.110830
H80   H     H_    0.853247 0.386965 0.051273 0.095639
H81   H     H_    0.857113 0.615792 0.541715 0.109012
H82   H     H_    0.357112 0.884209 0.041710 0.109018
H83   H     H_    0.353245 0.113040 0.551263 0.095469
H84   H     H_    0.948486 0.432042 0.368111 0.081644
H85   H     H_    0.944584 0.565654 0.876358 0.078261
H86   H     H_    0.444584 0.934343 0.376350 0.078252
H87   H     H_    0.448488 0.067964 0.868099 0.081672
H88   H     H_    0.953661 0.294567 0.929244 0.157427
H89   H     H_    0.865614 0.504910 0.854711 0.056420
H90   H     H_    0.955161 0.706410 0.426294 0.158390
H91   H     H_    0.455161 0.793592 0.926292 0.158390
H92   H     H_    0.453636 0.205449 0.429326 0.157494
I1    I     I_    0.244015 0.549545 0.884800 -0.268206
I2    I     I_    0.986578 0.757035 0.990783 -0.298691
I3    I     I_    0.486571 0.742965 0.490769 -0.298717
I4    I     I_    0.487474 0.257103 0.994820 -0.294907
I5    I     I_    0.711344 0.305607 0.595079 -0.262252
I6    I     I_    0.711753 0.693747 0.089211 -0.254708
I7    I     I_    0.211778 0.806217 0.589312 -0.254801
I8    I     I_    0.210978 0.193919 0.093867 -0.260981
I9    I     I_    0.115810 0.711143 0.670917 -0.304263
I10   I     I_    0.114322 0.288091 0.174738 -0.304630
I11   I     I_    0.614152 0.211992 0.675315 -0.304262
I12   I     I_    0.243967 0.450300 0.384734 -0.268531
I13   I     I_    0.615815 0.788858 0.170897 -0.304288
I14   I     I_    0.005764 0.231571 0.002071 -0.205947
I15   I     I_    0.008309 0.768700 0.498251 -0.205628
I16   I     I_    0.508312 0.731300 0.998238 -0.205642
I17   I     I_    0.505706 0.268423 0.502576 -0.205814
I18   I     I_    0.183608 0.447311 0.976570 -0.311592
I19   I     I_    0.183732 0.552606 0.476627 -0.310644
I20   I     I_    0.683703 0.947362 0.976662 -0.310651
I21   I     I_    0.683629 0.052671 0.476594 -0.311610
I22   I     I_    0.743976 0.049656 0.884776 -0.268812
I23   I     I_    0.744007 0.950411 0.384850 -0.268216
I24   I     I_    0.806184 0.552135 0.992197 -0.391552
I25   I     I_    0.806586 0.456433 0.408176 -0.386715
I26   I     I_    0.306581 0.043567 0.908171 -0.386526
I27   I     I_    0.306184 0.947869 0.492201 -0.391558
I28   I     I_    0.987135 0.242889 0.494494 -0.295475
N1    N     N_R   0.169496 0.681432 0.985639 -0.429773
N2    N     N_R   0.168777 0.318030 0.487654 -0.429517
N3    N     N_R   0.668806 0.181948 0.987650 -0.429492
N4    N     N_R   0.669491 0.818565 0.485640 -0.429774
N5    N     N_R   0.829727 0.321040 0.212338 -0.435830
N6    N     N_R   0.831102 0.680117 0.709600 -0.436768
N7    N     N_R   0.331102 0.819882 0.209593 -0.436765
N8    N     N_R   0.329699 0.178942 0.712381 -0.435846
O1    O     O_2   0.914200 0.445720 0.903420 -0.474810
O2    O     O_3   0.028922 0.669316 0.494507 -0.554922
O3    O     O_3   0.528921 0.830684 0.994498 -0.554915
O4    O     O_3   0.528211 0.169413 0.496615 -0.555759
O5    O     O_3   0.049930 0.518940 0.045960 -0.458629
O6    O     O_3   0.049930 0.481060 0.545960 -0.457702
O7    O     O_3   0.549930 0.018940 0.045960 -0.457669
O8    O     O_3   0.549930 0.981060 0.545960 -0.458618
O9    O     O_2   0.211315 0.665638 0.773514 -0.527954
O10   O     O_2   0.210313 0.332981 0.273842 -0.528702
O11   O     O_2   0.710182 0.167227 0.773170 -0.528860
O12   O     O_2   0.914200 0.554280 0.403420 -0.456980
O13   O     O_2   0.711315 0.834366 0.273535 -0.527938
O14   O     O_2   0.132159 0.698598 0.206880 -0.572675
O15   O     O_2   0.131856 0.301797 0.710943 -0.573602
O16   O     O_2   0.632077 0.197927 0.211681 -0.573479
O17   O     O_2   0.632151 0.801395 0.706861 -0.572687
O18   O     O_2   0.790541 0.335059 0.431305 -0.520307
O19   O     O_2   0.791142 0.664896 0.925525 -0.517565
O20   O     O_2   0.291144 0.835100 0.425523 -0.517565
O21   O     O_2   0.290412 0.164771 0.930945 -0.520210
O22   O     O_2   0.865196 0.305714 0.985048 -0.592903
O23   O     O_2   0.414200 0.945720 0.903420 -0.456979
O24   O     O_2   0.867159 0.696504 0.484762 -0.593072
O25   O     O_2   0.367156 0.803498 0.984747 -0.593066
O26   O     O_2   0.365281 0.194423 0.485517 -0.593179
O27   O     O_3   0.950020 0.480960 0.143730 -0.454813
O28   O     O_3   0.950020 0.519040 0.643730 -0.454470
O29   O     O_3   0.450020 0.980960 0.143730 -0.454454
O30   O     O_3   0.450020 0.019040 0.643730 -0.454809
O31   O     O_3   0.985090 0.412220 0.642040 -0.492871
O32   O     O_3   0.985090 0.587780 0.142040 -0.493927
O33   O     O_3   0.485090 0.912220 0.642040 -0.493919
O34   O     O_2   0.414200 0.054280 0.403420 -0.474783
O35   O     O_3   0.485090 0.087780 0.142040 -0.492970
O36   O     O_2   0.914793 0.378508 0.774920 -0.435410
O37   O     O_2   0.915329 0.621742 0.278012 -0.434773
O38   O     O_2   0.415329 0.878259 0.778007 -0.434773
O39   O     O_2   0.414790 0.121491 0.274898 -0.435525
O40   O     O_3   0.868741 0.494571 0.095758 -0.617910
O41   O     O_3   0.870010 0.503646 0.575237 -0.623601
O42   O     O_3   0.370008 0.996355 0.075235 -0.623596
O43   O     O_3   0.368742 0.005429 0.595756 -0.617906
O44   O     O_3   0.972810 0.328591 0.667532 -0.583336
O45   O     O_3   0.129597 0.495260 0.631865 -0.622022
O46   O     O_3   0.972543 0.671411 0.164421 -0.582947
O47   O     O_3   0.472545 0.828589 0.664419 -0.582940
O48   O     O_3   0.472792 0.171421 0.167547 -0.583471
O49   O     O_2   0.085560 0.445380 0.786390 -0.424843
O50   O     O_2   0.085560 0.554620 0.286390 -0.424110
O51   O     O_2   0.585560 0.945380 0.786390 -0.424117
O52   O     O_2   0.585560 0.054620 0.286390 -0.424869
O53   O     O_3   0.014550 0.412170 0.047860 -0.480462
O54   O     O_3   0.014550 0.587830 0.547860 -0.477936
O55   O     O_3   0.514550 0.912170 0.047860 -0.477931
O56   O     O_3   0.129579 0.504724 0.131887 -0.622142
O57   O     O_3   0.514550 0.087830 0.547860 -0.480519
O58   O     O_2   0.090263 0.382582 0.948733 -0.409307
O59   O     O_2   0.090572 0.616927 0.449128 -0.409213
O60   O     O_2   0.590571 0.883070 0.949120 -0.409210
O61   O     O_2   0.590253 0.117439 0.448735 -0.409221
O62   O     O_3   0.629579 0.995274 0.631882 -0.622138
O63   O     O_3   0.629590 0.004732 0.131888 -0.622003
O64   O     O_3   0.028232 0.330596 0.996467 -0.555463
P1    P     P_3+3 0.909970 0.458430 0.077330 1.021417
P2    P     P_3+3 0.053415 0.625788 0.568304 1.055321
P3    P     P_3+3 0.553414 0.874210 0.068297 1.055340
P4    P     P_3+3 0.553193 0.125943 0.568798 1.054175
P5    P     P_3+3 0.946047 0.625843 0.133016 1.029696
P6    P     P_3+3 0.946297 0.373971 0.632345 1.030967
P7    P     P_3+3 0.446298 0.126033 0.132336 1.030602
P8    P     P_3+3 0.446048 0.874158 0.633012 1.029707
P9    P     P_3+3 0.909970 0.541570 0.577330 1.006472
P10   P     P_3+3 0.409970 0.958430 0.077330 1.006487
P11   P     P_3+3 0.409970 0.041570 0.577330 1.021432
P12   P     P_3+3 0.089830 0.458070 0.612460 1.021153
P13   P     P_3+3 0.089830 0.541930 0.112460 1.021543
P14   P     P_3+3 0.589830 0.958070 0.612460 1.021550
P15   P     P_3+3 0.589830 0.041930 0.112460 1.021128
P16   P     P_3+3 0.053199 0.374061 0.068753 1.054348

loop_
_geom_bond_atom_site_label_1
_geom_bond_atom_site_label_2
_ccdc_geom_bond_type
Ba2   P13   S    
C101  C106  A    
C111  P14   S    
C83   C87   A    
O53   P16   S    
C136  P10   S    
C22   H56   S    
C44   O16   D    
O38   P8    D    
Ba3   O8    S    
C78   H41   S    
C12   C108  A    
C38   C71   S    
O27   P1    S    
C55   C62   A    
O48   P7    S    
C120  N4    S    
C101  C119  A    
C4    C134  A    
C70   C88   A    
C57   C59   A    
C5    C9    A    
C51   C70   A    
C7    C11   A    
C14   H37   S    
Ba1   O49   S    
C66   C70   A    
Ba3   O51   S    
C18   H50   S    
C40   H85   S    
C40   C131  S    
C60   H64   S    
C83   I6    S    
C6    C136  A    
C37   H60   S    
C30   H9    S    
C3    P11   S    
C29   H4    S    
O1    P1    D    
C80   C129  S    
C112  C117  S    
C2    C93   A    
C94   O21   D    
C34   O44   S    
C123  C132  S    
C60   I3    S    
C11   N8    S    
C35   N1    Am   
O46   P5    S    
C7    H83   S    
C118  N2    S    
C91   N6    Am   
C84   I7    S    
O8    P14   S    
C1    I28   S    
Ba4   O35   S    
C19   I20   S    
Ba2   O6    S    
C16   C107  A    
C77   C125  S    
C123  H77   S    
C64   C68   A    
O56   P13   S    
C58   C115  A    
C21   H45   S    
C127  H90   S    
C67   C98   A    
C77   O64   S    
C6    C10   A    
C99   C117  A    
C46   C73   A    
C75   C81   A    
C76   H70   S    
Ba1   O28   S    
Ba2   O27   S    
O58   P16   D    
C77   H40   S    
C81   C86   A    
C36   H59   S    
O45   P12   S    
C51   C82   A    
C28   I26   S    
C47   C74   A    
C17   O56   S    
C55   H22   S    
C97   O25   D    
C121  H75   S    
C62   C66   A    
C96   N6    Am   
C62   H73   S    
O51   P14   D    
C28   O42   S    
C54   C115  A    
O61   P4    D    
C25   I23   S    
C126  N1    Am   
O7    P15   S    
C6    H82   S    
C65   C96   A    
C79   C128  S    
C96   O24   D    
C38   O48   S    
C103  P2    S    
C99   C103  A    
C78   C127  S    
C49   I2    S    
C101  I11   S    
O59   P2    D    
C71   H65   S    
C14   C105  A    
C9    N6    S    
C66   C97   A    
C49   H63   S    
C135  P9    S    
C28   C32   S    
C31   H15   S    
O60   P3    D    
Ba2   O12   S    
C61   C65   A    
C100  C118  A    
C113  H28   S    
C88   C92   A    
Ba1   P1    S    
C36   H12   S    
C33   H17   S    
C122  H76   S    
C26   O40   S    
C109  P12   S    
Ba3   O55   S    
C56   C63   A    
C19   O63   S    
C42   H87   S    
C34   H58   S    
C31   H10   S    
O35   P7    S    
C48   C75   A    
Ba4   O52   S    
C81   I5    S    
C41   H86   S    
O2    P2    S    
C53   C68   A    
C85   I8    S    
C20   O62   S    
C52   C93   A    
C14   C109  A    
C125  H18   S    
C45   N4    Am   
C16   H39   S    
C102  C107  A    
C56   H24   S    
C26   C30   S    
C3    C42   D    
C73   C84   A    
C2    N2    Am   
C38   H34   S    
C17   I18   S    
C82   C126  A    
C114  H29   S    
Ba2   O50   S    
C29   O43   S    
C113  C118  S    
O49   P12   D    
C68   C86   A    
C17   H49   S    
C124  H79   S    
C44   C48   A    
C4    C8    A    
C29   I27   S    
C18   O45   S    
C71   I4    S    
C20   H52   S    
Ba4   O34   S    
C127  H19   S    
Ba1   O6    S    
C43   O15   D    
O64   P16   S    
C42   C133  S    
C109  C113  A    
C25   H78   S    
C58   H26   S    
C34   H1    S    
C26   I24   S    
O33   P8    S    
C102  C120  A    
Ba3   Ba4   S    
C128  H91   S    
C129  I17   S    
C108  C112  A    
C10   N7    S    
C90   N5    Am   
C17   C21   S    
C59   C64   A    
Ba4   O7    S    
C59   H71   S    
C16   C111  A    
Ba3   O7    S    
C44   N3    Am   
O62   P14   S    
C126  O9    D    
C129  H92   S    
C91   O19   D    
C131  P5    S    
C57   H25   S    
C102  I13   S    
C85   C89   A    
C23   I22   S    
C74   H68   S    
C87   C91   A    
C53   C104  A    
C37   O47   S    
O31   P6    S    
C63   H74   S    
C77   H44   S    
C121  C130  S    
C98   O26   D    
C27   O41   S    
C78   H46   S    
C26   H89   S    
C67   C72   A    
O23   P10   D    
C35   O14   D    
C39   C134  D    
C20   C25   S    
C61   H72   S    
C12   C103  A    
O3    P3    S    
C65   C69   A    
C95   O22   D    
O12   P9    D    
C110  P15   S    
C12   H36   S    
C74   C85   A    
C1    C34   S    
C86   C90   A    
C50   C76   A    
C125  I14   S    
C30   H14   S    
C43   N2    Am   
C24   O13   D    
C71   H35   S    
C33   H13   S    
O55   P3    S    
O47   P8    S    
O32   P5    S    
C13   C104  A    
O42   P10   S    
C128  I16   S    
C43   C47   A    
C8    C121  D    
C15   C110  A    
C41   C136  D    
C29   C33   S    
C10   C123  D    
O4    P4    S    
C31   H6    S    
C39   C130  S    
C108  P13   S    
C107  P3    S    
C72   C89   A    
C32   H7    S    
O5    P13   S    
Ba4   P11   S    
C79   O3    S    
C13   O11   D    
C127  I15   S    
Ba3   P14   S    
C9    C122  D    
C134  P1    S    
C122  C131  S    
C56   C93   A    
C11   C124  D    
C37   H23   S    
C27   C31   S    
C80   H48   S    
C23   H55   S    
Ba4   O29   S    
O40   P1    S    
O39   P7    D    
C21   H53   S    
C32   H16   S    
O34   P11   D    
C75   H69   S    
Ba1   O31   S    
Ba2   O32   S    
Ba1   O53   S    
C22   H54   S    
O44   P6    S    
C18   I19   S    
C73   H66   S    
Ba2   O5    S    
C5    C135  A    
C116  H30   S    
C27   H2    S    
C100  I10   S    
Ba4   O57   S    
C92   O20   D    
C63   C67   A    
C114  C119  S    
C33   H8    S    
O43   P11   S    
C20   I21   S    
C55   C82   A    
C36   O46   S    
C48   C53   A    
C5    H81   S    
Ba1   O1    S    
C18   C22   S    
O41   P9    S    
C37   C60   S    
C60   H33   S    
C132  P8    S    
C52   C72   A    
Ba3   O23   S    
C19   H51   S    
C90   O18   D    
C105  P16   S    
C3    C7    A    
O29   P10   S    
C45   O17   D    
C128  H20   S    
C47   C52   A    
C76   C83   A    
C100  C105  A    
C30   H5    S    
C22   I12   S    
C45   C50   A    
O50   P13   D    
Ba1   Ba2   S    
O37   P5    D    
C57   C104  A    
C8    N5    S    
C28   H3    S    
C117  N1    S    
C84   C88   A    
C119  N3    S    
Ba2   O54   S    
C106  P4    S    
C112  H27   S    
C130  P6    S    
C19   C23   S    
Ba1   O5    S    
C49   H32   S    
O63   P15   S    
C92   N7    Am   
C125  H88   S    
C97   N7    Am   
C21   I1    S    
C98   N8    Am   
C79   H47   S    
O54   P2    S    
C80   O4    S    
Ba4   O8    S    
C69   C87   A    
C94   N8    Am   
C1    H62   S    
C24   N4    Am   
O6    P12   S    
C79   H42   S    
O28   P9    S    
C13   N3    Am   
C124  C133  S    
Ba3   O30   S    
C4    H80   S    
C1    H31   S    
C27   I25   S    
C15   H38   S    
C110  C114  A    
C111  C116  A    
C25   H57   S    
Ba2   P9    S    
C50   C54   A    
C15   C106  A    
C95   N5    Am   
C41   C132  S    
C58   C61   A    
C80   H43   S    
O57   P4    S    
C24   C115  A    
C129  H21   S    
C32   H11   S    
C40   C135  D    
C46   C51   A    
O52   P15   D    
C78   O2    S    
Ba4   P15   S    
Ba1   P12   S    
C39   H84   S    
C64   C95   A    
Ba3   P10   S    
C99   I9    S    
O36   P6    D    
C23   H67   S    
C133  P7    S    
C35   C46   A    
C36   C49   S    
C38   H61   S    
O30   P11   S    
C89   C94   A    
Ba3   O33   S    
C116  C120  S    
C54   C69   A    
C2    O10   D    
