data_mof_unit_57682.cif
_audit_creation_date              2013-03-05T15:42:28-0500
_audit_creation_method            fapswitch 2.2
_symmetry_space_group_name_H-M    P1
_symmetry_Int_Tables_number       1
_space_group_crystal_system       triclinic
_cell_length_a                    7.747686
_cell_length_b                    8.570302
_cell_length_c                    23.396352
_cell_angle_alpha                 91.046628
_cell_angle_beta                  85.80748
_cell_angle_gamma                 93.777167
_cell_volume                      1545.85408206

loop_
_atom_site_label
_atom_site_type_symbol
_atom_site_description
_atom_site_fract_x
_atom_site_fract_y
_atom_site_fract_z
_atom_type_partial_charge
O1    O     O_R   0.389250 0.738570 0.503790 -0.612497
O2    O     O_R   0.610750 0.261430 0.496210 -0.611718
O3    O     O_R   0.678390 0.711620 0.493890 -0.628292
O4    O     O_R   0.321610 0.288380 0.506110 -0.627135
C1    C     C_R   0.545946 0.794849 0.498511 0.972430
C2    C     C_R   0.454055 0.205151 0.501496 0.974320
O5    O     O_R   0.355400 0.513520 0.588790 -0.616475
O6    O     O_R   0.644600 0.486480 0.411210 -0.619228
O7    O     O_R   0.644550 0.486570 0.578900 -0.628915
O8    O     O_R   0.355450 0.513430 0.421100 -0.628887
C3    C     C_R   0.502365 0.500950 0.610658 0.904938
C4    C     C_R   0.497742 0.499537 0.389379 0.902307
Zn1   Zn    Zn3+2 0.306930 0.518000 0.506610 0.961583
Zn2   Zn    Zn3+2 0.693070 0.482000 0.493390 0.959562
C5    C     C_R   0.438169 0.360234 0.118411 0.581580
C6    C     C_R   0.538503 0.651790 0.882066 0.581201
N1    N     N_R   0.473013 0.496024 0.148164 -0.345029
N2    N     N_R   0.512142 0.514765 0.852253 -0.343805
C7    C     C_R   0.503510 0.637020 0.121616 0.597925
C8    C     C_R   0.471422 0.375223 0.878903 0.587533
C9    C     C_R   0.508780 0.644296 0.061988 -0.013521
C10   C     C_R   0.457897 0.369161 0.938628 -0.018340
C11   C     C_R   0.477920 0.505036 0.030378 -0.008021
C12   C     C_R   0.487465 0.508654 0.970249 -0.011163
C13   C     C_R   0.439344 0.361906 0.058730 -0.008523
C14   C     C_R   0.527797 0.651560 0.941882 -0.016609
C15   C     C_R   0.547492 0.786222 0.033375 -0.139790
C16   C     C_R   0.415743 0.227779 0.967275 -0.141756
C17   C     C_R   0.557096 0.789803 0.973782 -0.153481
C18   C     C_R   0.406551 0.224176 0.026866 -0.147626
O9    O     O_2   0.405985 0.224115 0.146548 -0.512463
O10   O     O_2   0.575672 0.787033 0.853729 -0.509393
O11   O     O_2   0.530594 0.768989 0.152982 -0.501386
O12   O     O_2   0.443844 0.243373 0.847517 -0.500788
H1    H     H_    0.572743 0.894364 0.056876 0.200398
H2    H     H_    0.390435 0.119647 0.943775 0.196174
H3    H     H_    0.589126 0.900649 0.952836 0.193975
H4    H     H_    0.374721 0.113309 0.047815 0.191550
C19   C     C_R   0.667352 0.477601 0.757534 0.371441
C20   C     C_R   0.644212 0.515066 0.232877 0.371790
C21   C     C_R   0.660106 0.471886 0.697974 -0.278578
C22   C     C_R   0.646925 0.519013 0.292424 -0.270120
H5    H     H_    0.773183 0.441104 0.671226 0.200698
H6    H     H_    0.769947 0.538390 0.311501 0.195159
C23   C     C_R   0.508213 0.505921 0.672808 -0.114057
C24   C     C_R   0.492469 0.497232 0.327279 -0.099596
C25   C     C_R   0.362312 0.546899 0.707265 -0.149739
C26   C     C_R   0.333724 0.471166 0.302516 -0.195045
H7    H     H_    0.243913 0.574176 0.688768 0.188667
H8    H     H_    0.213171 0.453102 0.328748 0.172498
C27   C     C_R   0.367710 0.553138 0.766206 -0.091914
C28   C     C_R   0.329481 0.467130 0.243404 -0.086056
H9    H     H_    0.253618 0.582842 0.792683 0.198744
H10   H     H_    0.206535 0.447593 0.224402 0.210904
C29   C     C_R   0.518172 0.518280 0.791445 0.176561
C30   C     C_R   0.483089 0.490090 0.208576 0.176862
C31   C     C_2   0.570158 0.958354 0.497657 -0.362891
C32   C     C_2   0.429844 0.041647 0.502363 -0.362682
H11   H     H_    0.702586 0.009637 0.493167 0.182410
H12   H     H_    0.297416 0.990364 0.506854 0.182425
N3    N     N_2   0.950330 0.457950 0.484560 -0.172320
N4    N     N_2   0.049670 0.542050 0.515440 -0.171369
H13   H     H_    0.014010 0.382751 0.456830 0.192006
H14   H     H_    0.985993 0.617253 0.543168 0.194855
N5    N     N_R   0.824280 0.440604 0.782529 0.213466
O13   O     O_R   0.858646 0.491796 0.833418 -0.386547
O14   O     O_R   0.939704 0.362776 0.752940 -0.384651
N6    N     N_R   0.804277 0.537372 0.197856 0.211290
O15   O     O_R   0.825746 0.465044 0.148718 -0.386141
O16   O     O_R   0.934059 0.622318 0.216753 -0.388702

loop_
_geom_bond_atom_site_label_1
_geom_bond_atom_site_label_2
_geom_bond_distance
_ccdc_geom_bond_type
N4    H14   1.029300 S    
O7    Zn2   2.008596 S    
C5    O9    1.349885 S    
O6    C4    1.293001 A    
C6    O10   1.349848 S    
C21   H5    1.083060 S    
C2    C32   1.401796 S    
C27   C29   1.396362 A    
N5    O14   1.301936 A    
C1    C31   1.401794 S    
C11   C12   1.404121 A    
C8    O12   1.350025 S    
C15   H1    1.082952 S    
C16   C18   1.391629 A    
C9    C15   1.403538 A    
C19   C21   1.398561 A    
C6    N2    1.366248 A    
C10   C16   1.403429 A    
O5    C3    1.293532 A    
C26   H8    1.083331 S    
C19   N5    1.443007 S    
N1    C30   1.423288 S    
C18   H4    1.082729 S    
C31   C32   1.336178 D    
O2    C2    1.274705 A    
O3    Zn2   1.978435 S    
C22   H6    1.083463 S    
N2    C29   1.420847 S    
C14   C17   1.403316 A    
O1    C1    1.274708 A    
C6    C14   1.395902 A    
O8    C4    1.294132 A    
C20   C22   1.394650 A    
C7    C9    1.395116 A    
C12   C14   1.409644 A    
C28   H10   1.082226 S    
C26   C28   1.385544 A    
N2    C8    1.366480 A    
O7    C3    1.294469 A    
C9    C11   1.408749 A    
C20   N6    1.439358 S    
N3    N4    1.273983 D    
O2    Zn2   1.955534 S    
C10   C12   1.409050 A    
C31   H11   1.087852 S    
O4    C2    1.284845 A    
C3    C23   1.457857 S    
C32   H12   1.087852 S    
C24   C26   1.400530 A    
O3    C1    1.284847 A    
O5    Zn1   1.987330 S    
C11   C13   1.409429 A    
O1    Zn1   1.955534 S    
C15   C17   1.391607 A    
C16   H2    1.082950 S    
C5    C13   1.396011 A    
C25   H7    1.083238 S    
N5    O13   1.301091 A    
C22   C24   1.401900 A    
C23   C25   1.399922 A    
C17   H3    1.082753 S    
C13   C18   1.403453 A    
N3    H13   1.029314 S    
N6    O16   1.301274 A    
C21   C23   1.403377 A    
N1    C7    1.367529 A    
C25   C27   1.382633 A    
O6    Zn2   1.987330 S    
C27   H9    1.083393 S    
C7    O11   1.350063 S    
C5    N1    1.366846 A    
Zn2   N3    2.012523 S    
O8    Zn1   2.008596 S    
C19   C29   1.412724 A    
Zn1   N4    2.012525 S    
C28   C30   1.397231 A    
O4    Zn1   1.978435 S    
C8    C10   1.395274 A    
N6    O15   1.301233 A    
C20   C30   1.411204 A    
C4    C24   1.456199 S    
