data_mof_unit_25559.cif
_audit_creation_date              2012-12-10T17:50:15-0500
_audit_creation_method            fapswitch 2.2
_symmetry_space_group_name_H-M    P1
_symmetry_Int_Tables_number       1
_space_group_crystal_system       triclinic
_cell_length_a                    10.615944
_cell_length_b                    14.714747
_cell_length_c                    14.746337
_cell_angle_alpha                 65.087009
_cell_angle_beta                  103.398678
_cell_angle_gamma                 103.02512
_cell_volume                      2010.90249252

loop_
_atom_site_label
_atom_site_type_symbol
_atom_type_description
_atom_site_fract_x
_atom_site_fract_y
_atom_site_fract_z
_atom_type_partial_charge
C1    C     C_R   0.478857 0.119647 0.312390 0.792882
C2    C     C_R   0.528566 0.533640 0.950119 0.067169
C3    C     C_R   0.518784 0.491328 0.877973 -0.221640
C4    C     C_R   0.555461 0.510271 0.127310 -0.223501
C5    C     C_R   0.501409 0.387431 0.905288 -0.237201
C6    C     C_R   0.575314 0.614235 0.100086 -0.217817
C7    C     C_R   0.713542 0.281998 0.671839 -0.303895
C8    C     C_R   0.287664 0.718451 0.327475 -0.299241
C9    C     C_R   0.681389 0.201845 0.640285 0.053243
C10   C     C_R   0.319424 0.798481 0.359178 0.053403
C11   C     C_R   0.520354 0.285911 0.508648 0.021568
C12   C     C_R   0.522658 0.880331 0.687638 0.794670
C13   C     C_R   0.479471 0.714001 0.491570 0.023777
C14   C     C_R   0.549545 0.371420 0.535846 -0.052617
C15   C     C_R   0.450700 0.628613 0.464208 -0.053140
C16   C     C_R   0.259402 0.000182 0.499935 0.785955
C17   C     C_R   0.740591 0.999827 0.500050 0.785577
C18   C     C_R   0.647118 0.366927 0.621157 0.146347
C19   C     C_R   0.353304 0.633143 0.378795 0.148026
C20   C     C_R   0.484641 0.459568 0.482619 0.039524
C21   C     C_R   0.515966 0.540613 0.517258 0.042136
C22   C     C_R   0.610925 0.530958 0.604193 -0.262702
C23   C     C_R   0.490071 0.291618 0.178998 -0.252355
C24   C     C_R   0.390098 0.469394 0.395445 -0.264112
C25   C     C_R   0.676503 0.446418 0.655369 0.156373
C26   C     C_R   0.324129 0.553718 0.344552 0.159805
C27   C     C_3   0.009535 0.923690 0.475829 -0.130925
C28   C     C_3   0.990440 0.076329 0.524138 -0.131865
C29   C     C_3   0.932266 0.012541 0.407426 -0.168673
C30   C     C_3   0.067707 0.987479 0.592540 -0.167648
C31   C     C_3   0.877579 0.999997 0.500064 0.020587
C32   C     C_3   0.122402 0.000021 0.499905 0.020393
C33   C     C_3   0.952609 0.911262 0.568502 -0.169583
C34   C     C_R   0.524596 0.708383 0.821112 -0.256046
C35   C     C_3   0.047367 0.088757 0.431465 -0.171857
C36   C     C_R   0.475227 0.187212 0.205264 -0.053083
C37   C     C_R   0.539270 0.812794 0.795128 -0.052801
C38   C     C_R   0.472498 0.216753 0.030736 -0.201922
C39   C     C_R   0.582087 0.784384 0.972616 -0.195408
C40   C     C_R   0.465309 0.149811 0.130550 -0.199554
C41   C     C_R   0.569539 0.850737 0.871370 -0.199205
C42   C     C_R   0.504112 0.360877 0.080031 0.091195
C43   C     C_R   0.540916 0.640034 0.922555 0.088266
C44   C     C_R   0.492325 0.321703 0.005023 0.166601
C45   C     C_R   0.566456 0.679555 0.998706 0.164580
C46   C     C_R   0.528366 0.467535 0.053597 0.063283
Cu1   Cu    Cu3+1 0.465750 0.918270 0.475680 0.932806
Cu2   Cu    Cu3+1 0.534250 0.081730 0.524320 0.931912
H1    H     H_    0.873635 0.022716 0.331818 0.131048
H2    H     H_    0.364852 0.412247 0.364342 0.123799
H3    H     H_    0.019881 0.861115 0.455989 0.141609
H4    H     H_    0.980087 0.138904 0.543975 0.141161
H5    H     H_    0.910553 0.838705 0.624395 0.128468
H6    H     H_    0.089410 0.161320 0.375573 0.126277
H7    H     H_    0.581612 0.931355 0.852856 0.151929
H8    H     H_    0.453667 0.069160 0.149369 0.154118
H9    H     H_    0.464423 0.186509 0.973788 0.132663
H10   H     H_    0.603088 0.814976 0.030626 0.133095
H11   H     H_    0.494544 0.358345 0.847599 0.145830
H12   H     H_    0.126321 0.977311 0.668151 0.132058
H13   H     H_    0.596068 0.643645 0.159018 0.149809
H14   H     H_    0.496522 0.681923 0.760527 0.151177
H15   H     H_    0.489179 0.316862 0.237454 0.144439
H16   H     H_    0.528149 0.536406 0.799749 0.140211
H17   H     H_    0.565935 0.465754 0.207499 0.145769
H18   H     H_    0.793039 0.509138 0.753357 0.219754
H19   H     H_    0.732510 0.386391 0.806625 0.212370
H20   H     H_    0.230984 0.503219 0.231742 0.219804
H21   H     H_    0.135532 0.544349 0.278374 0.213645
H22   H     H_    0.555088 0.719193 0.552542 0.121765
H23   H     H_    0.444302 0.280567 0.447968 0.121359
H24   H     H_    0.269747 0.864319 0.318641 0.126801
H25   H     H_    0.731564 0.136233 0.680428 0.126286
H26   H     H_    0.789632 0.276467 0.736333 0.166891
H27   H     H_    0.212770 0.724502 0.262186 0.166601
H28   H     H_    0.635968 0.588026 0.635386 0.120927
N1    N     N_R   0.585750 0.204560 0.560800 -0.175598
N2    N     N_R   0.414250 0.795440 0.439200 -0.176068
N3    N     N_3   0.772955 0.440687 0.743492 -0.599260
N4    N     N_3   0.227483 0.559339 0.256617 -0.600890
O1    O     O_R   0.454850 0.022100 0.338110 -0.589896
O2    O     O_R   0.545150 0.977900 0.661890 -0.589893
O3    O     O_R   0.512700 0.160150 0.379180 -0.589979
O4    O     O_R   0.487300 0.839850 0.620820 -0.590668
O5    O     O_R   0.287930 0.931000 0.479440 -0.586222
O6    O     O_R   0.712070 0.069000 0.520560 -0.586701
O7    O     O_R   0.345780 0.069050 0.520520 -0.583928
O8    O     O_R   0.654220 0.930950 0.479480 -0.583848

loop_
_geom_bond_atom_site_label_1
_geom_bond_atom_site_label_2
_ccdc_geom_bond_type
H20   N4    S    
C38   C40   A    
C6    C45   A    
C27   C29   S    
C34   C37   A    
C14   C18   A    
C22   H28   S    
C10   N2    A    
C39   C41   A    
C4    C46   A    
C3    H16   S    
C27   C33   S    
C15   C19   A    
H18   N3    S    
C23   C42   A    
C9    H25   S    
Cu1   O5    S    
C6    H13   S    
C24   C26   A    
C4    H17   S    
C11   C14   A    
C11   H23   S    
C13   H22   S    
C1    O1    A    
C17   O8    A    
C34   H14   S    
C12   O4    A    
C42   C46   A    
C12   C37   S    
C19   C26   A    
C41   H7    S    
C11   N1    A    
C20   C24   A    
C28   C35   S    
C40   H8    S    
C22   C25   A    
C30   H12   S    
C16   O7    A    
C31   C33   S    
C2    C46   A    
C39   C45   A    
C23   H15   S    
C21   C22   A    
C35   H6    S    
C33   H5    S    
C18   C25   A    
C42   C44   A    
C27   H3    S    
C7    H26   S    
C24   H2    S    
C8    C19   A    
C5    H11   S    
C17   O6    A    
C32   C35   S    
C14   C20   A    
C36   C40   A    
H19   N3    S    
C4    C6    A    
C29   H1    S    
C39   H10   S    
C8    H27   S    
C26   N4    S    
Cu2   N1    S    
C38   C44   A    
C38   H9    S    
Cu1   Cu2   S    
C2    C43   A    
C7    C18   A    
Cu2   O7    S    
C12   O2    A    
C9    N1    A    
Cu1   O4    S    
C43   C45   A    
C5    C44   A    
C13   C15   A    
C16   O5    A    
C17   C31   S    
Cu2   O6    S    
C1    O3    A    
C7    C9    A    
C13   N2    A    
C30   C33   S    
C27   C32   S    
C25   N3    S    
C28   C31   S    
C34   C43   A    
C3    C5    A    
C16   C32   S    
C29   C35   S    
Cu2   O3    S    
Cu1   O8    S    
C28   C30   S    
C2    C3    A    
C29   C31   S    
C30   C32   S    
C28   H4    S    
Cu2   O2    S    
Cu1   O1    S    
C37   C41   A    
C15   C21   A    
C20   C21   A    
C8    C10   A    
C23   C36   A    
H21   N4    S    
Cu1   N2    S    
C1    C36   S    
C10   H24   S    
