data_mof_unit_50287.cif
_audit_creation_date              2012-12-10T16:37:26-0500
_audit_creation_method            fapswitch 2.2
_symmetry_space_group_name_H-M    P1
_symmetry_Int_Tables_number       1
_space_group_crystal_system       triclinic
_cell_length_a                    17.109525
_cell_length_b                    17.182494
_cell_length_c                    17.082467
_cell_angle_alpha                 67.028876
_cell_angle_beta                  67.362076
_cell_angle_gamma                 67.025906
_cell_volume                      4093.62397628

loop_
_atom_site_label
_atom_site_type_symbol
_atom_type_description
_atom_site_fract_x
_atom_site_fract_y
_atom_site_fract_z
_atom_type_partial_charge
C1    C     C_R   0.417524 0.017205 0.669824 -0.231963
C2    C     C_R   0.434541 0.686427 0.967747 -0.224953
C3    C     C_R   0.998319 0.579444 0.328558 -0.240600
C4    C     C_R   0.058857 0.410216 0.661423 -0.213059
C5    C     C_R   0.976637 0.176650 0.433351 0.923173
C6    C     C_R   0.023516 0.823899 0.568013 0.937322
C7    C     C_R   0.178193 0.436482 0.965603 0.903053
C8    C     C_R   0.822107 0.564621 0.029977 0.937243
C9    C     C_R   0.434154 0.973211 0.176971 0.939161
C10   C     C_R   0.564835 0.030196 0.822037 0.913110
C11   C     C_R   0.567734 0.823949 0.022609 0.940254
C12   C     C_R   0.589568 0.957969 0.336019 -0.224783
C13   C     C_R   0.435563 0.178329 0.967521 0.915202
C14   C     C_R   0.034210 0.563732 0.822172 0.913586
C15   C     C_R   0.978496 0.432515 0.176438 0.930697
C16   C     C_R   0.822001 0.031067 0.564517 0.927995
C17   C     C_R   0.177508 0.972420 0.434436 0.923730
C18   C     C_R   0.459949 0.036041 0.711842 -0.177481
C19   C     C_R   0.543872 0.947002 0.291329 -0.173583
C20   C     C_R   0.971881 0.728391 0.490246 -0.154584
C21   C     C_R   0.993853 0.278167 0.536356 -0.175771
C22   C     C_R   0.710671 0.457729 0.037964 -0.154610
C23   C     C_R   0.971754 0.681265 0.440617 -0.225906
C24   C     C_R   0.290594 0.545533 0.942279 -0.169014
C25   C     C_R   0.292955 0.946651 0.542900 -0.176780
C26   C     C_R   0.713298 0.035561 0.458100 -0.155245
C27   C     C_R   0.542245 0.290832 0.950381 -0.171752
C28   C     C_R   0.483492 0.731689 0.971811 -0.158046
C29   C     C_R   0.999068 0.532034 0.279271 -0.171030
C30   C     C_R   0.072149 0.456674 0.703572 -0.166468
C31   C     C_R   0.548701 0.003991 0.547979 0.031836
C32   C     C_R   0.458513 0.974412 0.457518 0.031772
C33   C     C_R   0.019282 0.544913 0.548486 0.029877
C34   C     C_R   0.011672 0.320767 0.578208 -0.233479
C35   C     C_R   0.001937 0.450388 0.454530 0.033668
C36   C     C_R   0.547642 0.550140 0.999708 0.030233
C37   C     C_R   0.456090 0.458795 0.972336 0.029659
C38   C     C_R   0.590879 0.994557 0.461636 0.048331
C39   C     C_R   0.417588 0.979131 0.545135 0.049358
C40   C     C_R   0.031088 0.453133 0.583739 0.045559
C41   C     C_R   0.997707 0.540443 0.416821 0.056443
C42   C     C_R   0.464322 0.594956 0.982442 0.050855
C43   C     C_R   0.542522 0.416688 0.981865 0.050801
C44   C     C_R   0.546764 0.976847 0.417426 0.052012
C45   C     C_R   0.666259 0.415868 0.022936 -0.228172
C46   C     C_R   0.461330 0.997826 0.589080 0.052664
C47   C     C_R   0.416434 0.548148 0.973225 0.049984
C48   C     C_R   0.585703 0.460516 0.001121 0.051842
C49   C     C_R   0.015823 0.407458 0.539580 0.053475
C50   C     C_R   0.997841 0.589048 0.467077 0.049087
C51   C     C_R   0.550770 0.031828 0.678504 0.028203
C52   C     C_R   0.451239 0.961566 0.322204 0.021003
C53   C     C_R   0.009421 0.685539 0.563266 0.015487
C54   C     C_R   0.988891 0.315140 0.447211 0.035396
C55   C     C_R   0.678566 0.550541 0.030157 0.034567
C56   C     C_R   0.331887 0.589418 0.959408 -0.219273
C57   C     C_R   0.324286 0.454112 0.950128 0.023717
C58   C     C_R   0.323603 0.961015 0.450474 0.024501
C59   C     C_R   0.679289 0.032130 0.549649 0.022541
C60   C     C_R   0.451645 0.324463 0.954986 0.026765
C61   C     C_R   0.560264 0.687529 0.003492 0.021821
C62   C     C_R   0.991083 0.444281 0.316893 0.030933
C63   C     C_R   0.050543 0.549051 0.675447 0.024847
C64   C     C_R   0.598466 0.041707 0.725698 -0.152301
C65   C     C_R   0.397809 0.970737 0.270102 -0.141174
C66   C     C_R   0.028601 0.730707 0.605827 -0.148369
C67   C     C_R   0.336388 0.960117 0.588033 -0.224264
C68   C     C_R   0.983771 0.267834 0.396234 -0.142480
C69   C     C_R   0.726625 0.599201 0.038374 -0.160400
C70   C     C_R   0.275604 0.404683 0.946188 -0.146930
C71   C     C_R   0.271151 0.969512 0.397426 -0.146421
C72   C     C_R   0.726004 0.042927 0.597613 -0.149753
C73   C     C_R   0.402993 0.275772 0.949791 -0.155006
C74   C     C_R   0.604516 0.731116 0.023893 -0.144465
C75   C     C_R   0.986631 0.394272 0.267776 -0.140443
C76   C     C_R   0.050566 0.598115 0.725573 -0.157190
C77   C     C_R   0.683905 0.053514 0.683528 0.081191
C78   C     C_R   0.672722 0.011871 0.417965 -0.230865
C79   C     C_R   0.306060 0.986648 0.305414 0.071689
C80   C     C_R   0.052939 0.686335 0.686168 0.091050
C81   C     C_R   0.995073 0.304333 0.304897 0.055534
C82   C     C_R   0.686136 0.686343 0.044569 0.073311
C83   C     C_R   0.318067 0.318749 0.936290 0.090841
C84   C     C_R   0.593462 0.021455 0.592702 0.069360
C85   C     C_R   0.410627 0.967007 0.409501 0.076661
C86   C     C_R   0.027553 0.592871 0.594971 0.074399
C87   C     C_R   0.993585 0.403073 0.406018 0.067563
C88   C     C_R   0.594941 0.596037 0.012893 0.066895
C89   C     C_R   0.585306 0.333700 0.966292 -0.221665
C90   C     C_R   0.410317 0.412110 0.959824 0.072833
C91   C     C_3   0.729917 0.074338 0.732846 -0.762428
C92   C     C_3   0.244270 0.021002 0.246282 -0.747914
C93   C     C_3   0.074634 0.732255 0.734457 -0.761509
C94   C     C_3   0.021215 0.244537 0.246562 -0.754294
C95   C     C_3   0.735757 0.732200 0.066121 -0.737814
C96   C     C_3   0.273385 0.271112 0.913223 -0.791073
H1    H     H_    0.347929 0.023841 0.700257 0.134295
H2    H     H_    0.375698 0.727466 0.946449 0.131764
H3    H     H_    0.005998 0.645108 0.292957 0.137300
H4    H     H_    0.074016 0.339958 0.690391 0.133754
H5    H     H_    0.778197 0.111482 0.693098 0.231707
H6    H     H_    0.682944 0.123698 0.767521 0.220906
H7    H     H_    0.760138 0.011870 0.778510 0.252923
H8    H     H_    0.264036 0.064148 0.179295 0.230939
H9    H     H_    0.228374 0.963751 0.246021 0.255231
H10   H     H_    0.185399 0.071640 0.268507 0.211819
H11   H     H_    0.113640 0.778721 0.693100 0.230026
H12   H     H_    0.659556 0.947831 0.305775 0.133423
H13   H     H_    0.012235 0.763947 0.778478 0.251359
H14   H     H_    0.122722 0.685531 0.771559 0.217233
H15   H     H_    0.064416 0.263562 0.179637 0.232380
H16   H     H_    0.070732 0.183486 0.267549 0.214866
H17   H     H_    0.960261 0.233778 0.247584 0.253737
H18   H     H_    0.699878 0.780836 0.103111 0.225771
H19   H     H_    0.767792 0.685787 0.118329 0.219732
H20   H     H_    0.782761 0.760320 0.003804 0.247288
H21   H     H_    0.223705 0.314209 0.877180 0.230102
H22   H     H_    0.321816 0.235153 0.865058 0.225786
H23   H     H_    0.944731 0.719581 0.384550 0.136945
H24   H     H_    0.242837 0.225768 0.974902 0.255107
H25   H     H_    0.415592 0.059513 0.767637 0.180740
H26   H     H_    0.585781 0.925098 0.233993 0.179402
H27   H     H_    0.936568 0.798769 0.470014 0.177103
H28   H     H_    0.985273 0.215656 0.580037 0.188975
H29   H     H_    0.770631 0.408615 0.057226 0.173321
H30   H     H_    0.233742 0.588033 0.918045 0.172302
H31   H     H_    0.236605 0.923015 0.584279 0.177578
H32   H     H_    0.767994 0.064604 0.408805 0.170651
H33   H     H_    0.585134 0.233608 0.928674 0.178054
H34   H     H_    0.017877 0.284803 0.644398 0.133175
H35   H     H_    0.458712 0.802624 0.943450 0.180899
H36   H     H_    0.013148 0.568437 0.210727 0.188764
H37   H     H_    0.101856 0.418017 0.757461 0.163566
H38   H     H_    0.697169 0.345185 0.032010 0.132017
H39   H     H_    0.294792 0.656927 0.960221 0.131305
H40   H     H_    0.306036 0.951439 0.657926 0.133565
H41   H     H_    0.705183 0.015564 0.348863 0.133386
H42   H     H_    0.654839 0.301762 0.960153 0.135084
O1    O     O_R   0.982940 0.138950 0.510160 -0.661560
O2    O     O_R   0.982940 0.510160 0.138950 -0.657174
O3    O     O_R   0.861050 0.017060 0.489840 -0.655407
O4    O     O_R   0.138950 0.982940 0.510160 -0.653138
O5    O     O_R   0.867700 0.025880 0.612340 -0.630807
O6    O     O_R   0.132300 0.974120 0.387660 -0.631128
O7    O     O_R   0.025880 0.612340 0.867700 -0.635746
O8    O     O_R   0.974120 0.387660 0.132300 -0.629076
O9    O     O_R   0.612340 0.867700 0.025880 -0.635407
O10   O     O_R   0.387660 0.132300 0.974120 -0.638213
O11   O     O_R   0.387660 0.974120 0.132300 -0.625338
O12   O     O_R   0.017060 0.861050 0.489840 -0.646103
O13   O     O_R   0.612340 0.025880 0.867700 -0.636321
O14   O     O_R   0.132300 0.387660 0.974120 -0.638268
O15   O     O_R   0.867700 0.612340 0.025880 -0.630002
O16   O     O_R   0.974120 0.132300 0.387660 -0.636296
O17   O     O_R   0.025880 0.867700 0.612340 -0.636009
O18   O     O_R   0.138950 0.510160 0.982940 -0.651700
O19   O     O_R   0.861050 0.489840 0.017060 -0.644054
O20   O     O_R   0.510160 0.982940 0.138950 -0.651967
O21   O     O_R   0.489840 0.017060 0.861050 -0.660859
O22   O     O_R   0.489840 0.861050 0.017060 -0.650621
O23   O     O_R   0.510160 0.138950 0.982940 -0.647593
O24   O     O_R   0.017060 0.489840 0.861050 -0.640578
Zn1   Zn    Zn3+2 0.004880 0.004880 0.583590 0.903158
Zn2   Zn    Zn3+2 0.995120 0.995120 0.416410 0.908502
Zn3   Zn    Zn3+2 0.004880 0.583590 0.004880 0.901735
Zn4   Zn    Zn3+2 0.995120 0.416410 0.995120 0.912393
Zn5   Zn    Zn3+2 0.583590 0.004880 0.004880 0.907913
Zn6   Zn    Zn3+2 0.416410 0.995120 0.995120 0.905600

loop_
_geom_bond_atom_site_label_1
_geom_bond_atom_site_label_2
_ccdc_geom_bond_type
C15   C75   S    
C52   C65   A    
C78   H41   S    
C19   H26   S    
C37   C43   A    
C65   C79   A    
C64   C77   A    
C94   H15   S    
C36   C42   A    
C16   C72   S    
C7    C70   S    
C71   C79   A    
O7    Zn3   S    
C36   C88   A    
C14   O7    A    
C9    O11   A    
C1    C18   A    
C43   C89   A    
C37   C90   A    
C17   O6    A    
C68   C81   A    
O18   Zn3   S    
C96   H22   S    
C52   C85   A    
C74   C82   A    
C27   C60   A    
C23   H23   S    
C54   C87   A    
O13   Zn5   S    
C1    C46   A    
C29   H36   S    
C54   C68   A    
C63   C76   A    
C83   C96   S    
C95   H18   S    
C5    O16   A    
C60   C73   A    
O21   Zn6   S    
C32   C39   A    
C55   C88   A    
C3    C29   A    
C20   H27   S    
C69   C82   A    
O24   Zn4   S    
C35   C87   A    
C19   C52   A    
C3    C41   A    
C7    O18   A    
C4    C40   A    
C95   H19   S    
C24   C57   A    
C31   C46   A    
C25   C67   A    
C35   C49   A    
C36   C48   A    
C53   C86   A    
C57   C70   A    
C37   C47   A    
C43   C48   A    
C6    O17   A    
C59   C72   A    
C28   C61   A    
O8    Zn4   S    
C16   O3    A    
C30   C63   A    
O6    Zn2   S    
C24   H30   S    
O11   Zn6   S    
C91   H5    S    
C5    C68   S    
C35   C41   A    
C8    O19   A    
O5    Zn1   S    
C94   H17   S    
C11   O22   A    
C5    O1    A    
C32   C44   A    
C33   C40   A    
C57   C90   A    
C96   H21   S    
C16   O5    A    
C59   C84   A    
C1    H1    S    
O4    Zn1   S    
C12   H12   S    
C8    C69   S    
C75   C81   A    
C22   H29   S    
C26   H32   S    
C21   C34   A    
C38   C78   A    
O17   Zn1   S    
C33   C50   A    
C31   C84   A    
C17   O4    A    
C14   C76   S    
C14   O24   A    
C33   C86   A    
C38   C44   A    
C72   C77   A    
C8    O15   A    
C61   C88   A    
C10   O13   A    
C20   C23   A    
C95   H20   S    
C30   H37   S    
C45   H38   S    
C26   C78   A    
C70   C83   A    
C2    H2    S    
C79   C92   S    
O23   Zn5   S    
O9    Zn5   S    
C39   C46   A    
C92   H10   S    
C13   C73   S    
C17   C71   S    
C4    H4    S    
C63   C86   A    
C27   H33   S    
O20   Zn5   S    
C25   C58   A    
C91   H6    S    
C58   C85   A    
C41   C50   A    
C56   H39   S    
C66   C80   A    
C15   O2    A    
C26   C59   A    
C45   C48   A    
O16   Zn2   S    
O2    Zn3   S    
C29   C62   A    
C77   C91   S    
C34   C49   A    
C82   C95   S    
O15   Zn3   S    
C39   C67   A    
C96   H24   S    
C10   C64   S    
C51   C64   A    
C76   C80   A    
C91   H7    S    
C20   C53   A    
C23   C50   A    
C11   C74   S    
O19   Zn4   S    
C15   O8    A    
O14   Zn4   S    
C13   O23   A    
C22   C55   A    
C60   C90   A    
C18   C51   A    
C24   C56   A    
O12   Zn2   S    
C62   C87   A    
C93   H14   S    
C31   C38   A    
C28   H35   S    
C55   C69   A    
C21   H28   S    
O1    Zn1   S    
C67   H40   S    
C25   H31   S    
C12   C44   A    
C53   C66   A    
C93   H11   S    
C81   C94   S    
C11   O9    A    
C21   C54   A    
C9    O20   A    
C2    C42   A    
O10   Zn6   S    
C32   C85   A    
C51   C84   A    
C12   C19   A    
C94   H16   S    
C27   C89   A    
C42   C47   A    
O22   Zn6   S    
C58   C71   A    
C9    C65   S    
C92   H8    S    
C18   H25   S    
C7    O14   A    
C6    O12   A    
C3    H3    S    
C92   H9    S    
C6    C66   S    
C22   C45   A    
C34   H34   S    
O3    Zn2   S    
C89   H42   S    
C2    C28   A    
C13   O10   A    
C80   C93   S    
C10   O21   A    
C73   C83   A    
C4    C30   A    
C62   C75   A    
C40   C49   A    
C61   C74   A    
C93   H13   S    
C47   C56   A    
