data_mof_unit_14849.cif
_audit_creation_date              2012-12-10T18:10:44-0500
_audit_creation_method            fapswitch 2.2
_symmetry_space_group_name_H-M    P1
_symmetry_Int_Tables_number       1
_space_group_crystal_system       triclinic
_cell_length_a                    12.710118
_cell_length_b                    13.139486
_cell_length_c                    15.759343
_cell_angle_alpha                 92.459508
_cell_angle_beta                  103.681737
_cell_angle_gamma                 80.390831
_cell_volume                      2521.30378931

loop_
_atom_site_label
_atom_site_type_symbol
_atom_type_description
_atom_site_fract_x
_atom_site_fract_y
_atom_site_fract_z
_atom_type_partial_charge
C1    C     C_R   0.437467 0.691612 0.490760 0.900137
C2    C     C_R   0.596158 0.195269 0.505827 -0.059540
C3    C     C_R   0.302099 0.845018 0.519992 0.009548
C4    C     C_R   0.502008 0.500575 0.661383 0.951782
C5    C     C_R   0.272003 0.951918 0.522714 -0.206005
C6    C     C_R   0.341012 0.016514 0.506589 -0.172286
C7    C     C_R   0.439407 0.975395 0.481870 0.099463
C8    C     C_R   0.456988 0.869963 0.459618 0.076675
C9    C     C_R   0.522022 0.034681 0.479710 0.086477
C10   C     C_R   0.612388 0.991715 0.444241 0.165448
C11   C     C_R   0.616918 0.893361 0.407465 -0.198854
C12   C     C_3   0.430238 0.596541 0.036788 -0.149909
C13   C     C_R   0.538965 0.833650 0.413658 -0.163510
C14   C     C_R   0.519182 0.134432 0.514407 -0.231136
C15   C     C_R   0.688827 0.149153 0.476556 -0.143435
C16   C     C_R   0.561847 0.307765 0.509553 0.876348
C17   C     C_R   0.395271 0.802874 0.486966 -0.133349
C18   C     C_R   0.073358 0.408883 0.340594 -0.210056
C19   C     C_R   0.805146 0.617859 0.614665 0.119240
C20   C     C_R   0.909537 0.645142 0.638948 -0.249812
C21   C     C_R   0.986874 0.609117 0.591614 -0.192043
C22   C     C_R   0.959771 0.546992 0.517768 0.030400
C23   C     C_3   0.500563 0.496288 0.083254 0.087643
C24   C     C_R   0.851268 0.522759 0.492853 0.086972
C25   C     C_R   0.037807 0.503406 0.469668 -0.013544
C26   C     C_R   0.999888 0.458653 0.387353 0.082301
C27   C     C_R   0.889663 0.451949 0.356929 -0.260632
C28   C     C_R   0.497934 0.499673 0.338663 0.913442
C29   C     C_R   0.824128 0.463188 0.416679 -0.003833
C30   C     C_R   0.152174 0.497472 0.501345 -0.050037
C31   C     C_R   0.185285 0.399215 0.376682 0.100041
C32   C     C_3   0.425212 0.587043 0.937330 -0.381678
C33   C     C_3   0.623406 0.504377 0.977553 -0.186655
C34   C     C_3   0.455110 0.398398 0.037539 -0.282556
C35   C     C_3   0.622900 0.486885 0.075140 -0.183567
C36   C     C_1   0.494396 0.497854 0.249262 -0.118381
C37   C     C_3   0.507829 0.491966 0.918105 0.040536
C38   C     C_2   0.469665 0.694094 0.078475 0.434257
C39   C     C_2   0.237430 0.782920 0.557884 0.410735
C40   C     C_2   0.261317 0.340709 0.327097 0.426094
C41   C     C_2   0.727104 0.661888 0.666821 0.507557
C42   C     C_2   0.777017 0.371531 0.422312 0.496592
C43   C     C_2   0.720292 0.439748 0.949174 0.459295
C44   C     C_2   0.691036 0.554736 0.138786 0.459714
C45   C     C_3   0.469177 0.389079 0.939709 -0.100538
C46   C     C_2   0.363276 0.371035 0.874869 0.560816
C47   C     C_2   0.555740 0.295954 0.930706 0.463494
C48   C     C_2   0.340608 0.391782 0.049139 0.521491
C49   C     C_1   0.495589 0.496835 0.174254 -0.149895
C50   C     C_1   0.509161 0.496480 0.826538 -0.089789
C51   C     C_1   0.507281 0.499257 0.751060 -0.123521
C52   C     C_R   0.696784 0.048098 0.445629 -0.174117
H1    H     H_    0.340101 0.579620 0.902115 0.178692
H2    H     H_    0.506559 0.330502 0.075058 0.095999
H3    H     H_    0.753484 0.189927 0.473617 0.158376
H4    H     H_    0.682353 0.861486 0.375943 0.156695
H5    H     H_    0.454933 0.168524 0.545814 0.161686
H6    H     H_    0.149107 0.805496 0.546513 0.048508
H7    H     H_    0.315159 0.098238 0.513816 0.139273
H8    H     H_    0.199020 0.985707 0.544493 0.145332
H9    H     H_    0.441387 0.658377 0.910636 0.232545
H10   H     H_    0.344381 0.309544 0.358577 0.116241
H11   H     H_    0.863955 0.410883 0.296173 0.185064
H12   H     H_    0.345093 0.603696 0.045313 0.178818
H13   H     H_    0.722895 0.621454 0.724197 0.042496
H14   H     H_    0.800781 0.333853 0.484984 0.038842
H15   H     H_    0.730232 0.447914 0.883423 0.083219
H16   H     H_    0.633737 0.585566 0.969309 0.209495
H17   H     H_    0.698323 0.547700 0.208346 0.071191
H18   H     H_    0.662848 0.406648 0.094422 0.160506
H19   H     H_    0.318360 0.428844 0.826824 0.057199
H20   H     H_    0.609129 0.256100 0.987806 0.090868
H21   H     H_    0.330700 0.333897 0.092496 0.119778
H22   H     H_    0.767444 0.015079 0.420490 0.145380
H23   H     H_    0.544965 0.757951 0.383603 0.151811
H24   H     H_    0.043414 0.372791 0.278269 0.200562
H25   H     H_    0.187355 0.533414 0.561777 0.169842
H26   H     H_    0.066055 0.633470 0.612346 0.164474
H27   H     H_    0.930988 0.695000 0.694822 0.166740
H28   H     H_    0.464794 0.712575 0.145368 0.056092
N1    N     N_R   0.222200 0.444690 0.455710 -0.153322
N2    N     N_R   0.776960 0.554780 0.543830 -0.164020
O1    O     O_R   0.366740 0.627160 0.478850 -0.584063
O2    O     O_2   0.282349 0.711382 0.607322 -0.576703
O3    O     O_2   0.230859 0.324723 0.248884 -0.578487
O4    O     O_2   0.672513 0.747226 0.649705 -0.543752
O5    O     O_2   0.722358 0.333551 0.358133 -0.609550
O6    O     O_2   0.789219 0.380327 0.998963 -0.540145
O7    O     O_2   0.740441 0.615510 0.114174 -0.519454
O8    O     O_2   0.327057 0.290714 0.876102 -0.541098
O9    O     O_2   0.569550 0.266587 0.858893 -0.546955
O10   O     O_2   0.259615 0.450705 0.011882 -0.560902
O11   O     O_R   0.544830 0.662520 0.507140 -0.584121
O12   O     O_R   0.410920 0.482310 0.608710 -0.587322
O13   O     O_R   0.589010 0.517670 0.637000 -0.650647
O14   O     O_R   0.455170 0.337480 0.492860 -0.652350
O15   O     O_R   0.633260 0.372840 0.521150 -0.629223
O16   O     O_R   0.410990 0.482330 0.363000 -0.633797
O17   O     O_R   0.589080 0.517690 0.391290 -0.613049
O18   O     O_2   0.506766 0.752521 0.039327 -0.523319
Zn1   Zn    Zn3+2 0.381090 0.476390 0.481110 0.966138
Zn2   Zn    Zn3+2 0.618910 0.523610 0.518890 0.962596

loop_
_geom_bond_atom_site_label_1
_geom_bond_atom_site_label_2
_ccdc_geom_bond_type
C8    C13   A    
C29   C42   S    
C27   C29   A    
C19   C20   A    
C18   C26   A    
C10   C52   A    
C7    C8    A    
C11   H4    S    
N1    Zn1   S    
C45   C46   S    
C41   O4    D    
C12   C23   S    
C26   C27   A    
C43   O6    D    
C32   H9    S    
C52   H22   S    
C5    C6    A    
C12   H12   S    
C16   O15   A    
C23   C49   S    
C40   H10   S    
C31   C40   S    
C24   N2    A    
C24   C29   A    
C30   H25   S    
C13   H23   S    
C35   H18   S    
C22   C25   A    
C21   H26   S    
C19   N2    A    
C2    C16   S    
C9    C10   A    
O15   Zn2   S    
C20   H27   S    
O13   Zn2   S    
C3    C39   S    
C21   C22   A    
C12   C32   S    
C48   H21   S    
C45   C47   S    
C16   O14   A    
C4    C51   S    
C33   C43   S    
O12   Zn1   S    
C38   O18   D    
C41   H13   S    
C25   C26   A    
C32   C37   S    
C39   H6    S    
C33   C37   S    
C15   H3    S    
C40   O3    D    
C9    C14   A    
C2    C15   A    
C4    O13   A    
C23   C34   S    
C50   C51   T    
N2    Zn2   S    
C44   H17   S    
C34   C45   S    
C15   C52   A    
C35   C44   S    
C46   H19   S    
C27   H11   S    
C4    O12   A    
C28   O17   A    
C43   H15   S    
C34   H2    S    
C23   C35   S    
C22   C24   A    
C34   C48   S    
C37   C45   S    
C32   H1    S    
C28   O16   A    
C25   C30   A    
C7    C9    A    
C14   H5    S    
C18   H24   S    
O1    Zn1   S    
C5    H8    S    
C47   O9    D    
C6    H7    S    
C3    C5    A    
O11   Zn2   S    
C39   O2    D    
C6    C7    A    
C46   O8    D    
C1    O1    A    
O16   Zn1   S    
C1    C17   S    
C8    C17   A    
C31   N1    A    
C30   N1    A    
C37   C50   S    
C11   C13   A    
C38   H28   S    
C33   C35   S    
C3    C17   A    
C12   C38   S    
C2    C14   A    
C47   H20   S    
C42   O5    D    
C10   C11   A    
C36   C49   T    
O17   Zn2   S    
C20   C21   A    
C28   C36   S    
C1    O11   A    
C48   O10   D    
C42   H14   S    
C18   C31   A    
O14   Zn1   S    
C44   O7    D    
C19   C41   S    
C33   H16   S    
