data_mof_unit_9337.cif
_audit_creation_date              2012-12-11T17:25:09-0500
_audit_creation_method            fapswitch 2.2
_symmetry_space_group_name_H-M    P1
_symmetry_Int_Tables_number       1
_space_group_crystal_system       triclinic
_cell_length_a                    6.954768
_cell_length_b                    20.54668
_cell_length_c                    24.463659
_cell_angle_alpha                 90.142741
_cell_angle_beta                  90.364092
_cell_angle_gamma                 89.394061
_cell_volume                      3495.5167445

loop_
_atom_site_label
_atom_site_type_symbol
_atom_type_description
_atom_site_fract_x
_atom_site_fract_y
_atom_site_fract_z
_atom_type_partial_charge
O1    O     O_R   0.507280 0.423750 0.460310 -0.535474
O2    O     O_R   0.171030 0.555650 0.437630 -0.536991
O3    O     O_R   0.004080 0.576250 0.539690 -0.536289
C1    C     C_R   0.339080 0.575673 0.421789 0.723298
O4    O     O_R   0.177330 0.422980 0.453960 -0.536176
O5    O     O_R   0.010420 0.442640 0.556140 -0.535123
C2    C     C_R   0.346463 0.399006 0.443311 0.715226
O6    O     O_R   0.500930 0.557360 0.443860 -0.535091
O7    O     O_3   0.340310 0.506600 0.533500 -0.367857
V1    V     V_3+5 0.064140 0.498780 0.493780 1.424498
O8    O     O_R   0.680890 0.444350 0.562370 -0.537670
C3    C     C_R   0.850543 0.424277 0.578056 0.729504
O9    O     O_R   0.674590 0.577020 0.546040 -0.537592
C4    C     C_R   0.842453 0.600971 0.556670 0.693435
V2    V     V_3+5 0.564550 0.501220 0.506220 1.423983
O10   O     O_3   0.838250 0.493400 0.466500 -0.366072
C5    C     C_R   0.977313 0.838110 0.911217 -0.086271
C6    C     C_R   0.846135 0.661842 0.588666 -0.042117
C7    C     C_R   0.050941 0.722532 0.905963 0.173406
C8    C     C_R   0.038049 0.780478 0.935901 -0.162074
C9    C     C_R   0.928945 0.838512 0.855524 -0.223279
C10   C     C_R   0.943088 0.781063 0.822909 0.065315
C11   C     C_R   0.004902 0.722591 0.849223 0.124372
C12   C     C_R   0.900699 0.779916 0.765097 0.027434
C13   C     C_R   0.920895 0.720641 0.734604 0.055754
C14   C     C_R   0.981711 0.664303 0.762837 -0.180224
C15   C     C_R   0.021796 0.665303 0.818377 -0.198368
C16   C     C_R   0.839334 0.836278 0.736906 -0.185757
C17   C     C_R   0.798445 0.836037 0.680911 0.140739
C18   C     C_R   0.817241 0.777789 0.650562 0.119354
C19   C     C_R   0.879096 0.719394 0.676962 0.048493
C20   C     C_R   0.772976 0.776699 0.594111 -0.155963
C21   C     C_R   0.785530 0.719450 0.563940 -0.174423
C22   C     C_R   0.893993 0.661708 0.644484 -0.199177
H1    H     H_    0.746154 0.720007 0.521005 0.108310
H2    H     H_    0.077032 0.781052 0.978892 0.109075
H3    H     H_    0.725199 0.819884 0.572588 0.129004
C23   C     C_R   0.729965 0.269881 0.731525 -0.155365
C24   C     C_R   0.894279 0.294317 0.705943 0.136485
C25   C     C_R   0.076549 0.273416 0.724223 -0.154804
C26   C     C_R   0.094293 0.228836 0.767509 -0.155204
H4    H     H_    0.236253 0.213454 0.781001 0.111185
C27   C     C_R   0.929980 0.204458 0.793137 0.136653
C28   C     C_R   0.747707 0.225298 0.774806 -0.155481
C29   C     C_1   0.876301 0.340505 0.661047 -0.059096
C30   C     C_1   0.947948 0.158568 0.838258 -0.060045
C31   C     C_1   0.961138 0.120502 0.876138 -0.191577
C32   C     C_1   0.863068 0.378887 0.623402 -0.190982
H5    H     H_    0.698988 0.702766 0.296610 0.112417
C33   C     C_R   0.596707 0.767638 0.233476 -0.155557
H6    H     H_    0.740572 0.780645 0.221142 0.110936
C34   C     C_R   0.436066 0.794991 0.206640 0.135990
C35   C     C_R   0.251296 0.777031 0.223608 -0.155636
C36   C     C_R   0.227505 0.732550 0.266655 -0.155672
C37   C     C_R   0.388148 0.705197 0.293493 0.135980
C38   C     C_R   0.572917 0.723157 0.276524 -0.155601
C39   C     C_1   0.459808 0.840994 0.161730 -0.059453
C40   C     C_1   0.364410 0.659187 0.338399 -0.059641
C41   C     C_1   0.349040 0.620972 0.376143 -0.192188
C42   C     C_1   0.475191 0.879191 0.123974 -0.192315
C43   C     C_R   0.470886 0.161098 0.089985 -0.042618
C44   C     C_R   0.353543 0.336056 0.413732 -0.083942
C45   C     C_R   0.518140 0.277257 0.096121 -0.159002
C46   C     C_R   0.514470 0.220232 0.065326 -0.167707
C47   C     C_R   0.431791 0.159286 0.146345 -0.212781
C48   C     C_R   0.438029 0.216836 0.179119 0.084601
C49   C     C_R   0.481435 0.276085 0.152482 0.138462
C50   C     C_R   0.405304 0.217744 0.237159 0.058428
C51   C     C_R   0.415132 0.277699 0.267285 0.082349
C52   C     C_R   0.458349 0.334955 0.238124 -0.185240
C53   C     C_R   0.490302 0.333948 0.182164 -0.205074
C54   C     C_R   0.364667 0.160584 0.266100 -0.192702
C55   C     C_R   0.335396 0.161219 0.322068 -0.185053
C56   C     C_R   0.343117 0.219028 0.352893 0.085194
C57   C     C_R   0.382555 0.278373 0.325508 0.054615
C58   C     C_R   0.311269 0.218053 0.410529 0.167978
C59   C     C_R   0.317934 0.276982 0.441052 0.151192
C60   C     C_R   0.386060 0.336265 0.357270 -0.271379
H7    H     H_    0.523774 0.379261 0.161866 0.124943
H8    H     H_    0.546470 0.222177 0.022074 0.107464
H9    H     H_    0.400761 0.112192 0.163165 0.093634
H10   H     H_    0.470573 0.381922 0.257251 0.124231
H11   H     H_    0.354958 0.113668 0.246683 0.122416
O11   O     O_R   0.323320 0.942780 0.056240 -0.535275
O12   O     O_R   0.647300 0.077050 0.046060 -0.537543
O13   O     O_R   0.813840 0.057330 0.943840 -0.534977
C61   C     C_R   0.478222 0.100867 0.057023 0.694391
O14   O     O_R   0.653250 0.944380 0.062400 -0.536880
O15   O     O_R   0.819830 0.923720 0.960300 -0.535784
C62   C     C_R   0.485173 0.924442 0.078296 0.724083
O16   O     O_R   0.317330 0.076390 0.039790 -0.536014
O17   O     O_3   0.483830 0.993470 0.966560 -0.366520
V3    V     V_3+5 0.760140 0.001210 0.006210 1.425129
O18   O     O_R   0.149290 0.922840 0.953850 -0.538137
C63   C     C_R   0.981321 0.898946 0.943274 0.706020
O19   O     O_R   0.143340 0.055500 0.937510 -0.537511
C64   C     C_R   0.973676 0.075474 0.921753 0.725812
V4    V     V_3+5 0.259690 0.998600 0.993650 1.426033
O20   O     O_3   0.986130 0.006520 0.033440 -0.366973
H12   H     H_    0.067987 0.619911 0.836795 0.137798
H13   H     H_    0.619106 0.207133 0.794019 0.111754
H14   H     H_    0.588008 0.285296 0.718053 0.111353
H15   H     H_    0.205145 0.291606 0.705022 0.112439
H16   H     H_    0.125226 0.797419 0.203519 0.112440
H17   H     H_    0.083641 0.719541 0.278987 0.110918
H18   H     H_    0.937145 0.615370 0.661194 0.092977
H19   H     H_    0.410128 0.383243 0.339353 0.110430
C65   C     C_3   0.287525 0.276543 0.502519 -0.774977
H20   H     H_    0.302056 0.324817 0.522247 0.197186
H21   H     H_    0.140726 0.259089 0.511749 0.209703
H22   H     H_    0.396619 0.244352 0.522266 0.207433
H23   H     H_    0.305933 0.114761 0.340670 0.137767
H24   H     H_    0.552135 0.322509 0.075842 0.114217
C66   C     C_3   0.269131 0.153800 0.438675 -0.802015
H25   H     H_    0.244736 0.157339 0.483164 0.220733
H26   H     H_    0.136798 0.132395 0.420854 0.206348
H27   H     H_    0.392202 0.119634 0.432999 0.204869
C67   C     C_3   0.733335 0.899123 0.654531 -0.797842
H28   H     H_    0.835365 0.912782 0.621876 0.208227
H29   H     H_    0.587023 0.893419 0.636848 0.210989
H30   H     H_    0.726942 0.940118 0.684170 0.209952
C68   C     C_3   0.117105 0.661711 0.935444 -0.811446
H31   H     H_    0.146062 0.670956 0.979481 0.211340
H32   H     H_    0.004184 0.624024 0.932682 0.208757
H33   H     H_    0.252254 0.642964 0.916970 0.211668
H34   H     H_    0.886097 0.885005 0.839091 0.102385
H35   H     H_    0.000915 0.617790 0.743261 0.121596
H36   H     H_    0.820721 0.882071 0.757582 0.126901

loop_
_geom_bond_atom_site_label_1
_geom_bond_atom_site_label_2
_ccdc_geom_bond_type
C13   C19   A    
C48   C50   A    
C37   C38   A    
C7    C68   S    
C61   O16   A    
C46   H8    S    
C55   C56   A    
C4    C6    S    
C44   C59   A    
O2    C1    A    
C7    C8    A    
C1    O6    A    
C53   H7    S    
C66   H25   S    
O17   V4    S    
C35   C36   A    
C14   C15   A    
C56   C58   A    
C16   C17   A    
O5    C3    A    
C23   C24   A    
C27   C30   S    
O18   V4    S    
C35   H16   S    
V2    O10   S    
C5    C8    A    
C65   H20   S    
C26   H4    S    
O13   C64   A    
C67   H28   S    
C43   C61   S    
O14   V3    S    
O12   V3    S    
C50   C51   A    
O19   V4    S    
C58   C66   S    
C52   C53   A    
O1    V2    S    
C11   C15   A    
O7    V1    S    
V3    O20   S    
C3    C32   S    
C24   C29   S    
C48   C49   A    
O9    C4    A    
O15   V3    S    
C26   C27   A    
C51   C52   A    
O11   C62   A    
C10   C11   A    
C57   C60   A    
C67   H29   S    
O12   C61   A    
C45   C49   A    
C15   H12   S    
C56   C57   A    
C22   H18   S    
C12   C13   A    
C24   C25   A    
O4    C2    A    
C39   C42   T    
C13   C14   A    
C5    C9    A    
C60   H19   S    
C67   H30   S    
C45   H24   S    
O15   C63   A    
C43   C46   A    
C7    C11   A    
C27   C28   A    
C2    C44   S    
C23   C28   A    
C17   C18   A    
O13   V3    S    
C33   C34   A    
C50   C54   A    
O19   C64   A    
C33   H6    S    
C19   C22   A    
C20   H3    S    
C58   C59   A    
C6    C22   A    
O3    C4    A    
C5    C63   S    
C25   C26   A    
O14   C62   A    
V4    O20   S    
O6    V2    S    
O8    V2    S    
O9    V2    S    
C10   C12   A    
C68   H32   S    
O2    V1    S    
C54   H11   S    
C34   C35   A    
C55   H23   S    
C29   C32   T    
C36   C37   A    
C30   C31   T    
C36   H17   S    
O1    C2    A    
C44   C60   A    
C59   C65   S    
C12   C16   A    
C54   C55   A    
O5    V1    S    
C66   H26   S    
C28   H13   S    
C42   C62   S    
H5    C38   S    
C17   C67   S    
C31   C64   S    
C65   H22   S    
O11   V4    S    
C20   C21   A    
C68   H33   S    
C40   C41   T    
O4    V1    S    
C23   H14   S    
O3    V1    S    
V1    O10   S    
C25   H15   S    
C18   C20   A    
C18   C19   A    
C1    C41   S    
O17   V3    S    
C21   H1    S    
C65   H21   S    
C51   C57   A    
C49   C53   A    
C14   H35   S    
O16   V4    S    
O7    V2    S    
O18   C63   A    
C52   H10   S    
C6    C21   A    
C33   C38   A    
C66   H27   S    
C34   C39   S    
C45   C46   A    
C8    H2    S    
C43   C47   A    
C47   C48   A    
C37   C40   S    
C68   H31   S    
C47   H9    S    
C9    H34   S    
C9    C10   A    
C16   H36   S    
O8    C3    A    
