data_mof_unit_35876.cif
_audit_creation_date              2012-12-10T17:39:19-0500
_audit_creation_method            fapswitch 2.2
_symmetry_space_group_name_H-M    P1
_symmetry_Int_Tables_number       1
_space_group_crystal_system       triclinic
_cell_length_a                    12.421565
_cell_length_b                    13.177802
_cell_length_c                    27.670687
_cell_angle_alpha                 75.218352
_cell_angle_beta                  101.069694
_cell_angle_gamma                 117.153229
_cell_volume                      3881.7589116

loop_
_atom_site_label
_atom_site_type_symbol
_atom_type_description
_atom_site_fract_x
_atom_site_fract_y
_atom_site_fract_z
_atom_type_partial_charge
C1    C     C_R   0.854996 0.286253 0.505055 0.799012
C2    C     C_R   0.013645 0.412528 0.732614 -0.082726
C3    C     C_R   0.997074 0.498596 0.746860 0.280555
C4    C     C_R   0.993016 0.516209 0.896487 -0.097957
C5    C     C_R   0.887898 0.499733 0.862838 -0.019760
C6    C     C_R   0.785602 0.497266 0.879206 0.180812
C7    C     C_R   0.095241 0.517173 0.880992 -0.019180
C8    C     C_R   0.002527 0.505610 0.644990 -0.147853
C9    C     C_R   0.001515 0.504146 0.354309 -0.144692
C10   C     C_R   0.891263 0.520046 0.014527 0.029654
C11   C     C_R   0.112739 0.585700 0.024696 -0.079373
C12   C     C_R   0.001505 0.502636 0.592143 0.828411
C13   C     C_R   0.002450 0.554068 0.045043 0.040449
C14   C     C_R   0.783509 0.485604 0.036404 -0.276135
C15   C     C_R   0.782659 0.486712 0.086654 0.377679
C16   C     C_R   0.893689 0.517853 0.118063 -0.126399
C17   C     C_R   0.003637 0.555713 0.096224 -0.085385
C18   C     C_R   0.115607 0.594379 0.125702 -0.097196
C19   C     C_R   0.117097 0.589661 0.176887 0.627039
C20   C     C_R   0.900835 0.510479 0.170566 0.601523
C21   C     C_R   0.018402 0.434260 0.283709 0.095372
C22   C     C_R   0.009092 0.416407 0.335859 0.342419
C23   C     C_R   0.144754 0.713894 0.493494 0.876523
C24   C     C_R   0.997527 0.602643 0.321106 -0.233441
C25   C     C_R   0.002880 0.616992 0.270110 -0.096051
C26   C     C_R   0.013815 0.533848 0.251387 0.297258
C27   C     C_R   0.890846 0.520022 0.963105 0.052485
C28   C     C_R   0.996429 0.531564 0.945792 0.077289
C29   C     C_R   0.105471 0.557062 0.977718 0.070794
C30   C     C_R   0.787960 0.506992 0.928562 -0.245769
C31   C     C_R   0.196680 0.527071 0.915275 -0.126130
C32   C     C_R   0.224495 0.643885 0.052647 0.384264
C33   C     C_R   0.224278 0.641244 0.103297 -0.139678
C34   C     C_R   0.998691 0.498102 0.407806 0.899800
C35   C     C_R   0.200420 0.544207 0.963196 -0.095555
C36   C     C_R   0.281935 0.029901 0.433663 -0.146524
C37   C     C_R   0.228242 0.837250 0.483819 -0.014706
C38   C     C_R   0.811233 0.080063 0.538570 -0.146771
C39   C     C_R   0.730284 0.963720 0.549002 -0.113207
C40   C     C_R   0.608364 0.928361 0.531504 -0.147960
C41   C     C_R   0.565470 0.009011 0.501031 0.075683
C42   C     C_R   0.651395 0.124814 0.485397 0.079821
C43   C     C_R   0.440466 0.978349 0.485013 0.075418
C44   C     C_R   0.404961 0.059551 0.449955 0.133556
C45   C     C_R   0.890125 0.488549 0.813631 0.566927
C46   C     C_R   0.492787 0.168147 0.430442 -0.212886
C47   C     C_R   0.614274 0.199609 0.447168 -0.147102
C48   C     C_R   0.349276 0.869348 0.502970 -0.164894
C49   C     C_R   0.193896 0.918650 0.450148 -0.155182
C50   C     C_R   0.772477 0.162105 0.508106 -0.052413
C51   C     C_R   0.350704 0.336449 0.585727 -0.313174
C52   C     C_R   0.743232 0.611863 0.422874 -0.014079
C53   C     C_R   0.628347 0.581890 0.397230 0.286940
C54   C     C_R   0.526823 0.515383 0.424484 -0.131571
C55   C     C_R   0.539062 0.497290 0.477125 -0.032668
C56   C     C_R   0.093570 0.507732 0.831514 0.560117
C57   C     C_R   0.652985 0.500103 0.499102 0.279013
C58   C     C_R   0.439588 0.456833 0.507837 -0.094699
C59   C     C_R   0.447123 0.387841 0.555572 0.084531
C60   C     C_R   0.550847 0.368597 0.572760 -0.215311
C61   C     C_R   0.652496 0.425197 0.545540 -0.109991
C62   C     C_R   0.338858 0.488575 0.495521 0.496517
C63   C     C_R   0.249410 0.359921 0.571093 0.322716
C64   C     C_R   0.984744 0.588887 0.710241 -0.180395
C65   C     C_R   0.986881 0.593739 0.659361 0.366984
C66   C     C_R   0.016920 0.416388 0.682075 -0.286734
Cu1   Cu    Cu3+1 0.098270 0.475420 0.511360 1.067927
Cu2   Cu    Cu3+1 0.901730 0.524580 0.488640 0.989276
H1    H     H_    0.027828 0.347876 0.671790 0.170864
H2    H     H_    0.973869 0.655723 0.721984 0.175934
H3    H     H_    0.273805 0.521748 0.905231 0.189696
H4    H     H_    0.990830 0.669390 0.334862 0.180345
H5    H     H_    0.310314 0.680756 0.124844 0.237799
H6    H     H_    0.998029 0.692841 0.244883 0.178795
H7    H     H_    0.277326 0.544694 0.989122 0.207829
H8    H     H_    0.100366 0.894805 0.434871 0.172379
H9    H     H_    0.467578 0.229150 0.402008 0.174008
H10   H     H_    0.254410 0.091490 0.406838 0.179938
H11   H     H_    0.022872 0.342094 0.760664 0.163990
H12   H     H_    0.369986 0.806020 0.531223 0.145577
H13   H     H_    0.903758 0.106234 0.555476 0.167754
H14   H     H_    0.550886 0.836855 0.541537 0.149172
H15   H     H_    0.761405 0.900910 0.572238 0.177954
H16   H     H_    0.678613 0.282367 0.428658 0.194458
H17   H     H_    0.554692 0.311196 0.608278 0.160542
H18   H     H_    0.354008 0.278184 0.621036 0.166352
H19   H     H_    0.822626 0.658357 0.401992 0.162185
H20   H     H_    0.440335 0.473896 0.404609 0.225324
H21   H     H_    0.724305 0.400216 0.560433 0.181507
H22   H     H_    0.696785 0.452975 0.015109 0.184074
H23   H     H_    0.708327 0.507760 0.938262 0.147190
N1    N     N_R   0.992841 0.495794 0.798766 -0.464728
N2    N     N_R   0.010869 0.546255 0.198186 -0.460342
N3    N     N_R   0.246290 0.438210 0.528570 -0.229566
N4    N     N_R   0.754320 0.561170 0.471730 -0.217211
O1    O     O_R   0.972510 0.318140 0.514280 -0.535612
O2    O     O_2   0.799852 0.464765 0.194727 -0.419189
O3    O     O_2   0.192928 0.513286 0.815895 -0.529909
O4    O     O_2   0.223728 0.626625 0.205474 -0.466545
O5    O     O_R   0.806530 0.359640 0.495100 -0.630622
O6    O     O_R   0.082990 0.479270 0.579320 -0.570050
O7    O     O_R   0.917010 0.520770 0.560140 -0.550958
O8    O     O_R   0.193470 0.640360 0.504900 -0.538833
O9    O     O_R   0.027490 0.681860 0.485720 -0.560272
O10   O     O_R   0.082990 0.479230 0.439860 -0.465099
O11   O     O_R   0.917010 0.520730 0.420680 -0.620204
O12   O     O_2   0.790937 0.470655 0.780632 -0.495312
S1    S     S_3+6 0.362160 0.743378 0.025110 0.017664
O13   O     O_2   0.338579 0.783797 0.969876 -0.278578
O14   O     O_2   0.422131 0.847348 0.050035 -0.234209
O15   O     O_3   0.456674 0.679493 0.034490 -0.532657
H24   H     H_    0.529780 0.738655 0.017625 0.380935
N5    N     N_3   0.148928 0.302066 0.601222 -0.531524
H25   H     H_    0.181022 0.319295 0.637408 0.202757
H26   H     H_    0.116340 0.212616 0.603566 0.207845
S2    S     S_3+6 0.344001 0.598210 0.438129 0.035998
O16   O     O_2   0.474164 0.685207 0.433072 -0.305120
O17   O     O_2   0.297597 0.537314 0.394286 -0.274072
O18   O     O_3   0.269793 0.681178 0.427844 -0.531981
H27   H     H_    0.287628 0.729134 0.393851 0.371364
N6    N     N_3   0.678182 0.485274 0.846114 -0.497658
H28   H     H_    0.605047 0.411222 0.861875 0.236476
H29   H     H_    0.661730 0.557439 0.843970 0.226545
S3    S     S_3+6 0.611825 0.615820 0.331303 0.074024
O19   O     O_2   0.605799 0.517825 0.310949 -0.213608
O20   O     O_2   0.496705 0.630667 0.313679 -0.184083
O21   O     O_3   0.731414 0.738449 0.309884 -0.496696
H30   H     H_    0.730540 0.799059 0.324656 0.353007
S4    S     S_3+6 0.999171 0.284334 0.377265 0.016628
O22   O     O_2   0.117501 0.306493 0.408861 -0.218337
O23   O     O_2   0.900996 0.244062 0.411330 -0.344729
O24   O     O_3   0.967635 0.175835 0.347712 -0.532424
H31   H     H_    0.877894 0.137993 0.341951 0.366678
N7    N     N_3   0.031152 0.353079 0.261976 -0.531962
H32   H     H_    0.102488 0.334379 0.281906 0.297260
H33   H     H_    0.949602 0.277890 0.262997 0.261815
S5    S     S_3+6 0.639397 0.452820 0.106146 0.100251
O25   O     O_2   0.596043 0.337375 0.141563 -0.163320
O26   O     O_2   0.650924 0.544829 0.132262 -0.194184
O27   O     O_3   0.534356 0.444318 0.056907 -0.501463
H34   H     H_    0.558958 0.525268 0.038167 0.352606
S6    S     S_3+6 0.976209 0.714355 0.615903 0.017774
O28   O     O_2   0.076320 0.767443 0.581670 -0.280888
O29   O     O_2   0.855899 0.675431 0.585018 -0.287031
O30   O     O_3   0.989323 0.816353 0.645797 -0.523348
H35   H     H_    0.906398 0.792315 0.654685 0.345815

loop_
_geom_bond_atom_site_label_1
_geom_bond_atom_site_label_2
_ccdc_geom_bond_type
C10   C27   A    
C58   C62   A    
C20   N2    A    
C8    C66   A    
C41   C42   A    
O15   H24   S    
Cu1   O1    S    
C56   O3    S    
C21   C26   A    
O30   H35   S    
Cu1   O8    S    
C53   C54   A    
S1    O13   D    
C62   S2    S    
S5    O26   D    
C63   N3    A    
C35   H7    S    
C28   C29   A    
Cu2   O7    S    
C25   H6    S    
C38   C39   A    
C9    C22   A    
C66   H1    S    
C15   C16   A    
S2    O16   D    
C51   H18   S    
C52   N4    A    
C18   C19   A    
C45   N1    A    
C14   H22   S    
C2    H11   S    
C54   C55   A    
C23   O8    A    
C20   O2    S    
C61   H21   S    
C16   C17   A    
Cu1   N3    S    
C64   H2    S    
C43   C48   A    
C19   N2    A    
C16   C20   A    
S4    O24   S    
C26   N2    S    
C31   H3    S    
C8    C65   A    
C21   C22   A    
C27   C30   A    
C41   C43   A    
S6    O30   S    
Cu2   O11   S    
C7    C56   A    
C4    C7    A    
C1    O5    A    
C4    C28   A    
C44   C46   A    
C24   H4    S    
S5    O27   S    
Cu2   N4    S    
C7    C31   A    
Cu1   Cu2   S    
C34   O11   A    
C40   H14   S    
C51   C63   A    
O27   H34   S    
C10   C14   A    
C39   C40   A    
C19   O4    S    
Cu1   O10   S    
N7    H33   S    
C58   C59   A    
C23   C37   S    
C5    C45   A    
C53   S3    S    
N5    H26   S    
C3    N1    S    
C43   C44   A    
Cu2   O5    S    
C12   O7    A    
C37   C49   A    
C23   O9    A    
C56   N1    A    
C8    C12   S    
C17   C18   A    
C49   H8    S    
C25   C26   A    
C47   H16   S    
C24   C25   A    
C37   C48   A    
N6    H28   S    
C42   C50   A    
S3    O21   S    
C33   H5    S    
C40   C41   A    
C6    C30   A    
C11   C32   A    
C62   N3    A    
C22   S4    S    
C57   N4    A    
C9    C34   S    
C31   C35   A    
C36   C44   A    
C51   C59   A    
O21   H30   S    
C21   N7    S    
C52   C53   A    
Cu1   O6    S    
S3    O20   D    
N5    H25   S    
C1    C50   S    
C46   C47   A    
C14   C15   A    
C34   O10   A    
C52   H19   S    
Cu2   O9    S    
C30   H23   S    
C2    C66   A    
C10   C13   A    
C46   H9    S    
C60   H17   S    
S2    O18   S    
C9    C24   A    
C57   C61   A    
N7    H32   S    
C38   C50   A    
S5    O25   D    
C29   C35   A    
S1    O15   S    
C13   C17   A    
C32   C33   A    
C48   H12   S    
C55   C57   A    
C2    C3    A    
S4    O22   D    
C39   H15   S    
C12   O6    A    
C38   H13   S    
C36   H10   S    
C64   C65   A    
C54   H20   S    
C65   S6    S    
C11   C13   A    
C5    C6    A    
S1    O14   D    
C1    O1    A    
C4    C5    A    
S2    O17   D    
O24   H31   S    
S6    O29   D    
C42   C47   A    
C3    C64   A    
C18   C33   A    
N6    H29   S    
C63   N5    S    
C59   C60   A    
C11   C29   A    
O18   H27   S    
C32   S1    S    
C55   C58   A    
C27   C28   A    
S6    O28   D    
C60   C61   A    
C6    N6    S    
S4    O23   D    
C36   C49   A    
C45   O12   S    
S3    O19   D    
C15   S5    S    
