data_mof_unit_33126.cif
_audit_creation_date              2012-12-11T15:34:30-0500
_audit_creation_method            fapswitch 2.2
_symmetry_space_group_name_H-M    P1
_symmetry_Int_Tables_number       1
_space_group_crystal_system       triclinic
_cell_length_a                    15.060458
_cell_length_b                    15.064104
_cell_length_c                    34.986023
_cell_angle_alpha                 90.446034
_cell_angle_beta                  89.95703
_cell_angle_gamma                 60.050604
_cell_volume                      6877.15076731

loop_
_atom_site_label
_atom_site_type_symbol
_atom_type_description
_atom_site_fract_x
_atom_site_fract_y
_atom_site_fract_z
_atom_type_partial_charge
C1    C     C_R   0.303488 0.607800 0.555993 0.542280
C2    C     C_R   0.214889 0.722834 0.390704 -0.127381
C3    C     C_R   0.757133 0.129834 0.268468 -0.118154
C4    C     C_R   0.762273 0.123718 0.228698 -0.116234
C5    C     C_R   0.673571 0.180836 0.206758 0.030569
C6    C     C_R   0.724448 0.219377 0.349309 -0.126158
C7    C     C_R   0.707359 0.244615 0.388043 -0.133083
C8    C     C_R   0.559166 0.221420 0.386629 -0.126411
C9    C     C_R   0.730198 0.568510 0.651347 -0.131042
C10   C     C_R   0.576166 0.196613 0.347909 -0.124665
C11   C     C_R   0.656412 0.199516 0.328722 0.032393
C12   C     C_R   0.621824 0.250253 0.406610 0.023405
C13   C     C_R   0.184939 0.732396 0.352697 -0.123586
C14   C     C_R   0.080314 0.710259 0.094649 0.021959
C15   C     C_R   0.091179 0.621264 0.111724 -0.129799
C16   C     C_R   0.121804 0.599730 0.149668 -0.127421
C17   C     C_R   0.142112 0.666742 0.171003 0.029945
C18   C     C_R   0.138466 0.751553 0.153091 -0.123736
C19   C     C_R   0.108125 0.772975 0.115179 -0.127795
C20   C     C_R   0.229235 0.674523 0.230324 -0.124612
C21   C     C_3   0.594500 0.435810 0.723816 -0.279176
C22   C     C_3   0.830310 0.891601 0.713710 -0.302794
C23   C     C_3   0.836635 0.415691 0.328114 0.012375
C24   C     C_R   0.180930 0.651793 0.334070 0.030642
C25   C     C_3   0.945221 0.352655 0.343900 -0.266329
C26   C     C_3   0.978385 0.239184 0.346175 -0.492898
C27   C     C_3   0.533923 0.510974 0.257940 -0.314143
C28   C     C_3   0.791739 0.797904 0.211455 -0.290635
C29   C     C_3   0.537484 0.949898 0.895316 -0.271763
C30   C     C_R   0.555731 0.710453 0.653107 -0.125771
C31   C     C_R   0.242083 0.632020 0.410441 0.022081
C32   C     C_R   0.735680 0.026330 0.943627 0.535523
C33   C     C_R   0.745564 0.722606 0.945105 0.558961
C34   C     C_R   0.038931 0.733678 0.948554 0.540484
C35   C     C_R   0.723157 0.038195 0.052964 0.542466
C36   C     C_R   0.733792 0.734710 0.054852 0.543368
C37   C     C_R   0.646229 0.643172 0.672399 0.027715
C38   C     C_R   0.027025 0.744985 0.057980 0.544406
C39   C     C_R   0.546812 0.698194 0.613998 -0.132558
C40   C     C_R   0.661148 0.651553 0.791814 0.340514
C41   C     C_R   0.651584 0.647003 0.714411 0.331107
C42   C     C_R   0.760996 0.588611 0.852052 -0.138442
C43   C     C_R   0.780359 0.606648 0.889328 -0.164800
C44   C     C_R   0.617549 0.766242 0.891177 0.119647
C45   C     C_R   0.597944 0.746025 0.853868 -0.112529
C46   C     C_R   0.671778 0.660380 0.833381 0.006756
C47   C     C_R   0.610186 0.587730 0.555552 0.544106
C48   C     C_R   0.235948 0.674026 0.269929 -0.123834
C49   C     C_R   0.711700 0.697549 0.908814 0.045116
C50   C     C_R   0.721674 0.077965 0.906802 0.017718
C51   C     C_R   0.623500 0.136011 0.891017 -0.140006
C52   C     C_R   0.612377 0.167159 0.853004 -0.118836
C53   C     C_R   0.699336 0.139413 0.830340 0.029442
C54   C     C_R   0.796961 0.087079 0.846716 -0.122016
C55   C     C_R   0.808072 0.057358 0.884792 -0.128094
C56   C     C_R   0.628122 0.252393 0.773802 -0.092633
C57   C     C_R   0.618133 0.266555 0.734260 0.125581
C58   C     C_R   0.669105 0.180431 0.709499 0.036827
C59   C     C_R   0.171880 0.652502 0.292360 0.028095
C60   C     C_R   0.589807 0.301321 0.553789 0.543521
C61   C     C_R   0.729711 0.081035 0.724450 0.136663
C62   C     C_R   0.739377 0.069753 0.764345 -0.099676
C63   C     C_R   0.689341 0.154762 0.788831 -0.038997
C64   C     C_R   0.583881 0.185812 0.648105 -0.115115
C65   C     C_R   0.565794 0.213241 0.609715 -0.131280
C66   C     C_R   0.704523 0.251318 0.610380 -0.130005
C67   C     C_R   0.721884 0.224654 0.648787 -0.131601
C68   C     C_R   0.659685 0.194785 0.667955 0.029302
C69   C     C_R   0.623756 0.249560 0.590858 0.020341
C70   C     C_R   0.102640 0.628915 0.274745 -0.120088
C71   C     C_R   0.097008 0.694811 0.912499 0.020184
C72   C     C_R   0.299466 0.610654 0.446334 0.543917
C73   C     C_R   0.134408 0.752019 0.893941 -0.130527
C74   C     C_R   0.165256 0.731846 0.855841 -0.123997
C75   C     C_R   0.160104 0.653665 0.835754 0.029397
C76   C     C_R   0.132356 0.589982 0.855180 -0.121262
C77   C     C_R   0.100778 0.610520 0.893356 -0.128784
C78   C     C_R   0.234072 0.553664 0.775189 -0.107514
C79   C     C_R   0.243262 0.549828 0.735378 -0.103711
C80   C     C_R   0.188604 0.639484 0.713722 0.031851
C81   C     C_R   0.095120 0.630422 0.235032 -0.120487
C82   C     C_R   0.124097 0.732494 0.732612 -0.119550
C83   C     C_R   0.115733 0.736431 0.772255 -0.114868
C84   C     C_R   0.608283 0.590274 0.445531 0.547284
C85   C     C_R   0.171266 0.647352 0.793864 0.031456
C86   C     C_R   0.209361 0.717655 0.654133 -0.120690
C87   C     C_R   0.233732 0.711692 0.615482 -0.127105
C88   C     C_R   0.241618 0.547367 0.610827 -0.127684
C89   C     C_R   0.216390 0.553750 0.649544 -0.123029
C90   C     C_R   0.203158 0.637514 0.671830 0.031378
C91   C     C_R   0.253760 0.624830 0.593748 0.021235
C92   C     C_R   0.157690 0.654329 0.212555 0.031204
C93   C     C_R   0.694925 0.720895 0.091657 0.019858
C94   C     C_R   0.617480 0.806272 0.111370 -0.131566
C95   C     C_R   0.597523 0.798486 0.149756 -0.091535
C96   C     C_R   0.588091 0.302511 0.443902 0.543335
C97   C     C_R   0.654308 0.705270 0.168826 0.042982
C98   C     C_R   0.725646 0.618096 0.148405 -0.137878
C99   C     C_R   0.746030 0.625845 0.110109 -0.130861
C100  C     C_R   0.625089 0.625531 0.225490 -0.121409
C101  C     C_R   0.618798 0.615023 0.265148 0.165748
C102  C     C_R   0.637237 0.678978 0.289875 0.041655
C103  C     C_R   0.197884 0.565478 0.354743 -0.120212
C104  C     C_R   0.655823 0.754135 0.275011 -0.123523
C105  C     C_R   0.661016 0.764660 0.235536 0.136130
C106  C     C_R   0.645299 0.699745 0.210568 0.015548
C107  C     C_R   0.553510 0.733976 0.353221 -0.183534
C108  C     C_R   0.628218 0.618316 0.593560 0.023079
C109  C     C_R   0.546521 0.713415 0.391487 -0.147442
C110  C     C_R   0.716169 0.563559 0.387719 -0.122694
C111  C     C_R   0.722263 0.581676 0.348686 0.282110
C112  C     C_R   0.639457 0.666751 0.331518 0.035824
C113  C     C_R   0.626040 0.625666 0.408643 -0.022916
C114  C     C_R   0.228461 0.555526 0.392783 -0.127161
C115  C     C_R   0.700163 0.097320 0.088827 0.021961
C116  C     C_R   0.774252 0.115465 0.105737 -0.128905
C117  C     C_R   0.762605 0.149406 0.143557 -0.125429
C118  C     C_R   0.676989 0.165227 0.165002 0.030833
C119  C     C_R   0.599083 0.155190 0.147051 -0.118908
C120  C     C_R   0.721347 0.556323 0.612298 -0.133250
C121  C     C_R   0.610297 0.122090 0.109236 -0.125892
C122  C     C_R   0.580124 0.245369 0.225288 -0.125566
C123  C     C_R   0.574773 0.250160 0.264995 -0.121973
C124  C     C_R   0.663015 0.191895 0.286835 0.032084
Cr1   Cr    Cr6+3 0.421670 0.426920 0.499620 1.009788
Cr2   Cr    Cr6+3 0.427030 0.651190 0.500980 1.010079
Cr3   Cr    Cr6+3 0.651280 0.421870 0.499380 1.008708
Cr4   Cr    Cr6+3 0.910810 0.908010 0.001130 1.009148
Cr5   Cr    Cr6+3 0.682800 0.909890 0.998370 1.022904
Cr6   Cr    Cr6+3 0.908370 0.682300 0.002180 1.007342
H1    H     H_    0.785620 0.494360 0.597297 0.127879
H2    H     H_    0.473953 0.747141 0.600379 0.128163
H3    H     H_    0.750240 0.279346 0.596739 0.130636
H4    H     H_    0.133504 0.816759 0.908014 0.126524
H5    H     H_    0.072621 0.564922 0.906936 0.125030
H6    H     H_    0.209995 0.491866 0.662264 0.103239
H7    H     H_    0.295145 0.477325 0.721676 0.113729
H8    H     H_    0.277448 0.484151 0.791438 0.106176
H9    H     H_    0.188119 0.780736 0.841431 0.109222
H10   H     H_    0.080124 0.802456 0.716716 0.098112
H11   H     H_    0.064958 0.809160 0.786092 0.100299
H12   H     H_    0.884705 0.012303 0.896160 0.130190
H13   H     H_    0.200820 0.782720 0.670541 0.105558
H14   H     H_    0.852525 0.551563 0.902021 0.135278
H15   H     H_    0.242979 0.772459 0.603273 0.126890
H16   H     H_    0.127982 0.529203 0.840112 0.107452
H17   H     H_    0.256487 0.479475 0.594795 0.125275
H18   H     H_    0.576865 0.880575 0.097930 0.125837
H19   H     H_    0.805805 0.558719 0.095599 0.127518
H20   H     H_    0.614418 0.576029 0.205767 0.111144
H21   H     H_    0.540942 0.866115 0.165023 0.124910
H22   H     H_    0.669611 0.802654 0.294271 0.111908
H23   H     H_    0.780921 0.231349 0.664008 0.108718
H24   H     H_    0.801604 0.516523 0.665257 0.130467
H25   H     H_    0.489364 0.799092 0.339911 0.113121
H26   H     H_    0.476321 0.763057 0.406945 0.138909
H27   H     H_    0.769839 0.545393 0.162697 0.107095
H28   H     H_    0.779393 0.497758 0.401028 0.125473
H29   H     H_    0.843881 0.097934 0.090526 0.123192
H30   H     H_    0.551715 0.109082 0.096961 0.125846
H31   H     H_    0.523930 0.179626 0.332522 0.102555
H32   H     H_    0.501763 0.300276 0.278698 0.101779
H33   H     H_    0.510965 0.291353 0.209084 0.101507
H34   H     H_    0.588069 0.317712 0.792892 0.127986
H35   H     H_    0.490038 0.769543 0.668468 0.131713
H36   H     H_    0.822670 0.158831 0.156544 0.100633
H37   H     H_    0.825997 0.084308 0.284902 0.102869
H38   H     H_    0.834942 0.071641 0.215200 0.101353
H39   H     H_    0.786560 0.222116 0.334842 0.099719
H40   H     H_    0.756994 0.266457 0.402685 0.121390
H41   H     H_    0.532589 0.166004 0.162916 0.103301
H42   H     H_    0.493143 0.224301 0.400232 0.126473
H43   H     H_    0.070962 0.571086 0.096460 0.126011
H44   H     H_    0.100671 0.841980 0.102742 0.127494
H45   H     H_    0.536482 0.207356 0.840656 0.107638
H46   H     H_    0.170290 0.800354 0.337200 0.103989
H47   H     H_    0.818584 0.520585 0.837291 0.138756
H48   H     H_    0.291593 0.690015 0.283126 0.106526
H49   H     H_    0.279249 0.691677 0.213587 0.097714
H50   H     H_    0.125981 0.532822 0.162744 0.102246
H51   H     H_    0.052925 0.611837 0.291720 0.115984
H52   H     H_    0.038125 0.616237 0.221992 0.100517
H53   H     H_    0.194876 0.502646 0.340740 0.104344
H54   H     H_    0.248171 0.485009 0.407431 0.124771
H55   H     H_    0.152975 0.804924 0.169004 0.101830
H56   H     H_    0.785187 0.994989 0.776910 0.116485
H57   H     H_    0.223492 0.783580 0.403704 0.126875
H58   H     H_    0.527234 0.800960 0.840240 0.131216
H59   H     H_    0.555806 0.153053 0.907490 0.116481
H60   H     H_    0.521840 0.371281 0.693516 0.260636
H61   H     H_    0.537194 0.513103 0.713533 0.159724
H62   H     H_    0.665581 0.407172 0.706449 0.151851
H63   H     H_    0.611347 0.443074 0.754213 0.169074
H64   H     H_    0.813528 0.005062 0.675149 0.256409
H65   H     H_    0.857235 0.835724 0.689582 0.152508
H66   H     H_    0.776335 0.878866 0.731323 0.169363
H67   H     H_    0.535731 0.162384 0.662824 0.120058
H68   H     H_    0.897684 0.878041 0.730940 0.131026
H69   H     H_    0.836034 0.390038 0.298296 0.165254
H70   H     H_    0.782655 0.399805 0.344617 0.116452
H71   H     H_    0.999463 0.361929 0.325059 0.170590
H72   H     H_    0.948754 0.381138 0.372926 0.162644
H73   H     H_    0.929679 0.227537 0.367060 0.142164
H74   H     H_    0.059177 0.195325 0.355840 0.146307
H75   H     H_    0.972600 0.209382 0.317694 0.142349
H76   H     H_    0.581915 0.543796 0.309150 0.253846
H77   H     H_    0.509367 0.466565 0.275906 0.145502
H78   H     H_    0.503088 0.211153 0.595429 0.127385
H79   H     H_    0.578433 0.461376 0.233436 0.158400
H80   H     H_    0.464310 0.580349 0.247655 0.137855
H81   H     H_    0.656999 0.903739 0.238083 0.246132
H82   H     H_    0.802447 0.859491 0.198955 0.150299
H83   H     H_    0.817263 0.735043 0.189998 0.167879
H84   H     H_    0.839956 0.768646 0.237441 0.140044
H85   H     H_    0.472653 0.863350 0.911764 0.238370
H86   H     H_    0.489296 0.015223 0.914728 0.144882
H87   H     H_    0.614998 0.941396 0.893470 0.185422
H88   H     H_    0.502369 0.967007 0.866449 0.116812
H89   H     H_    0.864751 0.065523 0.829537 0.105602
N1    N     N_R   0.739543 0.576961 0.771139 -0.242394
N2    N     N_R   0.734702 0.574521 0.733240 -0.250394
N3    N     N_R   0.572538 0.720932 0.735076 -0.239709
N4    N     N_R   0.577467 0.723474 0.773012 -0.241025
N5    N     N_2   0.553696 0.367274 0.719957 -0.533490
N6    N     N_2   0.779154 0.994781 0.698891 -0.518854
N7    N     N_2   0.596939 0.539527 0.280260 -0.517678
N8    N     N_2   0.684856 0.838643 0.221236 -0.521786
N9    N     N_2   0.543786 0.857453 0.910072 -0.500204
O1    O     O_R   0.502070 0.323090 0.541280 -0.519850
O2    O     O_R   0.831550 0.656950 0.958960 -0.533069
O3    O     O_R   0.998590 0.685540 0.963930 -0.503183
O4    O     O_R   0.338340 0.520690 0.539540 -0.502418
O5    O     O_R   0.008220 0.831200 0.045060 -0.520519
O6    O     O_R   0.813270 0.997930 0.038810 -0.501751
O7    O     O_R   0.657500 0.016560 0.039940 -0.522996
O8    O     O_R   0.685680 0.820940 0.038120 -0.501941
O9    O     O_R   0.822130 0.666070 0.043610 -0.520194
O10   O     O_R   0.989860 0.694000 0.042400 -0.502797
O11   O     O_3   0.833990 0.833400 0.000560 -0.239147
O12   O     O_R   0.520720 0.641670 0.461580 -0.499075
O13   O     O_R   0.324760 0.674070 0.543580 -0.522154
O14   O     O_R   0.522400 0.640310 0.540110 -0.503081
O15   O     O_R   0.675940 0.500630 0.542210 -0.521609
O16   O     O_R   0.641790 0.337020 0.538150 -0.503342
O17   O     O_R   0.500260 0.324550 0.456580 -0.520746
O18   O     O_R   0.336660 0.522040 0.461020 -0.502775
O19   O     O_R   0.322940 0.675540 0.458880 -0.521636
O20   O     O_3   0.809451 0.520320 0.327032 -0.567209
O21   O     O_R   0.674120 0.502090 0.457500 -0.521969
O22   O     O_R   0.640110 0.338380 0.459630 -0.503155
O23   O     O_3   0.499990 0.499990 0.499990 -0.235493
O24   O     O_R   0.017640 0.822070 0.960410 -0.522675
O25   O     O_R   0.822000 0.989470 0.960340 -0.501777
O26   O     O_R   0.666920 0.007430 0.955290 -0.524876
O27   O     O_R   0.694410 0.812480 0.959650 -0.460192

loop_
_geom_bond_atom_site_label_1
_geom_bond_atom_site_label_2
_ccdc_geom_bond_type
C44   C49   A    
C13   H46   S    
Cr6   O9    S    
C84   C113  S    
C115  C121  A    
C21   N5    S    
C87   C91   A    
C120  H1    S    
C73   C74   A    
C108  C120  A    
C102  C112  S    
C11   C124  S    
C80   C90   S    
C96   O22   A    
Cr1   O4    S    
Cr2   O12   S    
C38   O5    A    
C48   H48   S    
C97   C98   A    
C43   H14   S    
C3    H37   S    
C54   H89   S    
C22   N6    S    
C45   C46   A    
C116  C117  A    
Cr4   O11   S    
C40   C46   S    
C99   H19   S    
Cr4   O24   S    
Cr5   O7    S    
C103  H53   S    
C64   C68   A    
H64   N6    S    
C18   C19   A    
Cr1   O1    S    
C65   C69   A    
C21   H61   S    
C66   C69   A    
C38   O10   A    
C39   H2    S    
Cr6   O2    S    
C42   H47   S    
C33   C49   S    
C115  C116  A    
C23   H69   S    
C27   H79   S    
C56   C57   A    
C34   C71   S    
H85   N9    S    
C42   C46   A    
C72   O18   A    
C23   O20   S    
C70   C81   A    
C109  H26   S    
C8    H42   S    
C2    H57   S    
N1    N2    A    
C82   H10   S    
C118  C119  A    
C81   C92   A    
Cr1   O17   S    
C36   C93   S    
C75   C85   S    
Cr6   O10   S    
Cr5   O27   S    
C16   C17   A    
C121  H30   S    
C32   O25   A    
Cr2   O14   S    
C98   H27   S    
C35   C115  S    
C93   C99   A    
C31   C114  A    
C27   H77   S    
C41   N3    A    
C51   H59   S    
C109  C113  A    
C62   H56   S    
Cr6   O3    S    
C88   C89   A    
C61   C62   A    
C58   C61   A    
C29   H87   S    
C66   C67   A    
Cr2   O19   S    
C76   H16   S    
C1    C91   S    
C55   H12   S    
H81   N8    S    
C64   H67   S    
C40   N1    A    
C94   H18   S    
C107  C109  A    
C22   H66   S    
Cr1   O18   S    
C84   O12   A    
C17   C92   S    
C81   H52   S    
C28   H82   S    
C78   H8    S    
C28   N8    S    
C104  C105  A    
C86   H13   S    
C50   C51   A    
C20   H49   S    
C119  C121  A    
C28   H84   S    
C39   C108  A    
Cr6   O11   S    
C60   O16   A    
C74   C75   A    
C15   H43   S    
Cr5   O8    S    
C67   C68   A    
C101  C102  A    
C123  C124  A    
C103  C114  A    
Cr3   O15   S    
C76   C77   A    
C116  H29   S    
C80   C82   A    
C25   H72   S    
C86   C90   A    
C6    C11   A    
C83   H11   S    
C123  H32   S    
C78   C79   A    
C43   C49   A    
C29   H86   S    
C40   N4    A    
C100  H20   S    
C25   C26   S    
C53   C54   A    
C5    C122  A    
C27   H80   S    
C61   N6    S    
C122  H33   S    
C110  C111  A    
C13   C24   A    
C2    C31   A    
Cr3   O21   S    
Cr4   O25   S    
C26   H74   S    
C75   C76   A    
H76   N7    S    
C62   C63   A    
H60   N5    S    
C14   C38   S    
C66   H3    S    
C20   C92   A    
C70   H51   S    
C52   H45   S    
C88   C91   A    
Cr1   O23   S    
C117  H36   S    
C8    C12   A    
C44   N9    S    
C16   H50   S    
Cr2   O13   S    
C9    C37   A    
C17   C18   A    
C56   C63   A    
C60   O1    A    
C27   N7    S    
C35   O6    A    
C52   C53   A    
Cr5   O26   S    
C102  C104  A    
C2    C13   A    
C110  C113  A    
C32   C50   S    
C20   C48   A    
C1    O13   A    
C97   C106  S    
C78   C85   A    
C58   C68   S    
C29   H88   S    
C79   H7    S    
C9    H24   S    
C82   C83   A    
C10   H31   S    
C7    C12   A    
C26   H75   S    
C95   H21   S    
C42   C43   A    
C33   O2    A    
Cr2   O23   S    
Cr4   O6    S    
C96   O17   A    
C71   C77   A    
C44   C45   A    
C72   O19   A    
C48   C59   A    
C71   C73   A    
C105  C106  A    
C36   O9    A    
C47   C108  S    
C54   C55   A    
C31   C72   S    
C74   H9    S    
C87   H15   S    
C111  C112  A    
C83   C85   A    
C84   O21   A    
C86   C87   A    
C14   C19   A    
C22   H68   S    
C12   C96   S    
Cr3   O16   S    
C30   H35   S    
C4    C5    A    
C21   H62   S    
Cr5   O11   S    
C110  H28   S    
C65   H78   S    
C47   O14   A    
C34   O24   A    
C95   C97   A    
C45   H58   S    
C6    C7    A    
C36   O8    A    
C33   O27   A    
C93   C94   A    
C56   H34   S    
C18   H55   S    
C100  C106  A    
C50   C55   A    
C5    C118  S    
C67   H23   S    
C24   C103  A    
C64   C65   A    
Cr3   O22   S    
C3    C124  A    
C26   H73   S    
C122  C123  A    
C19   H44   S    
C51   C52   A    
C117  C118  A    
C47   O15   A    
C53   C63   S    
C1    O4    A    
C104  H22   S    
C57   C58   A    
C25   H71   S    
C60   C69   S    
C24   C59   S    
C114  H54   S    
C15   C16   A    
C23   H70   S    
C28   H83   S    
C88   H17   S    
C30   C39   A    
Cr3   O23   S    
C105  N8    S    
C37   C41   S    
C94   C95   A    
C22   H65   S    
C41   N2    A    
C10   C11   A    
C111  O20   S    
C59   C70   A    
C79   C80   A    
C4    H38   S    
Cr4   O5    S    
C23   C25   S    
C35   O7    A    
C73   H4    S    
C30   C37   A    
C8    C10   A    
C98   C99   A    
C7    H40   S    
C32   O26   A    
C89   H6    S    
C9    C120  A    
C14   C15   A    
C107  C112  A    
C100  C101  A    
C77   H5    S    
C29   N9    S    
C21   H63   S    
C89   C90   A    
C101  N7    S    
N3    N4    A    
C6    H39   S    
C107  H25   S    
C3    C4    A    
C119  H41   S    
C34   O3    A    
C57   N5    S    
