data_mof_unit_28344.cif
_audit_creation_date              2012-12-10T16:52:10-0500
_audit_creation_method            fapswitch 2.2
_symmetry_space_group_name_H-M    P1
_symmetry_Int_Tables_number       1
_space_group_crystal_system       triclinic
_cell_length_a                    7.775168
_cell_length_b                    8.562844
_cell_length_c                    14.883682
_cell_angle_alpha                 91.039913
_cell_angle_beta                  86.074752
_cell_angle_gamma                 93.683069
_cell_volume                      986.458691856

loop_
_atom_site_label
_atom_site_type_symbol
_atom_type_description
_atom_site_fract_x
_atom_site_fract_y
_atom_site_fract_z
_atom_type_partial_charge
C1    C     C_R   0.545755 0.794677 0.497588 0.945706
C2    C     C_R   0.549411 0.647128 0.813925 0.374051
C3    C     C_R   0.490753 0.494247 0.232435 -0.157042
C4    C     C_R   0.509247 0.505753 0.767565 -0.157042
C5    C     C_R   0.531649 0.634510 0.188118 -0.285149
C6    C     C_R   0.468351 0.365489 0.811882 -0.285149
C7    C     C_R   0.535203 0.637971 0.095389 0.131241
C8    C     C_R   0.464797 0.362029 0.904611 0.131241
C9    C     C_R   0.497329 0.498359 0.046934 -0.000568
C10   C     C_R   0.502671 0.501641 0.953066 -0.000568
C11   C     C_R   0.454529 0.355494 0.092235 0.087659
C12   C     C_R   0.454245 0.205322 0.502412 0.945707
C13   C     C_R   0.545471 0.644506 0.907765 0.087659
C14   C     C_R   0.577369 0.778762 0.050632 -0.226894
C15   C     C_R   0.422631 0.221238 0.949368 -0.226894
C16   C     C_R   0.582534 0.782189 0.957362 -0.162165
C17   C     C_R   0.417466 0.217811 0.042638 -0.162165
C18   C     C_2   0.569829 0.958229 0.496310 -0.359294
C19   C     C_2   0.430171 0.041771 0.503690 -0.359293
C20   C     C_R   0.502753 0.501297 0.672593 0.877217
C21   C     C_R   0.497247 0.498703 0.327407 0.877217
C22   C     C_R   0.450589 0.352872 0.186075 0.374051
H1    H     H_    0.562043 0.740851 0.226322 0.164307
H2    H     H_    0.986439 0.617348 0.567890 0.199002
H3    H     H_    0.409381 0.225989 0.295309 0.328486
H4    H     H_    0.590619 0.774011 0.704691 0.328487
H5    H     H_    0.437957 0.259149 0.773678 0.164307
H6    H     H_    0.606698 0.886155 0.087792 0.166128
H7    H     H_    0.393301 0.113845 0.912208 0.166128
H8    H     H_    0.615691 0.892910 0.924473 0.200701
H9    H     H_    0.384309 0.107090 0.075527 0.200701
H10   H     H_    0.701725 0.009331 0.489340 0.184534
H11   H     H_    0.298275 0.990668 0.510659 0.184533
H12   H     H_    0.013561 0.382652 0.432110 0.199002
N1    N     N_2   0.950330 0.457950 0.475660 -0.169791
N2    N     N_2   0.049670 0.542050 0.524340 -0.169791
O1    O     O_R   0.389250 0.738570 0.505970 -0.611207
O2    O     O_3   0.590118 0.788212 0.770758 -0.790937
O3    O     O_R   0.610750 0.261430 0.494030 -0.611207
O4    O     O_R   0.678390 0.711620 0.490370 -0.631363
O5    O     O_R   0.321610 0.288380 0.509630 -0.631363
O6    O     O_R   0.355420 0.513510 0.639950 -0.605537
O7    O     O_R   0.644580 0.486490 0.360050 -0.605537
O8    O     O_R   0.644560 0.486560 0.624350 -0.620787
O9    O     O_R   0.355440 0.513440 0.375650 -0.620787
O10   O     O_3   0.409882 0.211788 0.229242 -0.790937
Zn1   Zn    Zn3+2 0.306940 0.517990 0.510420 0.961701
Zn2   Zn    Zn3+2 0.693060 0.482010 0.489580 0.961701

loop_
_geom_bond_atom_site_label_1
_geom_bond_atom_site_label_2
_ccdc_geom_bond_type
C2    C4    A    
C15   C17   A    
C12   O5    A    
H4    O2    S    
O1    Zn1   S    
C5    C7    A    
C9    C10   A    
C2    O2    S    
C11   C22   A    
C20   O6    A    
N1    N2    D    
C5    H1    S    
C1    O1    A    
C14   H6    S    
C12   O3    A    
O5    Zn1   S    
C9    C11   A    
C1    C18   S    
H2    N2    S    
N1    Zn2   S    
C12   C19   S    
C8    C10   A    
C22   O10   S    
C15   H7    S    
C8    C15   A    
C21   O9    A    
O6    Zn1   S    
O9    Zn1   S    
C19   H11   S    
C17   H9    S    
C14   C16   A    
C3    C21   S    
C18   H10   S    
C16   H8    S    
C4    C20   S    
O8    Zn2   S    
N2    Zn1   S    
C4    C6    A    
H12   N1    S    
O7    Zn2   S    
C13   C16   A    
C7    C9    A    
C2    C13   A    
O4    Zn2   S    
C18   C19   D    
C3    C22   A    
C6    C8    A    
C1    O4    A    
C20   O8    A    
C21   O7    A    
H3    O10   S    
C7    C14   A    
C11   C17   A    
C6    H5    S    
O3    Zn2   S    
C3    C5    A    
C10   C13   A    
