data_mof_unit_18702.cif
_audit_creation_date              2012-12-10T17:27:54-0500
_audit_creation_method            fapswitch 2.2
_symmetry_space_group_name_H-M    P1
_symmetry_Int_Tables_number       1
_space_group_crystal_system       triclinic
_cell_length_a                    10.634385
_cell_length_b                    11.997372
_cell_length_c                    12.862383
_cell_angle_alpha                 93.74066
_cell_angle_beta                  90.34154
_cell_angle_gamma                 86.356009
_cell_volume                      1634.23333771

loop_
_atom_site_label
_atom_site_type_symbol
_atom_type_description
_atom_site_fract_x
_atom_site_fract_y
_atom_site_fract_z
_atom_type_partial_charge
C1    C     C_R   0.498712 0.522745 0.700758 0.897076
C2    C     C_R   0.536787 0.638511 0.865520 0.211451
C3    C     C_R   0.479840 0.444391 0.867968 -0.331151
C4    C     C_R   0.739510 0.499877 0.497117 0.863173
C5    C     C_R   0.494283 0.448537 0.974355 0.189465
C6    C     C_R   0.530925 0.548104 0.027060 0.151348
C7    C     C_R   0.542003 0.553377 0.133760 -0.259688
C8    C     C_R   0.481027 0.361604 0.136559 -0.231298
C9    C     C_R   0.472352 0.354590 0.028940 -0.203127
C10   C     C_R   0.372661 0.955916 0.412036 -0.377807
C11   C     C_R   0.386576 0.838937 0.417732 0.373186
C12   C     C_R   0.937874 0.433157 0.410425 0.093413
C13   C     C_R   0.556252 0.857942 0.537365 -0.109334
C14   C     C_R   0.546381 0.975529 0.532563 0.083970
C15   C     C_R   0.453347 0.024745 0.468761 0.061661
C16   C     C_R   0.504606 0.477467 0.299674 0.857696
C17   C     C_R   0.443521 0.142080 0.463238 -0.033968
C18   C     C_R   0.613178 0.161425 0.582067 0.029985
C19   C     C_R   0.626498 0.045050 0.589907 -0.323816
C20   C     C_R   0.260514 0.499231 0.496453 0.875116
C21   C     C_R   0.876116 0.371153 0.330426 -0.245824
C22   C     C_R   0.944821 0.307281 0.253445 -0.143658
C23   C     C_R   0.871649 0.499631 0.489197 -0.079525
C24   C     C_R   0.076549 0.304009 0.253720 0.289163
C25   C     C_R   0.138399 0.368154 0.330992 -0.282060
C26   C     C_R   0.069682 0.432066 0.410552 0.070998
C27   C     C_3   0.450537 0.813087 0.805709 -0.754241
C28   C     C_3   0.308556 0.773965 0.248749 -0.778945
C29   C     C_3   0.129645 0.121752 0.166018 -0.818507
C30   C     C_R   0.931622 0.567549 0.563050 -0.216829
C31   C     C_R   0.060093 0.566836 0.563082 -0.220674
C32   C     C_R   0.128239 0.498113 0.489350 -0.078031
C33   C     C_R   0.511265 0.462526 0.188489 -0.043789
C34   C     C_R   0.502593 0.537666 0.812890 -0.101846
C35   C     C_R   0.552308 0.642130 0.973026 -0.293122
H1    H     H_    0.878781 0.619096 0.622226 0.147771
H2    H     H_    0.239974 0.368006 0.327512 0.143406
H3    H     H_    0.106883 0.618112 0.622170 0.148485
H4    H     H_    0.570950 0.629606 0.174435 0.154124
H5    H     H_    0.460429 0.289981 0.179100 0.151419
H6    H     H_    0.579386 0.718744 0.014219 0.140696
H7    H     H_    0.638127 0.774256 0.837666 0.210886
H8    H     H_    0.473644 0.883122 0.758350 0.231923
H9    H     H_    0.422755 0.847943 0.885057 0.223336
H10   H     H_    0.370004 0.771228 0.768348 0.253883
H11   H     H_    0.373000 0.181155 0.413909 0.124759
H12   H     H_    0.445814 0.277280 0.988846 0.139553
H13   H     H_    0.213145 0.777968 0.388894 0.216073
H14   H     H_    0.259822 0.702609 0.211348 0.246609
H15   H     H_    0.407585 0.768203 0.221146 0.244056
H16   H     H_    0.260561 0.853207 0.224746 0.216221
H17   H     H_    0.240302 0.258183 0.170161 0.218609
H18   H     H_    0.190142 0.080423 0.102827 0.238175
H19   H     H_    0.030360 0.105335 0.146877 0.246967
H20   H     H_    0.156628 0.084698 0.240481 0.232214
H21   H     H_    0.451612 0.367471 0.827955 0.175234
H22   H     H_    0.675338 0.214922 0.625984 0.136745
H23   H     H_    0.299445 0.992518 0.363726 0.150420
H24   H     H_    0.698802 0.009900 0.640054 0.143791
H25   H     H_    0.626639 0.818739 0.586683 0.150863
H26   H     H_    0.774537 0.372938 0.325213 0.164672
H27   H     H_    0.894756 0.262054 0.192350 0.146919
N1    N     N_R   0.523130 0.207800 0.519340 -0.102879
N2    N     N_R   0.476870 0.792180 0.480660 -0.114605
N3    N     N_2   0.559375 0.734935 0.811326 -0.295164
N4    N     N_2   0.304088 0.769111 0.360779 -0.254555
N5    N     N_2   0.146867 0.240718 0.173670 -0.306032
O1    O     O_R   0.506170 0.421690 0.658830 -0.627280
O2    O     O_R   0.491330 0.609320 0.646410 -0.594231
O3    O     O_R   0.690660 0.406170 0.506210 -0.625012
O4    O     O_R   0.675810 0.593790 0.493790 -0.620795
O5    O     O_R   0.508670 0.390680 0.353590 -0.643304
O6    O     O_R   0.493830 0.578310 0.341170 -0.594021
O7    O     O_R   0.324190 0.406210 0.506210 -0.623598
O8    O     O_R   0.309340 0.593830 0.493790 -0.611189
Zn1   Zn    Zn3+2 0.509910 0.374720 0.508290 0.934899
Zn2   Zn    Zn3+2 0.490090 0.625280 0.491710 0.959497

loop_
_geom_bond_atom_site_label_1
_geom_bond_atom_site_label_2
_ccdc_geom_bond_type
C2    C35   A    
C26   C32   A    
N2    Zn2   S    
O2    Zn2   S    
C16   O5    A    
O5    Zn1   S    
C2    N3    S    
C4    O3    A    
C13   H25   S    
C12   C23   A    
O7    Zn1   S    
C10   H23   S    
C10   C15   A    
C5    C6    A    
C28   H16   S    
C18   N1    A    
N1    Zn1   S    
C1    O1    A    
C6    C35   A    
C18   C19   A    
C28   H14   S    
C24   N5    S    
C25   H2    S    
C29   N5    S    
C28   H15   S    
C27   H9    S    
C8    C9    A    
H7    N3    S    
C21   H26   S    
C11   N4    S    
C27   H10   S    
C13   C14   A    
C7    C33   A    
C1    C34   S    
C16   O6    A    
C23   C30   A    
C24   C25   A    
C11   N2    A    
C4    C23   S    
C29   H20   S    
C3    C34   A    
C19   H24   S    
C25   C26   A    
C12   C21   A    
C1    O2    A    
C20   O8    A    
C12   C26   A    
C28   N4    S    
C5    C9    A    
C27   N3    S    
C16   C33   S    
C22   H27   S    
C3    H21   S    
C18   H22   S    
C31   C32   A    
C20   O7    A    
C17   H11   S    
O8    Zn2   S    
H17   N5    S    
C9    H12   S    
O3    Zn1   S    
C22   C24   A    
O4    Zn2   S    
C20   C32   S    
C15   C17   A    
O6    Zn2   S    
C14   C19   A    
C3    C5    A    
C6    C7    A    
O1    Zn1   S    
C31   H3    S    
C30   H1    S    
C17   N1    A    
C2    C34   A    
C30   C31   A    
C13   N2    A    
C29   H18   S    
C8    C33   A    
C35   H6    S    
C10   C11   A    
C27   H8    S    
C29   H19   S    
C7    H4    S    
C14   C15   A    
C8    H5    S    
H13   N4    S    
C21   C22   A    
C4    O4    A    
