data_mof_unit_66996.cif
_audit_creation_date              2012-12-11T17:41:03-0500
_audit_creation_method            fapswitch 2.2
_symmetry_space_group_name_H-M    P1
_symmetry_Int_Tables_number       1
_space_group_crystal_system       triclinic
_cell_length_a                    8.222167
_cell_length_b                    12.680848
_cell_length_c                    14.209186
_cell_angle_alpha                 92.777793
_cell_angle_beta                  91.003448
_cell_angle_gamma                 98.436269
_cell_volume                      1463.30031649

loop_
_atom_site_label
_atom_site_type_symbol
_atom_type_description
_atom_site_fract_x
_atom_site_fract_y
_atom_site_fract_z
_atom_type_partial_charge
Ba1   Ba    Ba6+2 0.855630 0.555280 0.454520 1.692170
Ba2   Ba    Ba6+2 0.334200 0.444810 0.545490 1.690830
C1    C     C_3   0.649781 0.960500 0.185433 -0.332116
C2    C     C_3   0.652571 0.856818 0.234433 0.352013
C3    C     C_3   0.419628 0.256768 0.253521 0.536034
C4    C     C_3   0.314511 0.173348 0.188769 -0.277807
C5    C     C_3   0.015203 0.111831 0.804700 0.572127
C6    C     C_3   0.982976 0.997731 0.837392 0.478482
C7    C     C_3   0.533623 0.143313 0.770792 0.344109
C8    C     C_3   0.556726 0.050092 0.830222 -0.289487
C9    C     C_R   0.988741 0.440820 0.060343 0.037049
C10   C     C_R   0.183435 0.498423 0.195918 0.030431
C11   C     C_R   0.336381 0.553126 0.226698 -0.239032
C12   C     C_3   0.187173 0.858942 0.200065 0.244681
C13   C     C_R   0.448841 0.600100 0.163089 0.048356
C14   C     C_R   0.404533 0.601573 0.068034 -0.058502
C15   C     C_R   0.248705 0.552014 0.034842 0.044956
C16   C     C_R   0.138661 0.496157 0.097805 -0.045897
C17   C     C_R   0.053746 0.501534 0.901521 -0.078169
C18   C     C_R   0.944358 0.444479 0.964206 -0.041804
C19   C     C_R   0.008308 0.500003 0.803538 0.069733
C20   C     C_R   0.855355 0.445762 0.772573 -0.366918
C21   C     C_R   0.743999 0.397605 0.835712 -0.069984
C22   C     C_R   0.790015 0.392697 0.930015 0.566467
C23   C     C_3   0.120400 0.877262 0.102370 0.066127
C24   C     C_R   0.204362 0.556217 0.938921 0.039102
C25   C     C_R   0.756950 0.177187 0.547931 -0.259827
C26   C     C_R   0.433846 0.813248 0.458556 -0.282340
C27   C     C_R   0.406723 0.995345 0.430513 -0.102848
C28   C     C_R   0.344898 0.887529 0.421361 -0.028809
C29   C     C_R   0.577877 0.846327 0.512428 0.061854
C30   C     C_R   0.639746 0.957030 0.525943 -0.052540
C31   C     C_R   0.552992 0.032029 0.483150 -0.057896
C32   C     C_R   0.613737 0.142040 0.494834 0.039945
C33   C     C_R   0.847947 0.104681 0.586034 -0.035007
C34   C     C_3   0.233352 0.760767 0.654743 0.305889
C35   C     C_R   0.787244 0.995416 0.578108 -0.103774
C36   C     C_3   0.242745 0.880532 0.671594 -0.344622
C37   C     C_3   0.960763 0.240131 0.349502 0.284471
C38   C     C_3   0.954740 0.119780 0.335882 -0.349692
C39   C     C_3   0.714592 0.672485 0.737858 0.284674
C40   C     C_3   0.732494 0.695638 0.843981 -0.337236
H1    H     H_    0.730698 0.873234 0.299646 0.075205
H2    H     H_    0.305184 0.905796 0.740199 0.124280
H3    H     H_    0.311879 0.923581 0.615614 0.069871
H4    H     H_    0.117004 0.901891 0.671952 0.101889
H5    H     H_    0.836960 0.258995 0.363253 0.041243
H6    H     H_    0.042371 0.267347 0.411683 0.068240
H7    H     H_    0.935972 0.094366 0.260458 0.146047
H8    H     H_    0.853736 0.077013 0.376069 0.065848
H9    H     H_    0.072015 0.096432 0.360957 0.120413
H10   H     H_    0.830348 0.649290 0.711154 0.009557
H11   H     H_    0.612007 0.606042 0.723617 0.059672
H12   H     H_    0.616077 0.022566 0.236099 0.088757
H13   H     H_    0.842124 0.756360 0.860755 0.166248
H14   H     H_    0.747061 0.621949 0.880088 0.024959
H15   H     H_    0.621213 0.726059 0.870922 0.153108
H16   H     H_    0.524583 0.825956 0.253837 -0.105839
H17   H     H_    0.558662 0.947997 0.126094 0.173297
H18   H     H_    0.338878 0.301815 0.296405 -0.000186
H19   H     H_    0.245730 0.111343 0.230991 0.055789
H20   H     H_    0.225994 0.211313 0.146775 0.147249
H21   H     H_    0.393368 0.133676 0.139817 0.167641
H22   H     H_    0.771938 0.987882 0.156074 0.162026
H23   H     H_    0.897855 0.136192 0.781590 -0.126381
H24   H     H_    0.101288 0.969303 0.853441 0.088906
H25   H     H_    0.915670 0.944165 0.781080 -0.046172
H26   H     H_    0.655029 0.176191 0.743229 -0.091206
H27   H     H_    0.450235 0.114349 0.709715 0.067688
H28   H     H_    0.643031 0.078778 0.889970 0.213576
H29   H     H_    0.606580 0.987589 0.786789 0.078576
H30   H     H_    0.206594 0.773950 0.202010 0.025576
H31   H     H_    0.437613 0.015849 0.859730 0.162935
H32   H     H_    0.372297 0.553814 0.300380 0.070757
H33   H     H_    0.492318 0.640391 0.020033 0.080359
H34   H     H_    0.818578 0.446272 0.699118 0.080514
H35   H     H_    0.905002 0.394536 0.105528 0.181178
H36   H     H_    0.289455 0.602298 0.894132 0.105870
H37   H     H_    0.334707 0.049308 0.399060 0.092676
H38   H     H_    0.859951 0.942075 0.609808 0.093073
H39   H     H_    0.805310 0.261438 0.552566 0.052238
H40   H     H_    0.305071 0.912867 0.212972 0.002059
H41   H     H_    0.384026 0.729319 0.451554 0.063602
H42   H     H_    0.002862 0.823378 0.087386 0.151756
H43   H     H_    0.098181 0.961314 0.098741 0.138614
H44   H     H_    0.357731 0.741246 0.642695 0.002383
H45   H     H_    0.153202 0.736483 0.591339 0.065442
O1    O     O_2   0.887370 0.460630 0.272300 -0.418336
O2    O     O_3   0.682329 0.764938 0.695830 -0.638047
O3    O     O_3   0.074107 0.884047 0.267284 -0.606451
O4    O     O_2   0.302330 0.539400 0.727760 -0.475463
O5    O     O_3   0.060300 0.548700 0.611500 -0.502421
O6    O     O_3   0.519500 0.346920 0.670840 -0.495022
O7    O     O_3   0.171373 0.711298 0.735258 -0.622639
O8    O     O_3   0.614310 0.373510 0.452640 -0.462503
O9    O     O_3   0.100780 0.295230 0.623970 -0.454360
O10   O     O_2   0.176864 0.112710 0.555543 -0.481168
O11   O     O_3   0.135567 0.117630 0.735053 -0.630293
O12   O     O_3   0.129410 0.451380 0.388510 -0.505591
O13   O     O_3   0.575400 0.626570 0.547370 -0.497147
O14   O     O_2   0.344320 0.238700 0.455090 -0.482232
O15   O     O_3   0.529055 0.205912 0.305706 -0.649868
O16   O     O_2   0.410274 0.414864 0.834951 -0.435958
O17   O     O_3   0.462679 0.217752 0.827016 -0.488664
O18   O     O_3   0.670210 0.653170 0.329170 -0.479057
O19   O     O_2   0.787092 0.591420 0.164995 -0.447578
O20   O     O_3   0.016250 0.288384 0.266908 -0.631534
O21   O     O_3   0.719762 0.785343 0.173223 -0.584600
O22   O     O_2   0.845380 0.761330 0.544970 -0.466477
O23   O     O_3   0.088930 0.704860 0.376040 -0.476676
O24   O     O_2   0.013220 0.887568 0.445432 -0.473777
P1    P     P_3+3 0.054400 0.427280 0.286870 1.002349
P2    P     P_3+3 0.668300 0.742890 0.573060 0.965454
P3    P     P_3+3 0.133368 0.843281 0.376980 0.949802
P4    P     P_3+3 0.135310 0.572810 0.713130 0.988699
P5    P     P_3+3 0.060765 0.155676 0.627282 0.958968
P6    P     P_3+3 0.656685 0.655313 0.206657 1.032958
P7    P     P_3+3 0.527586 0.240303 0.426715 0.943778
P8    P     P_3+3 0.534398 0.346367 0.793080 1.106262
Br1   Br    Br    0.548847 0.355166 0.176374 -0.510979
Br2   Br    Br    0.274011 0.848348 0.006080 -0.694584
Br3   Br    Br    0.099969 0.207567 0.910487 -0.483991
F1    F     F_    0.890026 0.992308 0.917653 -0.699235
F2    F     F_    0.684063 0.336811 0.987647 -0.658151

loop_
_geom_bond_atom_site_label_1
_geom_bond_atom_site_label_2
_ccdc_geom_bond_type
C32   P7    S    
C39   O2    S    
C9    C16   A    
C6    H24   S    
C5    O11   S    
C14   H33   S    
O20   P1    S    
C17   C18   A    
C20   H34   S    
C19   P4    S    
Ba1   O12   S    
C5    C6    S    
C1    H22   S    
C37   O20   S    
C2    O21   S    
C24   H36   S    
O14   P7    D    
C4    H19   S    
Ba2   O8    S    
C17   C19   A    
C7    H27   S    
Ba1   P1    S    
C21   P8    S    
C3    C4    S    
C40   H13   S    
C1    H12   S    
C13   C14   A    
C27   C31   A    
C22   F2    S    
C40   H15   S    
Ba1   Ba2   S    
C39   C40   S    
C17   C24   A    
C12   O3    S    
C36   H3    S    
C9    H35   S    
Ba1   O22   S    
C18   C22   A    
C14   C15   A    
C23   H42   S    
C21   C22   A    
C7    C8    S    
O23   P3    S    
C39   H10   S    
O15   P7    S    
O22   P2    D    
O17   P8    S    
C40   H14   S    
C8    H29   S    
Ba1   O1    S    
Ba2   O13   S    
C34   H45   S    
C19   C20   A    
C26   H41   S    
O18   P6    S    
Ba1   P2    S    
Ba1   O13   S    
C31   C32   A    
C26   C29   A    
C25   C32   A    
C35   H38   S    
O2    P2    S    
C9    C18   A    
C3    Br1   S    
C25   H39   S    
C37   C38   S    
Ba2   O14   S    
C25   C33   A    
C13   P6    S    
C4    H21   S    
C36   H2    S    
C27   C28   A    
Ba1   O23   S    
C5    H23   S    
Ba2   P4    S    
O11   P5    S    
C29   C30   A    
C27   H37   S    
Ba1   O8    S    
C23   H43   S    
C15   C16   A    
C33   P5    S    
C30   C35   A    
C10   C11   A    
O10   P5    D    
Ba2   O5    S    
C39   H11   S    
C8    H28   S    
Ba2   O12   S    
Ba1   O5    S    
C11   C13   A    
O19   P6    D    
C15   C24   A    
C5    Br3   S    
C2    H16   S    
C1    C2    S    
C10   P1    S    
C37   H5    S    
C28   P3    S    
C3    O15   S    
C3    H18   S    
C33   C35   A    
O8    P7    S    
C12   H30   S    
O21   P6    S    
Ba2   O6    S    
O16   P8    D    
O13   P2    S    
O7    P4    S    
C6    F1    S    
C2    H1    S    
C38   H9    S    
C34   H44   S    
C30   C31   A    
C4    H20   S    
Ba2   O9    S    
C7    H26   S    
C34   C36   S    
C7    O17   S    
C38   H8    S    
O12   P1    S    
C26   C28   A    
C8    H31   S    
O4    P4    D    
O24   P3    D    
O3    P3    S    
C12   C23   S    
Ba2   O4    S    
O5    P4    S    
C36   H4    S    
O1    P1    D    
C34   O7    S    
C11   H32   S    
C6    H25   S    
C10   C16   A    
C12   H40   S    
C20   C21   A    
O9    P5    S    
O6    P8    S    
C23   Br2   S    
C29   P2    S    
C38   H7    S    
Ba1   O18   S    
C37   H6    S    
C1    H17   S    
