data_mof_unit_21463.cif
_audit_creation_date              2012-10-26T20:32:03-0400
_audit_creation_method            fapswitch 2.2
_symmetry_space_group_name_H-M    P1
_symmetry_Int_Tables_number       1
_space_group_crystal_system       triclinic
_cell_length_a                    10.645802
_cell_length_b                    10.872533
_cell_length_c                    9.574722
_cell_angle_alpha                 90.162815
_cell_angle_beta                  89.86919
_cell_angle_gamma                 90.334706
_cell_volume                      1108.21752296

loop_
_atom_site_label
_atom_site_type_symbol
_atom_type_description
_atom_site_fract_x
_atom_site_fract_y
_atom_site_fract_z
_atom_type_partial_charge
C1    C     C_R   0.500063 0.262868 0.499644 0.546356
C2    C     C_R   0.478230 0.939182 0.620641 0.020609
C3    C     C_3   0.455246 0.936553 0.775729 0.016816
C4    C     C_R   0.259565 0.500345 0.499908 0.553820
C5    C     C_3   0.460690 0.077954 0.771522 -0.228461
C6    C     C_R   0.606148 0.529801 0.073130 0.146865
C7    C     C_R   0.400262 0.456495 0.075637 0.038359
C8    C     C_R   0.400964 0.452645 0.927785 0.310010
C9    C     C_R   0.606403 0.529066 0.926297 0.129372
C10   C     C_3   0.680961 0.644859 0.919603 -0.286783
C11   C     C_3   0.678740 0.647326 0.078353 -0.272208
C12   C     C_3   0.959564 0.597506 0.431493 0.155551
C13   C     C_R   0.498101 0.737273 0.500264 0.541064
C14   C     C_R   0.740448 0.499817 0.500051 0.554366
C15   C     C_3   0.041682 0.400605 0.569011 -0.146365
C16   C     C_3   0.957794 0.396905 0.436519 -0.164629
C17   C     C_3   0.877057 0.499636 0.500566 0.020253
C18   C     C_3   0.958734 0.503116 0.633784 -0.098359
C19   C     C_3   0.040894 0.601249 0.562062 0.164621
C20   C     C_3   0.998612 0.791962 0.689512 -0.317498
C21   C     C_3   0.999193 0.777599 0.284432 -0.316926
C22   C     C_3   0.320809 0.774054 0.878242 -0.266170
C23   C     C_3   0.041355 0.496463 0.365746 -0.114807
C24   C     C_3   0.122993 0.500461 0.499118 0.030229
C25   C     C_R   0.482217 0.063376 0.619175 -0.020194
C26   C     C_R   0.499583 0.130336 0.497854 0.005767
C27   C     C_R   0.515144 0.064043 0.372291 -0.160728
C28   C     C_R   0.513783 0.935029 0.373180 -0.166954
C29   C     C_R   0.496047 0.870089 0.499477 -0.005907
Cu1   Cu    Cu3+1 0.499990 0.499980 0.640670 0.932670
Cu2   Cu    Cu3+1 0.500010 0.500020 0.359330 0.926139
H1    H     H_    0.920276 0.312543 0.385630 0.119086
H2    H     H_    0.078805 0.319308 0.625004 0.129377
H3    H     H_    0.923978 0.505081 0.743060 0.122226
H4    H     H_    0.076986 0.493754 0.256719 0.121681
H5    H     H_    0.529154 0.111118 0.273889 0.138758
H6    H     H_    0.527416 0.886894 0.275244 0.130782
H7    H     H_    0.334211 0.345952 0.788168 0.355257
H8    H     H_    0.159632 0.754369 0.572807 0.241518
H9    H     H_    0.045867 0.861018 0.756963 0.137438
H10   H     H_    0.930728 0.740311 0.755108 0.146013
H11   H     H_    0.947781 0.841197 0.605804 0.137383
H12   H     H_    0.532531 0.897057 0.838253 0.123958
H13   H     H_    0.843031 0.750607 0.413476 0.245496
H14   H     H_    0.948970 0.847315 0.221484 0.137260
H15   H     H_    0.056895 0.720923 0.212369 0.153111
H16   H     H_    0.061201 0.825926 0.359984 0.143545
H17   H     H_    0.260352 0.912463 0.742043 0.256963
H18   H     H_    0.226941 0.764020 0.927761 0.146831
H19   H     H_    0.393148 0.763629 0.960787 0.136831
H20   H     H_    0.330975 0.700592 0.798886 0.219613
H21   H     H_    0.369973 0.123860 0.794832 0.150983
H22   H     H_    0.543914 0.117705 0.825540 0.118632
H23   H     H_    0.319589 0.421176 0.131754 0.143468
H24   H     H_    0.776142 0.628951 0.876292 0.117831
H25   H     H_    0.628734 0.720672 0.870345 0.137429
H26   H     H_    0.773183 0.634907 0.125069 0.168695
H27   H     H_    0.623339 0.724717 0.122159 0.137200
N1    N     N_R   0.500800 0.500930 0.147930 -0.269836
N2    N     N_R   0.500800 0.500890 0.852020 -0.248939
N3    N     N_2   0.090991 0.710012 0.630011 -0.510494
N4    N     N_2   0.908632 0.701665 0.357230 -0.523167
N5    N     N_2   0.330186 0.893508 0.813111 -0.525112
O1    O     O_R   0.500000 0.319640 0.618810 -0.525090
O2    O     O_R   0.500010 0.319680 0.381230 -0.507042
O3    O     O_R   0.316850 0.499950 0.618770 -0.476556
O4    O     O_R   0.316860 0.499990 0.381190 -0.526828
O5    O     O_R   0.499990 0.680320 0.618770 -0.511712
O6    O     O_R   0.500000 0.680360 0.381190 -0.507661
O7    O     O_R   0.683140 0.500010 0.618810 -0.510289
O8    O     O_R   0.683150 0.500050 0.381230 -0.485422
O9    O     O_3   0.300138 0.396876 0.864613 -0.716095

loop_
_geom_bond_atom_site_label_1
_geom_bond_atom_site_label_2
_ccdc_geom_bond_type
C15   C18   S    
Cu1   O1    S    
C14   O8    A    
C6    C9    A    
C20   H10   S    
C7    C8    A    
Cu2   O4    S    
C12   C23   S    
C3    H12   S    
C26   C27   A    
C2    C29   A    
C13   C29   S    
C28   C29   A    
Cu1   Cu2   S    
C20   H9    S    
C15   C16   S    
C18   C19   S    
Cu2   N1    S    
C20   N3    S    
C22   N5    S    
C16   C17   S    
Cu1   N2    S    
C12   C17   S    
C1    O2    A    
C23   C24   S    
C5    H21   S    
C11   H27   S    
C10   H25   S    
C9    C10   S    
C22   H19   S    
Cu2   O8    S    
C14   O7    A    
C14   C17   S    
C7    N1    A    
Cu1   O7    S    
C21   H14   S    
H8    N3    S    
H7    O9    S    
C8    O9    S    
C6    C11   S    
H17   N5    S    
H13   N4    S    
C25   C26   A    
C12   N4    S    
C17   C18   S    
C10   H24   S    
C18   H3    S    
C21   N4    S    
Cu1   O3    S    
C22   H18   S    
C5    C25   S    
C15   C24   S    
C16   C23   S    
C23   H4    S    
C1    C26   S    
C1    O1    A    
C21   H15   S    
C5    H22   S    
Cu2   O2    S    
C6    N1    A    
C3    C5    S    
C4    O4    A    
C20   H11   S    
C3    N5    S    
C27   H5    S    
C16   H1    S    
C9    N2    A    
C2    C3    S    
C8    N2    A    
C4    O3    A    
C13   O6    A    
C28   H6    S    
C19   N3    S    
C4    C24   S    
C12   C19   S    
C19   C24   S    
C2    C25   A    
C10   C11   S    
Cu2   O6    S    
C27   C28   A    
C7    H23   S    
C11   H26   S    
C15   H2    S    
Cu1   O5    S    
C22   H20   S    
C21   H16   S    
C13   O5    A    
