data_mof_unit_65496.cif
_audit_creation_date              2012-12-10T18:01:23-0500
_audit_creation_method            fapswitch 2.2
_symmetry_space_group_name_H-M    P1
_symmetry_Int_Tables_number       1
_space_group_crystal_system       triclinic
_cell_length_a                    18.346701
_cell_length_b                    18.356711
_cell_length_c                    25.836423
_cell_angle_alpha                 90.000534
_cell_angle_beta                  90.000594
_cell_angle_gamma                 90.001488
_cell_volume                      8701.32199144

loop_
_atom_site_label
_atom_site_type_symbol
_atom_type_description
_atom_site_fract_x
_atom_site_fract_y
_atom_site_fract_z
_atom_type_partial_charge
C1    C     C_R   0.859687 0.139911 0.750072 0.535110
C2    C     C_R   0.197126 0.195379 0.249725 -0.020453
C3    C     C_R   0.250865 0.697551 0.209944 0.413415
C4    C     C_R   0.195921 0.196582 0.749090 -0.019575
C5    C     C_R   0.802903 0.195410 0.750226 -0.020612
C6    C     C_R   0.302876 0.695382 0.749727 -0.020515
C7    C     C_R   0.695916 0.696587 0.750912 -0.019549
C8    C     C_R   0.697125 0.695380 0.250273 -0.020458
C9    C     C_R   0.304088 0.696592 0.249084 -0.019619
C10   C     C_R   0.803549 0.250108 0.212231 -0.207566
C11   C     C_R   0.186146 0.260410 0.222396 -0.208575
C12   C     C_R   0.196413 0.250146 0.787743 -0.207528
C13   C     C_R   0.139988 0.140234 0.749755 0.534001
C14   C     C_R   0.813467 0.260027 0.778129 -0.208627
C15   C     C_R   0.313872 0.760428 0.722419 -0.208661
C16   C     C_R   0.696470 0.750088 0.712217 -0.207590
C17   C     C_R   0.686171 0.760387 0.277636 -0.208566
C18   C     C_R   0.303549 0.750108 0.287770 -0.207546
C19   C     C_R   0.260451 0.813834 0.722395 -0.206789
C20   C     C_R   0.749888 0.803501 0.712201 -0.202815
C21   C     C_R   0.739592 0.813792 0.277661 -0.206643
C22   C     C_R   0.250132 0.803521 0.287785 -0.202687
C23   C     C_R   0.750132 0.303521 0.212215 -0.202712
C24   C     C_R   0.140322 0.139900 0.249915 0.535458
C25   C     C_R   0.239567 0.313815 0.222371 -0.206654
C26   C     C_R   0.249832 0.303560 0.787759 -0.202657
C27   C     C_R   0.760049 0.313430 0.778153 -0.206778
C28   C     C_R   0.195348 0.802880 0.749679 -0.022357
C29   C     C_R   0.803435 0.804097 0.750881 -0.018883
C30   C     C_R   0.804654 0.802879 0.250321 -0.022402
C31   C     C_R   0.196570 0.804101 0.249115 -0.018810
C32   C     C_R   0.696569 0.304101 0.250884 -0.018818
C33   C     C_R   0.304655 0.302878 0.249677 -0.022399
C34   C     C_R   0.303440 0.304092 0.749122 -0.018920
C35   C     C_R   0.860014 0.140236 0.250247 0.533767
C36   C     C_R   0.695376 0.302907 0.750273 -0.022426
C37   C     C_R   0.999999 0.933693 0.973327 -0.112430
C38   C     C_R   0.000005 0.933693 0.026672 -0.112422
C39   C     C_R   0.500009 0.433694 0.473327 -0.112348
C40   C     C_R   0.500003 0.433693 0.526672 -0.112266
C41   C     C_R   0.000002 0.999988 0.053419 0.040531
C42   C     C_R   0.999998 0.999988 0.946581 0.040526
C43   C     C_R   0.499999 0.499988 0.553419 0.040516
C44   C     C_R   0.500003 0.499988 0.446581 0.040519
C45   C     C_R   0.999998 0.066280 0.026672 -0.131075
C46   C     C_R   0.360014 0.640236 0.249752 0.533771
C47   C     C_R   0.999998 0.066280 0.973329 -0.131102
C48   C     C_R   0.499996 0.566280 0.526671 -0.131037
C49   C     C_R   0.499996 0.566280 0.473329 -0.131034
C50   C     C_R   0.139866 0.859681 0.749855 0.525585
C51   C     C_R   0.859795 0.860021 0.750192 0.530153
C52   C     C_R   0.860135 0.859681 0.250145 0.525429
C53   C     C_R   0.140207 0.860022 0.249806 0.530433
C54   C     C_R   0.640207 0.360022 0.250193 0.530429
C55   C     C_R   0.360135 0.359681 0.249854 0.525434
C56   C     C_R   0.359796 0.360019 0.749808 0.530134
C57   C     C_R   0.640322 0.639901 0.250085 0.535449
C58   C     C_R   0.639875 0.359690 0.750132 0.525442
C59   C     C_R   0.999998 0.999996 0.890891 0.508876
C60   C     C_R   0.000002 0.999995 0.109109 0.508934
C61   C     C_R   0.500002 0.499996 0.390891 0.508953
C62   C     C_R   0.499999 0.499995 0.609109 0.509015
C63   C     C_R   0.000095 0.000023 0.608652 0.492926
C64   C     C_R   0.000095 0.000022 0.391348 0.492651
C65   C     C_R   0.500095 0.500022 0.108652 0.492646
C66   C     C_R   0.500095 0.500023 0.891348 0.492826
C67   C     C_3   0.960999 0.931348 0.529934 -0.234680
C68   C     C_R   0.639987 0.640235 0.750246 0.534027
C69   C     C_3   0.079743 0.000050 0.529728 -0.223251
C70   C     C_3   0.079743 0.000048 0.470274 -0.225100
C71   C     C_3   0.960998 0.931348 0.470066 -0.234203
C72   C     C_3   0.460999 0.431347 0.029933 -0.234201
C73   C     C_3   0.579743 0.500049 0.029727 -0.225094
C74   C     C_3   0.579744 0.500051 0.970273 -0.223246
C75   C     C_3   0.461000 0.431347 0.970065 -0.234675
C76   C     C_3   0.960972 0.068698 0.529934 -0.231739
C77   C     C_3   0.960972 0.068697 0.470065 -0.229375
C78   C     C_3   0.460971 0.568697 0.029936 -0.229380
C79   C     C_R   0.359678 0.639902 0.749916 0.535267
C80   C     C_3   0.460972 0.568697 0.970066 -0.231818
C81   C     C_3   0.000434 0.000031 0.550882 0.048917
C82   C     C_3   0.000434 0.000030 0.449118 0.048477
C83   C     C_3   0.500434 0.500030 0.050882 0.048532
C84   C     C_3   0.500435 0.500031 0.949118 0.049057
C85   C     C_R   0.183923 0.737354 0.776663 0.417094
C86   C     C_R   0.802505 0.750924 0.790043 0.421632
C87   C     C_R   0.816039 0.737391 0.223281 0.417096
C88   C     C_R   0.197488 0.750915 0.209961 0.421586
C89   C     C_R   0.697487 0.250914 0.290037 0.421630
C90   C     C_R   0.804088 0.196591 0.250916 -0.019627
C91   C     C_R   0.316066 0.237366 0.276680 0.417098
C92   C     C_R   0.302575 0.250852 0.710005 0.421472
C93   C     C_R   0.684398 0.237821 0.722660 0.417147
C94   C     C_R   0.750864 0.197550 0.290054 0.413453
C95   C     C_R   0.262691 0.184012 0.276708 0.413175
C96   C     C_R   0.249199 0.197486 0.709988 0.413425
C97   C     C_R   0.737766 0.184476 0.722633 0.413205
C98   C     C_R   0.237298 0.684001 0.776690 0.413226
C99   C     C_R   0.749128 0.697558 0.790059 0.413495
C100  C     C_R   0.762664 0.684038 0.223254 0.413174
F1    F     F_    0.120936 0.724096 0.802648 -0.534817
F2    F     F_    0.275962 0.121104 0.302745 -0.551656
F3    F     F_    0.249539 0.147467 0.671239 -0.554711
F4    F     F_    0.724913 0.122022 0.695943 -0.551114
F5    F     F_    0.224011 0.621077 0.802705 -0.551239
F6    F     F_    0.749395 0.647609 0.828854 -0.554702
F7    F     F_    0.775911 0.621156 0.197178 -0.551661
F8    F     F_    0.250585 0.647590 0.171157 -0.554278
F9    F     F_    0.852506 0.750680 0.828822 -0.536238
F10   F     F_    0.878984 0.724173 0.197235 -0.534880
F11   F     F_    0.147473 0.750654 0.171192 -0.536161
F12   F     F_    0.647471 0.250653 0.328806 -0.536062
F13   F     F_    0.379038 0.224123 0.302688 -0.534865
F14   F     F_    0.352645 0.250533 0.671272 -0.536254
F15   F     F_    0.621881 0.224997 0.695999 -0.534683
F16   F     F_    0.750584 0.147589 0.328841 -0.554185
H1    H     H_    0.903771 0.929868 0.544184 0.147672
H2    H     H_    0.109548 0.951126 0.543907 0.144495
H3    H     H_    0.109546 0.951122 0.456095 0.143574
H4    H     H_    0.988636 0.881344 0.455633 0.117611
H5    H     H_    0.488636 0.381343 0.044366 0.117564
H6    H     H_    0.609549 0.451124 0.043905 0.143536
H7    H     H_    0.609550 0.451128 0.956093 0.144382
H8    H     H_    0.488638 0.381344 0.955633 0.117535
H9    H     H_    0.903743 0.070152 0.544184 0.160321
H10   H     H_    0.988593 0.118712 0.544367 0.128662
H11   H     H_    0.988592 0.118712 0.455632 0.128158
H12   H     H_    0.109529 0.048988 0.543909 0.165087
H13   H     H_    0.903743 0.070154 0.455813 0.166917
H14   H     H_    0.403741 0.570154 0.044186 0.166816
H15   H     H_    0.488590 0.618713 0.044369 0.128111
H16   H     H_    0.488591 0.618713 0.955634 0.128547
H17   H     H_    0.403742 0.570153 0.955816 0.159962
H18   H     H_    0.844020 0.250423 0.181706 0.173197
H19   H     H_    0.136069 0.270336 0.201337 0.176113
H20   H     H_    0.155902 0.250502 0.818241 0.173311
H21   H     H_    0.863201 0.269624 0.799669 0.176135
H22   H     H_    0.363960 0.770367 0.701376 0.176030
H23   H     H_    0.109529 0.048984 0.456093 0.158586
H24   H     H_    0.656010 0.750390 0.681684 0.173267
H25   H     H_    0.636115 0.770294 0.298724 0.176130
H26   H     H_    0.344019 0.750422 0.318296 0.173215
H27   H     H_    0.999997 0.881942 0.953174 0.180347
H28   H     H_    0.000010 0.881942 0.046824 0.180356
H29   H     H_    0.500017 0.381942 0.453174 0.180410
H30   H     H_    0.500004 0.381942 0.546824 0.180553
H31   H     H_    0.999996 0.118033 0.046822 0.148076
H32   H     H_    0.999997 0.118033 0.953179 0.148042
H33   H     H_    0.499993 0.618033 0.546822 0.148101
H34   H     H_    0.903769 0.929870 0.455816 0.149216
H35   H     H_    0.499992 0.618033 0.453180 0.148102
H36   H     H_    0.270423 0.863877 0.701338 0.184535
H37   H     H_    0.749555 0.843924 0.681658 0.181353
H38   H     H_    0.729651 0.863804 0.298763 0.184843
H39   H     H_    0.250478 0.843956 0.318321 0.181098
H40   H     H_    0.750479 0.343956 0.181680 0.181080
H41   H     H_    0.229607 0.363847 0.201298 0.184825
H42   H     H_    0.249445 0.344035 0.818268 0.181461
H43   H     H_    0.769680 0.363119 0.799707 0.184541
H44   H     H_    0.403769 0.429868 0.044182 0.149168
H45   H     H_    0.609530 0.548986 0.043908 0.158589
H46   H     H_    0.609529 0.548989 0.956093 0.165095
H47   H     H_    0.403771 0.429866 0.955814 0.147580
H48   H     H_    0.988638 0.881345 0.544366 0.117660
O1    O     O_3   0.000000 0.000000 0.749970 -0.479820
O2    O     O_R   0.646190 0.585480 0.219360 -0.463536
O3    O     O_R   0.646190 0.585480 0.780640 -0.465100
O4    O     O_R   0.353810 0.585480 0.780640 -0.463484
O5    O     O_R   0.146170 0.914530 0.719320 -0.556018
O6    O     O_R   0.853830 0.914530 0.719320 -0.549544
O7    O     O_R   0.853830 0.914530 0.280680 -0.555841
O8    O     O_R   0.146170 0.914530 0.280680 -0.549439
O9    O     O_R   0.646170 0.414530 0.219320 -0.549457
O10   O     O_R   0.353830 0.414530 0.219320 -0.555848
O11   O     O_R   0.353830 0.414530 0.780680 -0.549277
O12   O     O_3   0.000000 0.000000 0.250030 -0.479815
O13   O     O_R   0.646170 0.414530 0.780680 -0.556111
O14   O     O_R   0.085450 0.146180 0.780600 -0.559341
O15   O     O_R   0.914550 0.146180 0.780600 -0.558126
O16   O     O_R   0.914550 0.146180 0.219400 -0.559457
O17   O     O_R   0.085450 0.146180 0.219400 -0.557992
O18   O     O_R   0.585450 0.646180 0.280600 -0.557991
O19   O     O_R   0.414550 0.646180 0.280600 -0.559449
O20   O     O_R   0.414550 0.646180 0.719400 -0.558047
O21   O     O_R   0.585450 0.646180 0.719400 -0.559420
O22   O     O_R   0.914560 0.853830 0.780620 -0.454826
O23   O     O_3   0.500000 0.500000 0.249970 -0.479817
O24   O     O_R   0.085440 0.853830 0.780620 -0.460625
O25   O     O_R   0.085440 0.853830 0.219380 -0.454817
O26   O     O_R   0.914560 0.853830 0.219380 -0.460667
O27   O     O_R   0.414560 0.353830 0.280620 -0.460672
O28   O     O_R   0.585440 0.353830 0.280620 -0.454792
O29   O     O_R   0.585440 0.353830 0.719380 -0.460370
O30   O     O_R   0.414560 0.353830 0.719380 -0.455083
O31   O     O_R   0.000000 0.060730 0.866830 -0.554352
O32   O     O_R   0.000000 0.060730 0.133170 -0.554276
O33   O     O_R   0.500000 0.560730 0.366830 -0.554267
O34   O     O_3   0.500000 0.500000 0.750030 -0.479823
O35   O     O_R   0.500000 0.560730 0.633170 -0.554279
O36   O     O_R   0.939250 0.000010 0.633130 -0.543219
O37   O     O_R   0.060750 0.000010 0.633130 -0.538967
O38   O     O_R   0.060750 0.000010 0.366870 -0.546481
O39   O     O_R   0.939250 0.000010 0.366870 -0.535860
O40   O     O_R   0.439250 0.500010 0.133130 -0.535881
O41   O     O_R   0.560750 0.500010 0.133130 -0.546473
O42   O     O_R   0.560750 0.500010 0.866870 -0.539025
O43   O     O_R   0.439250 0.500010 0.866870 -0.543540
O44   O     O_R   0.000000 0.939270 0.866820 -0.527067
O45   O     O_R   0.853810 0.085480 0.719360 -0.463239
O46   O     O_R   1.000000 0.939270 0.133180 -0.527038
O47   O     O_R   0.500000 0.439270 0.366820 -0.527030
O48   O     O_R   0.500000 0.439270 0.633180 -0.526770
O49   O     O_R   0.146190 0.085480 0.719360 -0.465169
O50   O     O_R   0.146190 0.085480 0.280640 -0.463548
O51   O     O_R   0.853810 0.085480 0.280640 -0.465119
O52   O     O_R   0.353810 0.585480 0.219360 -0.465133
Zn1   Zn    Zn3+2 0.086750 0.999990 0.706190 0.978286
Zn2   Zn    Zn3+2 0.000000 0.086770 0.206250 0.933914
Zn3   Zn    Zn3+2 0.500000 0.586770 0.293750 0.933939
Zn4   Zn    Zn3+2 0.500000 0.586770 0.706250 0.933990
Zn5   Zn    Zn3+2 0.000000 0.913230 0.793740 1.042263
Zn6   Zn    Zn3+2 1.000000 0.913230 0.206260 1.042370
Zn7   Zn    Zn3+2 0.500000 0.413230 0.293740 1.042407
Zn8   Zn    Zn3+2 0.500000 0.413230 0.706260 1.042493
Zn9   Zn    Zn3+2 0.913250 0.999990 0.706190 0.983600
Zn10  Zn    Zn3+2 0.913250 0.999990 0.293810 0.979450
Zn11  Zn    Zn3+2 0.086750 0.999990 0.293810 0.982286
Zn12  Zn    Zn3+2 0.586750 0.499990 0.206190 0.982278
Zn13  Zn    Zn3+2 0.413250 0.499990 0.206190 0.979411
Zn14  Zn    Zn3+2 0.413250 0.499990 0.793810 0.983379
Zn15  Zn    Zn3+2 0.586750 0.499990 0.793810 0.978153
Zn16  Zn    Zn3+2 0.000000 0.086770 0.793750 0.933835

loop_
_geom_bond_atom_site_label_1
_geom_bond_atom_site_label_2
_ccdc_geom_bond_type
C44   C49   A    
C33   C55   S    
O5    Zn1   S    
C34   C56   S    
O46   Zn6   S    
O21   Zn4   S    
C93   C97   A    
C72   H5    S    
C76   H10   S    
C73   C74   S    
O16   Zn2   S    
C71   C82   S    
C80   C84   S    
C50   O24   A    
O1    Zn5   S    
C87   F10   S    
O23   Zn3   S    
C79   O20   A    
C15   C19   A    
C89   F12   S    
C4    C13   S    
C98   F5    S    
O12   Zn6   S    
C71   H4    S    
C63   C81   S    
C1    C5    S    
C6    C98   A    
C54   O9    A    
O40   Zn13  S    
C2    C95   A    
O42   Zn15  S    
C79   O4    A    
C62   O35   A    
C36   C58   S    
C33   C91   A    
C93   F15   S    
C66   O42   A    
O8    Zn11  S    
C78   C80   S    
C75   C84   S    
C65   C83   S    
C71   H34   S    
C65   O41   A    
C11   C25   A    
C27   H43   S    
C80   H16   S    
C69   H2    S    
C92   C96   A    
C63   O36   A    
O41   Zn12  S    
C75   H47   S    
C61   O47   A    
C13   O49   A    
C37   C42   A    
O12   Zn11  S    
C73   H45   S    
C85   C98   A    
C53   O8    A    
C6    C15   A    
C4    C96   A    
C88   F11   S    
C24   O50   A    
C36   C93   A    
C26   C34   A    
C40   C43   A    
C69   H12   S    
C92   F14   S    
O1    Zn16  S    
C21   H38   S    
C14   H21   S    
C59   O44   A    
C3    F8    S    
C14   C27   A    
C4    C12   A    
C37   H27   S    
C43   C48   A    
O50   Zn11  S    
C77   H11   S    
C95   F2    S    
O1    Zn1   S    
C42   C47   A    
C15   H22   S    
O24   Zn5   S    
C45   C47   A    
C74   H7    S    
C7    C68   S    
O18   Zn3   S    
O11   Zn14  S    
O12   Zn2   S    
C48   H33   S    
C76   H9    S    
C16   H24   S    
C28   C50   S    
C72   C75   S    
C2    C11   A    
C78   C83   S    
C52   O7    A    
C32   C54   S    
C57   O18   A    
O10   Zn13  S    
C90   C94   A    
C20   C29   A    
O29   Zn8   S    
C20   H37   S    
C49   H35   S    
C56   O11   A    
C1    O45   A    
C75   H8    S    
C72   C83   S    
C18   H26   S    
C86   F9    S    
C76   C77   S    
O28   Zn7   S    
C38   C41   A    
C22   C31   A    
C61   O33   A    
C39   C40   A    
C74   H46   S    
O49   Zn1   S    
O34   Zn15  S    
C52   O26   A    
C57   O2    A    
O26   Zn6   S    
C59   O31   A    
O44   Zn5   S    
C66   C84   S    
C17   C21   A    
C80   H17   S    
C91   F13   S    
O39   Zn10  S    
C12   C26   A    
C55   O27   A    
C46   O19   A    
C76   C81   S    
O34   Zn8   S    
C78   H15   S    
C35   C90   S    
C55   O10   A    
O14   Zn16  S    
C37   C38   A    
C3    C9    A    
C11   H19   S    
C8    C57   S    
C32   C89   A    
O7    Zn10  S    
O20   Zn4   S    
C70   H3    S    
C16   C20   A    
O47   Zn7   S    
C39   H29   S    
O1    Zn9   S    
O52   Zn13  S    
C29   C86   A    
C70   H23   S    
C77   H13   S    
C31   C53   S    
C19   C28   A    
C67   H1    S    
C64   C82   S    
C5    C14   A    
C39   C44   A    
C7    C99   A    
C56   O30   A    
C7    C16   A    
C64   O39   A    
C5    C97   A    
C68   O21   A    
C67   C81   S    
C46   O52   A    
C25   H41   S    
C10   C23   A    
O48   Zn8   S    
O25   Zn6   S    
C54   O28   A    
C3    C88   A    
O15   Zn16  S    
O27   Zn7   S    
C28   C85   A    
C85   F1    S    
C60   O32   A    
O30   Zn8   S    
C87   C100  A    
C29   C51   S    
C35   O16   A    
C99   F6    S    
C64   O38   A    
C47   H32   S    
C48   C49   A    
C100  F7    S    
O19   Zn3   S    
C31   C88   A    
C63   O37   A    
C73   H6    S    
C24   O17   A    
C45   H31   S    
C38   H28   S    
O22   Zn5   S    
C51   O6    A    
O34   Zn4   S    
O35   Zn4   S    
C10   H18   S    
C41   C60   S    
C74   C84   S    
O9    Zn12  S    
C42   C59   S    
C89   C94   A    
O33   Zn3   S    
O32   Zn2   S    
O34   Zn14  S    
O43   Zn14  S    
O3    Zn15  S    
O38   Zn11  S    
C86   C99   A    
C44   C61   S    
O12   Zn10  S    
C21   C30   A    
C58   O29   A    
C8    C17   A    
C72   H44   S    
C40   H30   S    
C27   C36   A    
C23   C32   A    
O51   Zn10  S    
C18   C22   A    
C8    C100  A    
O37   Zn1   S    
O45   Zn9   S    
C51   O22   A    
C41   C45   A    
C2    C24   S    
C66   O43   A    
C1    O15   A    
C6    C79   S    
C65   O40   A    
O23   Zn7   S    
C77   C82   S    
O23   Zn12  S    
C53   O25   A    
O4    Zn14  S    
C94   F16   S    
O31   Zn16  S    
C26   H42   S    
C58   O13   A    
C67   C71   S    
O36   Zn9   S    
C60   O46   A    
C78   H14   S    
C69   C70   S    
C70   C82   S    
C17   H25   S    
C34   C92   A    
C97   F4    S    
C69   C81   S    
C50   O5    A    
C91   C95   A    
C22   H39   S    
O23   Zn13  S    
C68   O3    A    
C9    C18   A    
C9    C46   S    
C23   H40   S    
C10   C90   A    
O2    Zn12  S    
O13   Zn15  S    
C12   H20   S    
O6    Zn9   S    
O17   Zn2   S    
C62   O48   A    
C30   C87   A    
C96   F3    S    
C35   O51   A    
C73   C83   S    
C67   H48   S    
C13   O14   A    
C43   C62   S    
C25   C33   A    
C30   C52   S    
C19   H36   S    
