data_mof_unit_66933.cif
_audit_creation_date              2013-03-05T15:57:29-0500
_audit_creation_method            fapswitch 2.2
_symmetry_space_group_name_H-M    P1
_symmetry_Int_Tables_number       1
_space_group_crystal_system       triclinic
_cell_length_a                    17.339338
_cell_length_b                    18.972714
_cell_length_c                    8.627278
_cell_angle_alpha                 90.313354
_cell_angle_beta                  102.677319
_cell_angle_gamma                 89.38881
_cell_volume                      2768.7910556

loop_
_atom_site_label
_atom_site_type_symbol
_atom_site_description
_atom_site_fract_x
_atom_site_fract_y
_atom_site_fract_z
_atom_type_partial_charge
P1    P     P_3+3 0.834140 0.419320 0.003900 0.996110
P2    P     P_3+3 0.834140 0.580680 0.503900 0.987486
P3    P     P_3+3 0.334140 0.919320 0.003900 0.996110
P4    P     P_3+3 0.334140 0.080680 0.503900 0.987486
O1    O     O_2   0.841960 0.394640 0.833410 -0.480331
O2    O     O_2   0.841960 0.605360 0.333410 -0.465400
O3    O     O_2   0.341960 0.894640 0.833410 -0.480327
O4    O     O_2   0.341960 0.105360 0.333410 -0.465399
O5    O     O_3   0.907950 0.463080 0.102990 -0.513424
O6    O     O_3   0.907950 0.536920 0.602990 -0.514798
O7    O     O_3   0.407950 0.963080 0.102990 -0.513425
O8    O     O_3   0.407950 0.036920 0.602990 -0.514798
O9    O     O_3   0.972780 0.329600 0.629720 -0.507207
O10   O     O_3   0.972780 0.670400 0.129720 -0.487375
O11   O     O_3   0.472780 0.829600 0.629720 -0.507206
O12   O     O_3   0.472780 0.170400 0.129720 -0.487377
O13   O     O_2   0.854395 0.259057 0.702757 -0.454926
O14   O     O_2   0.837649 0.721871 0.190564 -0.438514
O15   O     O_2   0.354393 0.759059 0.702753 -0.454923
O16   O     O_2   0.337648 0.221871 0.190563 -0.438516
O17   O     O_3   0.751708 0.475293 0.960641 -0.618308
O18   O     O_3   0.752615 0.524710 0.457242 -0.612307
O19   O     O_3   0.251708 0.975293 0.960641 -0.618309
O20   O     O_3   0.252615 0.024710 0.457241 -0.612308
O21   O     O_3   0.956060 0.185993 0.579316 -0.525336
O22   O     O_3   0.932041 0.811777 0.105119 -0.542449
O23   O     O_3   0.456061 0.685993 0.579324 -0.525352
O24   O     O_3   0.432041 0.311777 0.105119 -0.542451
H1    H     H_    0.049461 0.223039 0.752851 0.085918
H2    H     H_    0.020802 0.765879 0.995846 -0.066483
H3    H     H_    0.549464 0.723041 0.752849 0.085923
H4    H     H_    0.520802 0.265879 0.995845 -0.066492
C1    C     C_3   0.089972 0.137968 0.626833 -0.282500
C2    C     C_3   0.072470 0.822903 0.201087 -0.268585
C3    C     C_3   0.589973 0.637969 0.626831 -0.282493
C4    C     C_3   0.572470 0.322903 0.201085 -0.268599
H5    H     H_    0.651621 0.651610 0.682803 -0.032155
H6    H     H_    0.586695 0.271987 0.263779 0.140675
H7    H     H_    0.151621 0.151609 0.682806 -0.032150
H8    H     H_    0.086694 0.771987 0.263780 0.140684
H9    H     H_    0.072691 0.094440 0.693864 0.189786
H10   H     H_    0.054146 0.862801 0.279006 0.204323
H11   H     H_    0.572692 0.594441 0.693863 0.189791
H12   H     H_    0.554148 0.362801 0.279004 0.204321
P5    P     P_3+3 0.165830 0.418670 0.685610 0.994007
P6    P     P_3+3 0.165830 0.581330 0.185610 0.977215
P7    P     P_3+3 0.665830 0.918670 0.685610 0.994009
P8    P     P_3+3 0.665830 0.081330 0.185610 0.977226
P9    P     P_3+3 0.108527 0.271367 0.113362 1.023765
P10   P     P_3+3 0.106743 0.729434 0.619663 0.963157
P11   P     P_3+3 0.608527 0.771366 0.113362 1.023760
P12   P     P_3+3 0.606743 0.229433 0.619664 0.963161
O25   O     O_2   0.157990 0.394030 0.856030 -0.490806
O26   O     O_2   0.157990 0.605970 0.356030 -0.464795
O27   O     O_2   0.657990 0.894030 0.856030 -0.490813
O28   O     O_2   0.657990 0.105970 0.356030 -0.464789
O29   O     O_3   0.027110 0.329490 0.059550 -0.383133
O30   O     O_3   0.027110 0.670510 0.559550 -0.429349
O31   O     O_3   0.527110 0.829490 0.059550 -0.383137
O32   O     O_3   0.527110 0.170510 0.559550 -0.429345
O33   O     O_2   0.169201 0.289590 0.014826 -0.522929
O34   O     O_2   0.172555 0.706127 0.536265 -0.501218
O35   O     O_2   0.669202 0.789593 0.014833 -0.522924
O36   O     O_2   0.672555 0.206125 0.536268 -0.501225
O37   O     O_3   0.246603 0.475313 0.727635 -0.563354
O38   O     O_3   0.249994 0.526878 0.227427 -0.614273
O39   O     O_3   0.746602 0.975314 0.727630 -0.563355
O40   O     O_3   0.749993 0.026877 0.227429 -0.614301
O41   O     O_3   0.076394 0.188862 0.035781 -0.674672
O42   O     O_3   0.079653 0.812318 0.534366 -0.675498
O43   O     O_3   0.576396 0.688861 0.035773 -0.674693
O44   O     O_3   0.579654 0.312317 0.534364 -0.675499
C5    C     C_3   0.039418 0.153090 0.141263 0.621268
C6    C     C_3   0.029408 0.847646 0.616730 0.591821
C7    C     C_3   0.539419 0.653088 0.141250 0.621346
C8    C     C_3   0.529409 0.347645 0.616727 0.591824
H13   H     H_    0.078990 0.149911 0.259888 -0.071318
H14   H     H_    0.055300 0.845438 0.746447 -0.059620
H15   H     H_    0.578987 0.649910 0.259879 -0.071351
H16   H     H_    0.555301 0.345438 0.746444 -0.059618
C9    C     C_3   0.022637 0.079502 0.079613 0.366334
C10   C     C_3   0.019201 0.924157 0.570263 0.350715
C11   C     C_3   0.522641 0.579498 0.079605 0.366493
C12   C     C_3   0.519202 0.424157 0.570259 0.350713
H17   H     H_    0.470330 0.578058 0.981718 0.025906
H18   H     H_    0.477701 0.429096 0.454105 0.102857
H19   H     H_    0.970328 0.078064 0.981724 0.025793
H20   H     H_    0.977700 0.929096 0.454109 0.102868
H21   H     H_    0.075084 0.061830 0.041796 0.072889
H22   H     H_    0.076676 0.946734 0.562418 0.051689
H23   H     H_    0.575088 0.561826 0.041793 0.072801
H24   H     H_    0.576677 0.446733 0.562413 0.051690
C13   C     C_3   0.230395 0.457330 0.256692 0.248455
C14   C     C_3   0.222114 0.541926 0.770485 0.310445
C15   C     C_3   0.730394 0.957330 0.256693 0.248435
C16   C     C_3   0.722116 0.041921 0.770516 0.310432
H25   H     H_    0.232224 0.451520 0.385302 0.045878
H26   H     H_    0.208488 0.539021 0.889851 -0.016822
H27   H     H_    0.732222 0.951520 0.385302 0.045901
H28   H     H_    0.708493 0.039004 0.889884 -0.016788
H29   H     H_    0.171930 0.440387 0.187022 0.035632
H30   H     H_    0.170338 0.563004 0.683020 0.050095
H31   H     H_    0.671929 0.940387 0.187022 0.035645
H32   H     H_    0.670338 0.063006 0.683066 0.050071
C17   C     C_3   0.291457 0.408434 0.210217 -0.199169
C18   C     C_3   0.289262 0.592774 0.775237 -0.290246
C19   C     C_3   0.791456 0.908434 0.210220 -0.199211
C20   C     C_3   0.789266 0.092771 0.775288 -0.290264
H33   H     H_    0.351125 0.422283 0.277961 0.181927
H34   H     H_    0.343335 0.570211 0.851314 0.144089
H35   H     H_    0.851125 0.922283 0.277963 0.181928
H36   H     H_    0.843344 0.070187 0.851303 0.144092
H37   H     H_    0.279433 0.353024 0.236111 0.111787
H38   H     H_    0.276432 0.644323 0.824838 0.078375
H39   H     H_    0.779433 0.853023 0.236115 0.111807
H40   H     H_    0.776452 0.144306 0.824975 0.078444
H41   H     H_    0.290180 0.413890 0.081730 0.136201
H42   H     H_    0.298667 0.600918 0.653399 0.165196
H43   H     H_    0.790180 0.913889 0.081733 0.136193
H44   H     H_    0.798652 0.100945 0.653445 0.165176
Ba1   Ba    Ba6+2 0.000000 0.447380 0.844850 1.717063
Ba2   Ba    Ba6+2 0.000000 0.552620 0.344850 1.718382
Ba3   Ba    Ba6+2 0.500000 0.947380 0.844850 1.717054
Ba4   Ba    Ba6+2 0.500000 0.052620 0.344850 1.718382
C21   C     C_3   0.773469 0.544497 0.937748 0.307834
C22   C     C_3   0.775385 0.454777 0.436488 0.333786
C23   C     C_3   0.273468 0.044497 0.937750 0.307831
C24   C     C_3   0.275385 0.954777 0.436488 0.333785
H45   H     H_    0.766233 0.552426 0.808293 -0.017727
H46   H     H_    0.761011 0.443364 0.307334 -0.006739
H47   H     H_    0.266232 0.052427 0.808294 -0.017728
H48   H     H_    0.261012 0.943364 0.307334 -0.006736
H49   H     H_    0.833904 0.558821 0.001088 0.040168
H50   H     H_    0.838601 0.442522 0.484001 0.017100
H51   H     H_    0.333903 0.058821 0.001090 0.040170
H52   H     H_    0.338601 0.942522 0.484000 0.017101
C25   C     C_3   0.718024 0.593325 0.000293 -0.308446
C26   C     C_3   0.728166 0.406358 0.519390 -0.305746
C27   C     C_3   0.218022 0.093324 0.000293 -0.308448
C28   C     C_3   0.228166 0.906358 0.519389 -0.305742
H53   H     H_    0.660374 0.591531 0.918183 0.124607
H54   H     H_    0.671453 0.394352 0.439343 0.139536
H55   H     H_    0.160372 0.091529 0.918184 0.124607
H56   H     H_    0.171452 0.894353 0.439343 0.139539
H57   H     H_    0.737639 0.648361 0.005788 0.064952
H58   H     H_    0.759323 0.355707 0.550713 0.057603
H59   H     H_    0.237637 0.148361 0.005786 0.064952
H60   H     H_    0.259322 0.855707 0.550709 0.057611
H61   H     H_    0.712754 0.576658 0.120595 0.139538
H62   H     H_    0.717329 0.431380 0.629304 0.138862
H63   H     H_    0.212754 0.076658 0.120596 0.139540
H64   H     H_    0.217330 0.931379 0.629304 0.138858
O45   O     O_3   0.092100 0.536880 0.086720 -0.513283
O46   O     O_3   0.092100 0.463120 0.586720 -0.518044
O47   O     O_3   0.592100 0.036880 0.086720 -0.513290
O48   O     O_3   0.592100 0.963120 0.586720 -0.518034
P13   P     P_3+3 0.891537 0.727616 0.071106 1.047869
P14   P     P_3+3 0.901278 0.265078 0.570281 1.062126
P15   P     P_3+3 0.391537 0.227616 0.071106 1.047868
P16   P     P_3+3 0.401278 0.765077 0.570281 1.062113
C29   C     C_3   0.037254 0.201986 0.629919 0.372837
C30   C     C_3   0.005706 0.813036 0.059147 0.423310
C31   C     C_3   0.537254 0.701986 0.629918 0.372846
C32   C     C_3   0.505706 0.313036 0.059147 0.423315
H65   H     H_    0.055477 0.240990 0.550562 0.024654
H66   H     H_    0.006024 0.858271 0.980350 0.167089
H67   H     H_    0.555475 0.740990 0.550556 0.024649
H68   H     H_    0.506024 0.358271 0.980349 0.167085
H69   H     H_    0.588547 0.620213 0.504807 0.187994
H70   H     H_    0.625618 0.342060 0.163138 0.030329
H71   H     H_    0.088547 0.120212 0.504810 0.187997
H72   H     H_    0.125617 0.842061 0.163141 0.030349
C33   C     C_R   0.139050 0.676663 0.928919 -0.273523
C34   C     C_R   0.145560 0.328200 0.420378 -0.249159
C35   C     C_R   0.639051 0.176662 0.928919 -0.273551
C36   C     C_R   0.645559 0.828199 0.420378 -0.249168
C37   C     C_R   0.847464 0.332012 0.274126 -0.176133
C38   C     C_R   0.842545 0.664330 0.773864 -0.245190
C39   C     C_R   0.347465 0.832011 0.274125 -0.176132
C40   C     C_R   0.342545 0.164330 0.773864 -0.245192
C41   C     C_R   0.779169 0.224001 0.310125 0.003559
C42   C     C_R   0.779844 0.776992 0.805298 0.038689
C43   C     C_R   0.279173 0.723997 0.310122 0.003511
C44   C     C_R   0.279845 0.276992 0.805298 0.038692
C45   C     C_R   0.834189 0.276469 0.371278 0.064884
C46   C     C_R   0.828873 0.720221 0.870034 0.025002
C47   C     C_R   0.334191 0.776467 0.371276 0.064890
C48   C     C_R   0.328873 0.220221 0.870034 0.025001
C49   C     C_R   0.808663 0.337251 0.114243 0.099523
C50   C     C_R   0.808277 0.662291 0.612012 0.107237
C51   C     C_R   0.308663 0.837251 0.114243 0.099528
C52   C     C_R   0.308277 0.162291 0.612012 0.107236
C53   C     C_R   0.750266 0.283677 0.052346 -0.009297
C54   C     C_R   0.753325 0.718232 0.546747 0.013396
C55   C     C_R   0.250265 0.783678 0.052347 -0.009318
C56   C     C_R   0.253326 0.218232 0.546747 0.013394
C57   C     C_R   0.236382 0.725139 0.150992 -0.042707
C58   C     C_R   0.239112 0.276984 0.645261 -0.001294
C59   C     C_R   0.736383 0.225138 0.150991 -0.042527
C60   C     C_R   0.739111 0.776984 0.645261 -0.001294
C61   C     C_R   0.181577 0.669100 0.085415 0.030801
C62   C     C_R   0.185271 0.333709 0.579392 0.029847
C63   C     C_R   0.681579 0.169100 0.085414 0.030854
C64   C     C_R   0.685270 0.833708 0.579392 0.029849
C65   C     C_R   0.152419 0.732413 0.833605 -0.030639
C66   C     C_R   0.159097 0.271820 0.325061 0.007156
C67   C     C_R   0.652420 0.232412 0.833604 -0.030630
C68   C     C_R   0.659095 0.771819 0.325062 0.007152
C69   C     C_R   0.207001 0.785295 0.894266 -0.081288
C70   C     C_R   0.212290 0.217630 0.387259 -0.098222
C71   C     C_R   0.707002 0.285294 0.894265 -0.081295
C72   C     C_R   0.712289 0.717629 0.387259 -0.098219
H73   H     H_    0.275585 0.679258 0.384525 0.126979
H74   H     H_    0.277513 0.322399 0.879542 0.105459
H75   H     H_    0.775580 0.179262 0.384530 0.126980
H76   H     H_    0.777513 0.822399 0.879542 0.105460
H77   H     H_    0.715802 0.327045 0.815738 0.084026
H78   H     H_    0.719742 0.674517 0.310007 0.084890
H79   H     H_    0.215801 0.827046 0.815739 0.084028
H80   H     H_    0.219744 0.174518 0.310006 0.084892
H81   H     H_    0.097958 0.636074 0.876525 0.035646
H82   H     H_    0.104523 0.369396 0.368192 0.049628
H83   H     H_    0.597959 0.136073 0.876526 0.035643
H84   H     H_    0.604522 0.869395 0.368192 0.049623
H85   H     H_    0.892918 0.369739 0.322049 0.032117
H86   H     H_    0.885772 0.624470 0.824117 0.010365
H87   H     H_    0.392919 0.869738 0.322049 0.032106
H88   H     H_    0.385771 0.124470 0.824117 0.010365
S1    S     S_3+6 0.512270 0.517649 0.223602 -0.128253
O49   O     O_2   0.460416 0.459704 0.142082 -0.320162
O50   O     O_2   0.592934 0.489189 0.295170 -0.362431
O51   O     O_3   0.472874 0.553273 0.366235 -0.463215
H89   H     H_    0.419031 0.533451 0.349081 0.399345
S2    S     S_3+6 0.484347 0.472273 0.719129 -0.092520
O52   O     O_2   0.426397 0.433313 0.792145 -0.214361
O53   O     O_2   0.557753 0.485011 0.843076 -0.392552
O54   O     O_3   0.440177 0.547057 0.643329 -0.490981
H90   H     H_    0.448038 0.580706 0.732277 0.345403
S3    S     S_3+6 0.012268 0.017649 0.223604 -0.128361
O55   O     O_2   0.960414 0.959705 0.142078 -0.320195
O56   O     O_2   0.092933 0.989188 0.295165 -0.362399
O57   O     O_3   0.972874 0.053268 0.366242 -0.463281
H91   H     H_    0.919031 0.033448 0.349084 0.399306
S4    S     S_3+6 0.984343 0.972273 0.719133 -0.092507
O58   O     O_2   0.926394 0.933312 0.792147 -0.214364
O59   O     O_2   0.057748 0.985013 0.843082 -0.392542
O60   O     O_3   0.940171 0.047057 0.643334 -0.490958
H92   H     H_    0.948040 0.080709 0.732277 0.345407
S5    S     S_3+6 0.949699 0.195539 0.151668 -0.102765
O61   O     O_2   0.973195 0.249799 0.278581 -0.396066
O62   O     O_2   0.914579 0.230649 0.996988 -0.302953
O63   O     O_3   0.883053 0.140819 0.197272 -0.519869
H93   H     H_    0.855317 0.119822 0.095596 0.319545
S6    S     S_3+6 0.934475 0.809768 0.573671 -0.075664
O64   O     O_2   0.866794 0.861472 0.540101 -0.316839
O65   O     O_2   0.925377 0.758817 0.439521 -0.242986
O66   O     O_3   0.935872 0.769694 0.742073 -0.603473
H94   H     H_    0.971897 0.728947 0.747001 0.286765
S7    S     S_3+6 0.449697 0.695532 0.151642 -0.102786
O67   O     O_2   0.473184 0.749781 0.278583 -0.396070
O68   O     O_2   0.414590 0.730656 0.996973 -0.303004
O69   O     O_3   0.383049 0.640798 0.197189 -0.519977
H95   H     H_    0.355178 0.619966 0.095490 0.319611
S8    S     S_3+6 0.434476 0.309768 0.573670 -0.075664
O70   O     O_2   0.366795 0.361473 0.540099 -0.316841
O71   O     O_2   0.425377 0.258817 0.439520 -0.242986
O72   O     O_3   0.435872 0.269694 0.742072 -0.603471
H96   H     H_    0.471896 0.228948 0.747000 0.286764

loop_
_geom_bond_atom_site_label_1
_geom_bond_atom_site_label_2
_geom_bond_distance
_ccdc_geom_bond_type
C43   H73   1.077508 S    
C67   C71   1.404765 A    
S4    O59   1.492729 D    
P1    O17   1.745800 S    
O10   Ba2   2.880850 S    
C13   H25   1.109089 S    
P12   C67   1.842651 S    
C9    S3    1.752461 S    
C20   H44   1.110365 S    
P3    O19   1.745801 S    
O7    Ba4   2.888709 S    
C34   H82   1.082267 S    
C35   C67   1.395383 A    
O44   C8    1.402588 S    
O6    Ba1   2.882098 S    
C33   H81   1.082384 S    
C28   H60   1.102758 S    
C37   C45   1.401978 A    
Ba3   Ba4   4.763239 S    
O43   C7    1.404264 S    
Ba3   O47   2.888658 S    
C26   H62   1.109620 S    
P8    C63   1.929719 S    
C27   H59   1.099189 S    
S5    O61   1.491795 D    
C1    H7    1.104892 S    
P1    C49   1.934244 S    
O11   Ba3   2.872903 S    
P12   O32   1.771323 S    
C18   H38   1.105306 S    
C29   H65   1.105301 S    
P1    O1    1.574718 D    
O15   P16   1.546380 D    
C52   C56   1.449440 A    
C25   H57   1.099187 S    
C3    H5    1.104891 S    
C12   H18   1.101760 S    
C55   C69   1.405201 A    
S1    O51   1.669620 S    
P3    O3    1.574718 D    
C24   H52   1.105419 S    
P4    O20   1.750860 S    
C54   C72   1.403541 A    
C15   H27   1.109088 S    
O18   C22   1.402021 S    
C39   C47   1.401978 A    
P7    O48   1.606118 S    
C14   H26   1.107725 S    
C21   H49   1.106198 S    
C23   H47   1.107094 S    
O1    Ba1   2.908434 S    
C34   C62   1.397281 A    
P9    O29   1.763318 S    
S4    O58   1.500520 D    
P4    Ba4   3.482601 S    
O22   P13   1.748531 S    
C33   C61   1.396456 A    
O66   H94   0.983881 S    
C42   C46   1.404788 A    
P7    O39   1.747247 S    
O32   Ba4   2.872218 S    
C49   C53   1.456814 A    
P4    C52   1.903030 S    
S6    O65   1.486498 D    
C40   C48   1.392970 A    
O23   C31   1.415121 S    
C30   H66   1.098572 S    
C27   H55   1.091712 S    
P6    C61   1.929722 S    
C54   C60   1.449592 A    
C36   C68   1.394726 A    
S3    O55   1.498909 D    
O21   C29   1.415122 S    
P5    C62   1.913001 S    
O16   P15   1.540510 D    
C2    H10   1.099493 S    
P2    O18   1.750860 S    
O14   P13   1.540511 D    
C57   C61   1.460309 A    
P4    O8    1.600916 S    
C3    H11   1.092147 S    
C28   H64   1.109619 S    
C5    S5    1.763676 S    
C10   H20   1.101759 S    
C40   C52   1.392858 A    
P4    O4    1.580352 D    
C9    H21   1.080915 S    
S7    O69   1.672611 S    
C28   H56   1.095805 S    
C16   C20   1.513473 S    
P7    O27   1.579648 D    
P5    O25   1.579648 D    
C36   C64   1.397282 A    
P9    O41   1.747041 S    
O54   H90   0.982656 S    
C18   H42   1.110355 S    
O12   P15   1.754783 S    
C42   H76   1.076411 S    
Ba2   O46   2.882041 S    
C17   H41   1.109232 S    
P2    O2    1.580352 D    
S2    O53   1.492730 D    
Ba1   O45   2.888658 S    
C59   C63   1.460306 A    
C24   H48   1.107777 S    
C22   H50   1.105418 S    
C19   H43   1.109233 S    
C15   H31   1.108905 S    
O5    Ba2   2.888709 S    
P11   O31   1.763319 S    
O27   Ba3   2.892113 S    
Ba3   O48   3.029386 S    
P2    Ba2   3.482601 S    
O31   Ba3   2.880175 S    
C71   H77   1.078673 S    
C38   H86   1.081901 S    
H3    C31   1.108057 S    
C8    C12   1.506317 S    
O30   Ba2   2.872218 S    
O40   C15   1.403997 S    
P9    O33   1.533794 D    
Ba1   O46   3.029386 S    
O10   P13   1.754784 S    
C10   S4    1.778847 S    
P10   O30   1.771326 S    
C42   C60   1.406101 A    
H1    C29   1.108059 S    
C32   H68   1.098573 S    
P11   O35   1.533794 D    
P13   C46   1.839233 S    
C41   H75   1.077506 S    
P12   O36   1.536723 D    
C70   H80   1.076812 S    
C13   H29   1.108906 S    
C22   H46   1.107777 S    
C41   C45   1.404638 A    
P11   C68   1.844365 S    
S8    O70   1.500927 D    
C34   C66   1.394725 A    
C11   S1    1.752461 S    
S6    O66   1.638802 S    
P5    Ba1   3.484840 S    
O23   P16   1.760142 S    
C53   C59   1.456606 A    
O29   Ba1   2.880175 S    
C56   C70   1.403541 A    
O22   C30   1.418617 S    
O24   P15   1.748532 S    
C3    C31   1.515969 S    
C20   H36   1.103403 S    
S2    O54   1.671683 S    
C69   H79   1.078673 S    
P15   C48   1.839231 S    
C12   S2    1.778839 S    
O42   C6    1.402587 S    
S1    O49   1.498910 D    
P12   O44   1.755054 S    
C21   H45   1.107094 S    
C60   C64   1.450901 A    
C27   H63   1.109668 S    
O9    Ba1   2.872903 S    
C66   C70   1.401525 A    
C44   H74   1.076411 S    
S1    O50   1.495842 D    
C65   C69   1.404764 A    
C31   H67   1.105300 S    
C68   C72   1.401524 A    
P6    O26   1.574021 D    
O57   H91   0.990542 S    
C25   H53   1.091710 S    
P1    O5    1.610199 S    
S3    O56   1.495843 D    
C43   C57   1.410185 A    
P8    O40   1.751559 S    
O41   C5    1.404268 S    
O13   P14   1.546382 D    
C19   H39   1.107371 S    
Ba1   Ba2   4.763239 S    
C9    H19   1.095764 S    
C15   C19   1.517787 S    
C5    C9    1.499820 S    
O38   C13   1.403996 S    
C58   C62   1.450902 A    
C56   C58   1.449591 A    
O37   C14   1.402327 S    
C25   H61   1.109667 S    
P8    O47   1.615512 S    
C7    S7    1.763655 S    
S5    O62   1.496575 D    
C44   C58   1.406100 A    
Ba4   O48   2.882041 S    
C26   H54   1.095807 S    
O39   C16   1.402325 S    
P10   O34   1.536727 D    
Ba2   O45   3.023622 S    
C2    H8    1.108439 S    
C4    H12   1.099495 S    
C8    H16   1.111438 S    
S2    O52   1.500519 D    
O2    Ba2   2.888625 S    
O17   C21   1.396926 S    
S7    O67   1.491783 D    
P2    O6    1.600916 S    
P14   C45   1.862688 S    
O28   Ba4   2.912128 S    
O9    P14   1.745025 S    
C2    H72   1.108785 S    
O24   C32   1.418619 S    
C4    C32   1.501539 S    
C18   H34   1.103404 S    
C17   H37   1.107370 S    
P8    O28   1.574021 D    
C1    H71   1.098729 S    
C17   H33   1.104426 S    
C14   C18   1.513468 S    
S5    O63   1.672605 S    
C5    H13   1.101540 S    
C36   H84   1.082268 S    
P1    Ba1   3.494255 S    
C11   H17   1.095768 S    
C39   C51   1.399240 A    
C19   H35   1.104426 S    
O4    Ba4   2.888625 S    
P2    C50   1.903030 S    
C23   H51   1.106197 S    
C2    C30   1.501538 S    
P8    Ba4   3.496758 S    
C33   C65   1.395383 A    
O60   H92   0.982658 S    
P11   O43   1.747049 S    
P6    O38   1.751560 S    
O69   H95   0.986787 S    
H2    C30   1.104372 S    
C11   H23   1.080913 S    
C16   H28   1.107723 S    
O19   C23   1.396925 S    
C4    H70   1.108783 S    
C10   H22   1.104656 S    
S4    O60   1.671688 S    
C37   C49   1.399240 A    
O72   H96   0.983883 S    
C21   C25   1.508923 S    
C20   H40   1.105322 S    
S6    O64   1.500926 D    
C16   H32   1.110677 S    
O12   Ba4   2.880850 S    
C1    H9    1.092147 S    
C35   C63   1.396455 A    
O11   P16   1.745026 S    
C13   C17   1.517786 S    
S7    O68   1.496575 D    
O25   Ba1   2.892113 S    
C4    H6    1.108439 S    
P5    O37   1.747253 S    
C7    C11   1.499820 S    
P10   O42   1.755057 S    
O8    Ba3   2.882098 S    
P7    Ba3   3.484840 S    
C26   H58   1.102759 S    
S8    O72   1.638802 S    
C38   C50   1.392858 A    
H4    C32   1.104371 S    
P3    Ba3   3.494255 S    
O51   H89   0.990543 S    
C22   C26   1.518553 S    
C3    H69   1.098731 S    
C40   H88   1.081901 S    
P7    C64   1.913005 S    
C24   C28   1.518554 S    
S3    O57   1.669616 S    
P6    O45   1.615512 S    
C8    S8    1.765765 S    
P3    C51   1.934246 S    
C51   C55   1.456812 A    
C6    S6    1.765763 S    
C53   C71   1.405201 A    
P3    O7    1.610199 S    
C50   C54   1.449440 A    
C37   H85   1.081763 S    
C38   C46   1.392970 A    
P10   C65   1.842656 S    
C44   C48   1.404787 A    
O26   Ba2   2.912128 S    
C1    C29   1.515968 S    
P9    C66   1.844364 S    
C14   H30   1.110675 S    
S8    O71   1.486497 D    
C6    H14   1.111437 S    
Ba4   O47   3.023622 S    
O21   P14   1.760143 S    
O20   C24   1.402022 S    
C35   H83   1.082384 S    
P6    Ba2   3.496758 S    
C39   H87   1.081764 S    
P5    O46   1.606118 S    
C12   H24   1.104653 S    
P16   C47   1.862685 S    
C55   C57   1.456608 A    
C7    H15   1.101542 S    
C23   C27   1.508924 S    
C6    C10   1.506318 S    
C43   C47   1.404636 A    
O3    Ba3   2.908434 S    
O63   H93   0.987191 S    
C72   H78   1.076814 S    
C41   C59   1.410186 A    
