data_mof_unit_66355.cif
_audit_creation_date              2012-12-10T19:28:40-0500
_audit_creation_method            fapswitch 2.2
_symmetry_space_group_name_H-M    P1
_symmetry_Int_Tables_number       1
_space_group_crystal_system       triclinic
_cell_length_a                    30.182767
_cell_length_b                    30.51434
_cell_length_c                    21.548356
_cell_angle_alpha                 90.431611
_cell_angle_beta                  134.511492
_cell_angle_gamma                 89.338885
_cell_volume                      14151.5681229

loop_
_atom_site_label
_atom_site_type_symbol
_atom_type_description
_atom_site_fract_x
_atom_site_fract_y
_atom_site_fract_z
_atom_type_partial_charge
C1    C     C_R   0.308389 0.810207 0.119694 0.973082
C2    C     C_R   0.493935 0.667954 0.031159 0.352887
C3    C     C_R   0.333088 0.156040 0.242049 0.310795
C4    C     C_R   0.061723 0.634000 0.665319 0.340531
C5    C     C_R   0.862939 0.623039 0.304863 0.379457
C6    C     C_R   0.562253 0.134180 0.665045 0.341504
C7    C     C_R   0.365329 0.124262 0.307907 0.394409
C8    C     C_R   0.090991 0.593000 0.684904 -0.160726
C9    C     C_R   0.908393 0.596289 0.319258 -0.211663
C10   C     C_R   0.591077 0.092965 0.684977 -0.160685
C11   C     C_R   0.408365 0.096080 0.319084 -0.213218
C12   C     C_R   0.144258 0.582583 0.770602 -0.195952
C13   C     C_R   0.027310 0.166141 0.005849 0.387434
C14   C     C_R   0.924184 0.605222 0.273475 -0.104517
C15   C     C_R   0.643899 0.082409 0.770838 -0.195899
C16   C     C_R   0.422010 0.103560 0.270297 -0.106681
C17   C     C_3   0.204464 0.559508 0.814045 0.725331
C18   C     C_3   0.936148 0.576573 0.229290 0.768570
C19   C     C_3   0.704044 0.059129 0.814599 0.723587
C20   C     C_3   0.430713 0.073698 0.223587 0.762115
C21   C     C_3   0.237732 0.595921 0.883079 0.214967
C22   C     C_3   0.899165 0.610521 0.155167 0.141727
C23   C     C_3   0.737371 0.095600 0.883479 0.215522
C24   C     C_R   0.983564 0.166504 0.011680 0.313841
C25   C     C_3   0.392914 0.107390 0.148944 0.149150
C26   C     C_R   0.940303 0.560943 0.381341 0.954716
C27   C     C_R   0.060177 0.559463 0.620745 0.931430
C28   C     C_R   0.440275 0.060862 0.381263 0.956770
C29   C     C_R   0.560206 0.059439 0.620789 0.932580
C30   C     C_R   0.439207 0.940982 0.378029 0.965473
C31   C     C_R   0.561484 0.941125 0.622540 0.946036
C32   C     C_R   0.939216 0.440979 0.378039 0.964008
C33   C     C_R   0.061491 0.441131 0.622551 0.945772
C34   C     C_R   0.163642 0.750421 0.000499 0.922148
C35   C     C_R   0.462170 0.826267 0.972103 0.343457
C36   C     C_R   0.836320 0.750033 0.999296 0.923029
C37   C     C_R   0.663631 0.250413 0.000477 0.921782
C38   C     C_R   0.336313 0.250037 0.999282 0.924092
C39   C     C_R   0.589633 0.787498 0.994738 -0.236738
C40   C     C_R   0.397643 0.785785 0.979750 -0.223049
C41   C     C_R   0.089632 0.286470 0.994586 -0.191789
C42   C     C_R   0.897911 0.286009 0.980315 -0.226472
C43   C     C_R   0.617381 0.748486 0.003099 -0.164578
C44   C     C_R   0.384812 0.747786 0.999676 -0.193510
C45   C     C_R   0.118129 0.247426 0.004637 -0.221369
C46   C     C_R   0.509659 0.826488 0.973580 0.341783
C47   C     C_R   0.884286 0.247778 0.998703 -0.190406
C48   C     C_R   0.598870 0.708198 0.008650 0.484044
C49   C     C_R   0.419564 0.709265 0.023534 0.494453
C50   C     C_R   0.099643 0.206893 0.011162 0.514728
C51   C     C_R   0.917046 0.208730 0.018539 0.505779
C52   C     C_R   0.554127 0.707158 0.012491 -0.045453
C53   C     C_R   0.463644 0.707613 0.018399 -0.054002
C54   C     C_R   0.050283 0.206175 0.005534 0.001455
C55   C     C_R   0.958741 0.206821 0.009043 -0.056847
C56   C     C_R   0.524644 0.747087 0.001716 -0.119597
C57   C     C_R   0.963429 0.326273 0.974107 0.346091
C58   C     C_R   0.477722 0.746930 0.000659 -0.119427
C59   C     C_R   0.022367 0.246377 0.997328 -0.143721
C60   C     C_R   0.975076 0.246438 0.995537 -0.115749
C61   C     C_R   0.010819 0.326188 0.975315 0.340315
C62   C     C_R   0.403874 0.846258 0.242595 -0.169072
C63   C     C_R   0.598186 0.852106 0.768063 -0.178239
C64   C     C_R   0.903886 0.346189 0.242735 -0.169901
C65   C     C_R   0.690997 0.810085 0.880440 0.968575
C66   C     C_R   0.098220 0.352157 0.768160 -0.177102
C67   C     C_R   0.339605 0.844321 0.183275 -0.233344
C68   C     C_R   0.660430 0.843958 0.817092 -0.225969
C69   C     C_R   0.839602 0.344324 0.183284 -0.232334
C70   C     C_R   0.160439 0.343963 0.817102 -0.229971
C71   C     C_R   0.306131 0.880132 0.176021 0.407318
C72   C     C_R   0.694829 0.874291 0.816333 0.399401
C73   C     C_R   0.806158 0.380198 0.175931 0.407047
C74   C     C_R   0.194840 0.374270 0.816298 0.398687
C75   C     C_R   0.338256 0.914386 0.236561 0.397096
C76   C     C_R   0.808376 0.310208 0.119696 0.972595
C77   C     C_R   0.663907 0.908458 0.755532 0.386792
C78   C     C_R   0.838311 0.414461 0.236451 0.393686
C79   C     C_R   0.163925 0.408436 0.755489 0.386889
C80   C     C_R   0.403938 0.911514 0.305389 -0.210216
C81   C     C_R   0.598043 0.911632 0.695708 -0.242282
C82   C     C_R   0.903970 0.411511 0.305408 -0.210986
C83   C     C_R   0.098065 0.411647 0.695735 -0.242194
C84   C     C_R   0.435550 0.879404 0.302372 0.028703
C85   C     C_R   0.567479 0.885417 0.708543 0.007944
C86   C     C_R   0.935580 0.379329 0.302521 0.028299
C87   C     C_R   0.190998 0.310086 0.880441 0.975825
C88   C     C_R   0.067521 0.385472 0.708655 0.007397
C89   C     C_3   0.490080 0.850684 0.371315 0.198040
C90   C     C_3   0.507594 0.860777 0.646821 0.230274
C91   C     C_3   0.990024 0.350574 0.371536 0.198196
C92   C     C_3   0.007595 0.360873 0.647012 0.227828
C93   C     C_R   0.336708 0.749338 0.999685 0.937955
C94   C     C_R   0.663745 0.749769 0.000660 0.943930
C95   C     C_R   0.836747 0.249443 0.999782 0.937211
C96   C     C_R   0.164064 0.249415 0.001291 0.857850
C97   C     C_3   0.454293 0.813267 0.305212 0.269240
C98   C     C_R   0.541548 0.787262 0.990588 0.073840
C99   C     C_3   0.542218 0.823129 0.712789 0.255132
C100  C     C_3   0.954214 0.313161 0.305425 0.270151
C101  C     C_3   0.042214 0.323218 0.712964 0.258806
C102  C     C_R   0.866643 0.752997 0.919369 0.399739
C103  C     C_R   0.132036 0.760030 0.077781 0.390876
C104  C     C_R   0.366613 0.253023 0.919318 0.399522
C105  C     C_R   0.632007 0.260003 0.077730 0.390705
C106  C     C_R   0.883915 0.749305 0.998778 -0.262209
C107  C     C_R   0.115876 0.750498 0.000422 -0.265972
C108  C     C_R   0.383892 0.249306 0.998731 -0.264630
C109  C     C_R   0.445583 0.786440 0.983562 0.064461
C110  C     C_R   0.615850 0.250491 0.000368 -0.265999
C111  C     C_R   0.946478 0.746228 0.078004 0.374550
C112  C     C_R   0.054383 0.741892 0.922739 0.374613
C113  C     C_R   0.446449 0.246170 0.077935 0.373734
C114  C     C_R   0.554344 0.241939 0.922647 0.374560
C115  C     C_R   0.992611 0.753278 0.078691 -0.069868
C116  C     C_R   0.007071 0.748155 0.920192 -0.074680
C117  C     C_R   0.492586 0.253227 0.078635 -0.069892
C118  C     C_R   0.507036 0.248195 0.920118 -0.074790
C119  C     C_R   0.976127 0.752113 0.998755 -0.104579
C120  C     C_R   0.041313 0.286574 0.989908 0.068163
C121  C     C_R   0.023315 0.752557 0.999732 -0.104248
C122  C     C_R   0.476096 0.252107 0.998692 -0.104606
C123  C     C_R   0.523283 0.252553 0.999666 -0.104432
C124  C     C_R   0.912605 0.749323 0.918162 -0.133530
C125  C     C_R   0.086785 0.756249 0.080230 -0.130778
C126  C     C_R   0.412569 0.249355 0.918095 -0.133525
C127  C     C_R   0.586755 0.256211 0.080170 -0.131040
C128  C     C_R   0.055475 0.757971 0.158050 0.416236
C129  C     C_R   0.943905 0.746365 0.840429 0.417428
C130  C     C_R   0.555455 0.257878 0.158003 0.416085
C131  C     C_R   0.945221 0.286393 0.982751 0.068832
C132  C     C_R   0.443866 0.246448 0.840353 0.417183
C133  C     C_R   0.102141 0.756534 0.159273 0.403418
C134  C     C_R   0.897711 0.743845 0.839922 0.403200
C135  C     C_R   0.602117 0.256452 0.159215 0.403136
C136  C     C_R   0.397670 0.243922 0.839843 0.402880
C137  C     C_R   0.174239 0.614342 0.833125 -0.145385
C138  C     C_R   0.891199 0.635116 0.207392 -0.201243
C139  C     C_R   0.673940 0.114212 0.833333 -0.145456
C140  C     C_R   0.388499 0.133253 0.203910 -0.189371
C141  C     C_R   0.188066 0.689931 0.879819 0.947016
C142  C     C_R   0.537883 0.667529 0.025721 0.356137
C143  C     C_R   0.810484 0.690010 0.119553 0.950346
C144  C     C_R   0.688083 0.189925 0.879822 0.946440
C145  C     C_R   0.310171 0.190017 0.119627 0.915016
C146  C     C_R   0.150919 0.656913 0.813813 -0.181878
C147  C     C_R   0.841712 0.657684 0.185446 -0.118221
C148  C     C_R   0.650923 0.156898 0.813823 -0.182618
C149  C     C_R   0.341601 0.157765 0.185775 -0.117992
C150  C     C_R   0.091280 0.666125 0.730361 0.333252
C151  C     C_R   0.829922 0.654169 0.237750 0.329856
C152  C     C_R   0.591609 0.166256 0.730088 0.334085
Cl1   Cl    Cl    0.788956 0.769268 0.826228 -0.446438
Cl2   Cl    Cl    0.771137 0.686665 0.215606 -0.431934
Cl3   Cl    Cl    0.553367 0.217291 0.704200 -0.415773
Cl4   Cl    Cl    0.279774 0.191888 0.227391 -0.489676
Cl5   Cl    Cl    0.990703 0.646414 0.558196 -0.436691
Cl6   Cl    Cl    0.844475 0.618079 0.366473 -0.366668
Cl7   Cl    Cl    0.492275 0.147000 0.557480 -0.434088
Cl8   Cl    Cl    0.348420 0.120013 0.371478 -0.365657
Cl9   Cl    Cl    0.221152 0.556190 0.748994 -0.410410
Cl10  Cl    Cl    0.902953 0.523003 0.202722 -0.494600
Cl11  Cl    Cl    0.721024 0.055427 0.749910 -0.408628
Cl12  Cl    Cl    0.206597 0.782801 0.164742 -0.463884
Cl13  Cl    Cl    0.396576 0.020725 0.199740 -0.500465
Cl14  Cl    Cl    0.284453 0.631903 0.883380 -0.428888
Cl15  Cl    Cl    0.827441 0.591499 0.052435 -0.437262
Cl16  Cl    Cl    0.784204 0.131304 0.883597 -0.422122
Cl17  Cl    Cl    0.319202 0.088719 0.048649 -0.431016
Cl18  Cl    Cl    0.224030 0.881875 0.094695 -0.411925
Cl19  Cl    Cl    0.776387 0.869473 0.889086 -0.429282
Cl20  Cl    Cl    0.724061 0.382007 0.094521 -0.415140
Cl21  Cl    Cl    0.276392 0.369427 0.889017 -0.429976
Cl22  Cl    Cl    0.288917 0.269285 0.826196 -0.446606
Cl23  Cl    Cl    0.706552 0.282797 0.164695 -0.463317
Cl24  Cl    Cl    0.178571 0.749548 0.263373 -0.384197
Cl25  Cl    Cl    0.823633 0.727901 0.739655 -0.368913
Cl26  Cl    Cl    0.678546 0.249414 0.263292 -0.382297
Cl27  Cl    Cl    0.323578 0.228032 0.739536 -0.368820
Cl28  Cl    Cl    0.052909 0.717042 0.704863 -0.417818
H1    H     H_    0.604387 0.817836 0.988096 0.216795
H2    H     H_    0.470179 0.876356 0.638558 0.095559
H3    H     H_    0.033195 0.360197 0.389236 0.108858
H4    H     H_    0.970245 0.376493 0.638851 0.096352
H5    H     H_    0.476769 0.800320 0.284409 0.116349
H6    H     H_    0.524806 0.816078 0.743096 0.113328
H7    H     H_    0.976743 0.300146 0.284743 0.117254
H8    H     H_    0.024861 0.316204 0.743363 0.116579
H9    H     H_    0.410171 0.792754 0.336242 0.395278
H10   H     H_    0.571457 0.792565 0.665898 0.392574
H11   H     H_    0.909910 0.292774 0.336240 0.395465
H12   H     H_    0.371423 0.815408 0.964573 0.235813
H13   H     H_    0.071302 0.292595 0.665915 0.392029
H14   H     H_    0.929759 0.718220 0.141298 0.322996
H15   H     H_    0.076469 0.711018 0.867324 0.336396
H16   H     H_    0.429732 0.217992 0.141098 0.324304
H17   H     H_    0.576399 0.211204 0.867061 0.336281
H18   H     H_    0.044430 0.786898 0.226127 0.379374
H19   H     H_    0.949450 0.770782 0.764048 0.387173
H20   H     H_    0.544425 0.286739 0.226146 0.379611
H21   H     H_    0.449412 0.270929 0.764014 0.387013
H22   H     H_    0.195454 0.520740 0.877202 0.316885
H23   H     H_    0.104650 0.316770 0.988262 0.216879
H24   H     H_    0.017123 0.604079 0.294409 0.331439
H25   H     H_    0.694661 0.020688 0.877694 0.317081
H26   H     H_    0.511619 0.099822 0.283851 0.330887
H27   H     H_    0.592109 0.653516 0.959268 0.368003
H28   H     H_    0.450173 0.666939 0.111097 0.359478
H29   H     H_    0.171349 0.173837 0.048855 0.355219
H30   H     H_    0.949765 0.162435 0.101170 0.361022
H31   H     H_    0.535273 0.604840 0.007363 0.365754
H32   H     H_    0.516958 0.611290 0.087543 0.362839
H33   H     H_    0.011884 0.105959 0.964891 0.366116
H34   H     H_    0.873133 0.315978 0.967987 0.234607
H35   H     H_    0.997230 0.106091 0.049612 0.360706
H36   H     H_    0.461879 0.889178 0.987068 0.363587
H37   H     H_    0.486934 0.882808 0.915767 0.357504
H38   H     H_    0.965900 0.388911 0.993688 0.363662
H39   H     H_    0.990408 0.383475 0.921593 0.357924
H40   H     H_    0.331057 0.975254 0.255959 0.353918
H41   H     H_    0.677921 0.965445 0.733160 0.384545
H42   H     H_    0.831251 0.475390 0.255701 0.351835
H43   H     H_    0.177979 0.465384 0.733000 0.384529
H44   H     H_    0.534706 0.826710 0.484606 0.379745
H45   H     H_    0.261014 0.584673 0.949104 0.128991
H46   H     H_    0.450240 0.835245 0.532352 0.378135
H47   H     H_    0.034483 0.326632 0.484790 0.379845
H48   H     H_    0.950121 0.335343 0.532543 0.378678
H49   H     H_    0.927711 0.629010 0.149479 0.115555
H50   H     H_    0.760570 0.084476 0.949531 0.128014
H51   H     H_    0.420313 0.124764 0.140032 0.112712
H52   H     H_    0.533187 0.860376 0.388897 0.108776
O1    O     O_R   0.321640 0.769930 0.143350 -0.578722
O2    O     O_R   0.508530 0.954180 0.591630 -0.613623
O3    O     O_R   0.991470 0.454180 0.408370 -0.595703
O4    O     O_R   0.008530 0.454180 0.591630 -0.613349
O5    O     O_R   0.416850 0.954230 0.408340 -0.605635
O6    O     O_R   0.583150 0.954230 0.591660 -0.610020
O7    O     O_R   0.916850 0.454230 0.408340 -0.604532
O8    O     O_R   0.083150 0.454230 0.591660 -0.610225
O9    O     O_R   0.269930 0.821650 0.039910 -0.597588
O10   O     O_R   0.730070 0.821650 0.960090 -0.611157
O11   O     O_R   0.769930 0.321650 0.039910 -0.598303
O12   O     O_R   0.678360 0.769930 0.856650 -0.576958
O13   O     O_R   0.230070 0.321650 0.960090 -0.609093
O14   O     O_R   0.341900 0.724100 0.051720 -0.572277
O15   O     O_R   0.658100 0.724100 0.948280 -0.598193
O16   O     O_R   0.841900 0.224100 0.051720 -0.567950
O17   O     O_R   0.158100 0.224100 0.948280 -0.605214
O18   O     O_R   0.290200 0.775820 0.948280 -0.626805
O19   O     O_R   0.709800 0.775820 0.051720 -0.609851
O20   O     O_R   0.790200 0.275820 0.948280 -0.627090
O21   O     O_R   0.209800 0.275820 0.051720 -0.593938
O22   O     O_R   0.230030 0.678320 0.960120 -0.619392
O23   O     O_R   0.821640 0.269930 0.143350 -0.578457
O24   O     O_R   0.769970 0.678320 0.039880 -0.560779
O25   O     O_R   0.730030 0.178320 0.960120 -0.619469
O26   O     O_R   0.269970 0.178320 0.039880 -0.576570
O27   O     O_R   0.178330 0.730040 0.856690 -0.572970
O28   O     O_R   0.821670 0.730040 0.143310 -0.608077
O29   O     O_R   0.678330 0.230040 0.856690 -0.572891
O30   O     O_R   0.321670 0.230040 0.143310 -0.596345
O31   O     O_R   0.209770 0.724140 0.051760 -0.602511
O32   O     O_R   0.790230 0.724140 0.948240 -0.581430
O33   O     O_R   0.709770 0.224140 0.051760 -0.602421
O34   O     O_R   0.178360 0.269930 0.856650 -0.571133
O35   O     O_R   0.290230 0.224140 0.948240 -0.580473
O36   O     O_R   0.158070 0.775860 0.948320 -0.575388
O37   O     O_R   0.841930 0.775860 0.051680 -0.591929
O38   O     O_R   0.658070 0.275860 0.948320 -0.575862
O39   O     O_R   0.341930 0.275860 0.051680 -0.590376
O40   O     O_R   0.991510 0.545790 0.408370 -0.584055
O41   O     O_R   0.008490 0.545790 0.591630 -0.597707
O42   O     O_R   0.491510 0.045790 0.408370 -0.584869
O43   O     O_R   0.508490 0.045790 0.591630 -0.598128
O44   O     O_3   0.436411 0.779779 0.328559 -0.664699
O45   O     O_R   0.916890 0.545840 0.408340 -0.575666
O46   O     O_3   0.549149 0.784987 0.682769 -0.670693
O47   O     O_3   0.936188 0.279737 0.328670 -0.663620
O48   O     O_3   0.049040 0.285052 0.682872 -0.666643
O49   O     O_3   0.963531 0.734898 0.154584 -0.712515
O50   O     O_3   0.039763 0.725781 0.849931 -0.675159
O51   O     O_3   0.463480 0.234762 0.154468 -0.710914
O52   O     O_3   0.539696 0.225905 0.849772 -0.675722
O53   O     O_3   0.073112 0.764602 0.236258 -0.627433
O54   O     O_3   0.925413 0.747406 0.760987 -0.605960
O55   O     O_3   0.573101 0.264458 0.236228 -0.626518
O56   O     O_R   0.083110 0.545840 0.591660 -0.583071
O57   O     O_3   0.425372 0.247537 0.760912 -0.605976
O58   O     O_3   0.210226 0.518277 0.848123 -0.749932
O59   O     O_3   0.999446 0.574127 0.275149 -0.703377
O60   O     O_3   0.709489 0.017997 0.848712 -0.750592
O61   O     O_3   0.493162 0.070090 0.265925 -0.703796
O62   O     O_3   0.626166 0.670640 0.011860 -0.645155
O63   O     O_3   0.409634 0.673813 0.051552 -0.632185
O64   O     O_3   0.129637 0.168000 0.024900 -0.631346
O65   O     O_3   0.908026 0.173301 0.047843 -0.639111
O66   O     O_3   0.566054 0.628715 0.034977 -0.692914
O67   O     O_R   0.416890 0.045840 0.408340 -0.576956
O68   O     O_3   0.478884 0.629549 0.046178 -0.687015
O69   O     O_3   0.046548 0.127083 0.997723 -0.645524
O70   O     O_3   0.962562 0.127681 0.015740 -0.678325
O71   O     O_3   0.432677 0.864457 0.962411 -0.749788
O72   O     O_3   0.524547 0.864051 0.956106 -0.764783
O73   O     O_3   0.935713 0.364750 0.967582 -0.749690
O74   O     O_3   0.027256 0.363920 0.960559 -0.765368
O75   O     O_3   0.304230 0.949105 0.227344 -0.642846
O76   O     O_3   0.699174 0.936675 0.755277 -0.616399
O77   O     O_3   0.804344 0.449276 0.227091 -0.644357
O78   O     O_R   0.583110 0.045840 0.591660 -0.582800
O79   O     O_3   0.199194 0.436601 0.755148 -0.616677
O80   O     O_3   0.497585 0.845810 0.442864 -0.686121
O81   O     O_3   0.489991 0.851286 0.568323 -0.680620
O82   O     O_3   0.997405 0.345759 0.442987 -0.685763
O83   O     O_3   0.989885 0.351360 0.568447 -0.680280
O84   O     O_R   0.491470 0.954180 0.408370 -0.595566
Zn1   Zn    Zn3+2 0.284510 0.715450 0.069080 1.106041
Zn2   Zn    Zn3+2 0.450220 0.999980 0.500010 1.115846
Zn3   Zn    Zn3+2 0.049780 0.499980 0.499990 1.138781
Zn4   Zn    Zn3+2 0.950220 0.499980 0.500010 1.117665
Zn5   Zn    Zn3+2 0.715490 0.715450 0.930920 1.153390
Zn6   Zn    Zn3+2 0.784510 0.215450 0.069080 1.108601
Zn7   Zn    Zn3+2 0.215490 0.215450 0.930920 1.153621
Zn8   Zn    Zn3+2 0.215460 0.784520 0.930950 1.136959
Zn9   Zn    Zn3+2 0.784540 0.784520 0.069050 1.100963
Zn10  Zn    Zn3+2 0.715460 0.284520 0.930950 1.136121
Zn11  Zn    Zn3+2 0.284540 0.284520 0.069050 1.105249
Zn12  Zn    Zn3+2 0.549780 0.999980 0.499990 1.137918

loop_
_geom_bond_atom_site_label_1
_geom_bond_atom_site_label_2
_ccdc_geom_bond_type
C105  C110  A    
C89   O80   S    
C107  C112  A    
O27   Zn8   S    
C21   C137  S    
C97   H5    S    
H36   O71   S    
C99   O46   S    
C76   O23   A    
C27   O56   A    
C146  C150  A    
C1    O1    A    
O10   Zn9   S    
C70   C74   A    
H14   O49   S    
O40   Zn3   S    
C91   C100  S    
C101  H8    S    
C94   O15   A    
C28   O67   A    
C35   C109  A    
C106  C111  A    
C83   C88   A    
C46   C98   A    
C126  C136  A    
C59   C60   A    
C63   C85   A    
C20   O61   S    
C96   O17   A    
C144  O29   A    
C9    C26   S    
C15   C139  A    
O42   Zn12  S    
C31   O2    A    
C3    C149  A    
C116  C121  A    
C36   C106  S    
O1    Zn1   S    
C137  C146  A    
C25   C140  S    
C39   C98   A    
C104  Cl22  S    
C17   C21   S    
C21   Cl14  S    
C108  C113  A    
O22   Zn1   S    
C19   C23   S    
C90   O81   S    
C78   C82   A    
C40   H12   S    
C16   C20   S    
C65   C68   S    
C71   Cl18  S    
C112  O50   S    
C33   C83   S    
C102  Cl1   S    
C33   O4    A    
H46   O81   S    
C19   O60   S    
C29   O78   A    
C48   O62   S    
C13   C54   A    
H35   O70   S    
H10   O46   S    
O56   Zn3   S    
C2    C53   A    
C95   O20   A    
C53   C58   A    
C57   C61   A    
C4    C150  A    
C5    C151  A    
H30   O65   S    
O7    Zn4   S    
O8    Zn3   S    
C66   C70   A    
C45   C50   A    
C49   C53   A    
C3    Cl4   S    
C49   O63   S    
C51   C55   A    
C41   C120  A    
C87   O34   A    
C48   C52   A    
O78   Zn12  S    
O21   Zn11  S    
C5    Cl6   S    
C20   C25   S    
H22   O58   S    
C41   C45   A    
C132  O57   S    
C103  C107  A    
H37   O72   S    
O67   Zn2   S    
C59   C120  A    
C101  O48   S    
C117  C122  A    
O34   Zn7   S    
C5    C9    A    
C20   Cl13  S    
C34   O31   A    
C141  O22   A    
C79   O79   S    
O41   Zn4   S    
C66   C88   A    
C77   O76   S    
O43   Zn2   S    
C43   C94   S    
C69   C76   S    
O33   Zn6   S    
C63   C99   S    
O19   Zn9   S    
C37   O38   A    
C42   C131  A    
C110  C114  A    
O13   Zn11  S    
C8    C12   A    
C27   O41   A    
C134  Cl25  S    
C61   C120  A    
C66   C101  S    
C16   C140  A    
C70   C87   S    
O28   Zn9   S    
H41   O76   S    
O35   Zn7   S    
C87   O13   A    
C54   C59   A    
C119  C121  A    
O30   Zn11  S    
C139  C148  A    
C105  C127  A    
C76   O11   A    
O26   Zn7   S    
C92   H4    S    
O3    Zn3   S    
O4    Zn4   S    
C115  C128  A    
C23   Cl16  S    
C147  C151  A    
C38   O35   A    
C121  C125  A    
O29   Zn10  S    
C62   C97   S    
C123  C127  A    
C4    Cl5   S    
C132  C136  A    
C35   O71   S    
O25   Zn6   S    
C19   Cl11  S    
C64   C69   A    
C73   Cl20  S    
C144  O25   A    
C17   Cl9   S    
C26   O40   A    
C31   O6    A    
C115  C119  A    
C100  O47   S    
C2    C142  A    
O9    Zn8   S    
C113  C117  A    
O2    Zn2   S    
H39   O74   S    
O20   Zn10  S    
C90   C99   S    
C112  C116  A    
C93   O18   A    
C38   O39   A    
C62   C84   A    
C63   C68   A    
C142  O66   S    
C18   C22   S    
C148  C152  A    
C30   O84   A    
H33   O69   S    
C32   O7    A    
C32   C82   S    
C124  C134  A    
C24   O70   S    
C33   O8    A    
C1    C67   S    
C56   C58   A    
C26   O45   A    
C103  C125  A    
C118  C132  A    
C40   C44   A    
C105  Cl23  S    
O23   Zn6   S    
C140  C149  A    
C81   C85   A    
C29   O43   A    
C91   H3    S    
C130  C135  A    
C80   C84   A    
C15   C19   S    
O36   Zn8   S    
C136  Cl27  S    
C103  Cl12  S    
C50   C54   A    
H20   O55   S    
H15   O50   S    
C34   C107  S    
C114  C118  A    
C127  C135  A    
C128  O53   S    
C3    C7    A    
C86   C91   S    
O14   Zn1   S    
C17   O58   S    
O84   Zn12  S    
C25   Cl17  S    
O45   Zn4   S    
C14   C138  A    
C12   C17   S    
C69   C73   A    
C4    C8    A    
C6    C152  A    
C92   O83   S    
C55   C60   A    
C111  O49   S    
C102  C124  A    
C60   C131  A    
C64   C86   A    
C65   O12   A    
C91   O82   S    
O6    Zn12  S    
C72   Cl19  S    
C100  H7    S    
C47   C51   A    
C7    Cl8   S    
C82   C86   A    
H47   O82   S    
C7    C11   A    
C9    C14   A    
C75   O75   S    
C11   C16   A    
C28   O42   A    
C152  Cl3   S    
C77   C81   A    
O5    Zn2   S    
C141  O27   A    
C37   O33   A    
H11   O47   S    
C37   C110  S    
C141  C146  S    
C22   Cl15  S    
H31   O66   S    
C104  C108  A    
C21   H45   S    
C150  Cl28  S    
C23   C139  S    
H19   O54   S    
C25   H51   S    
C145  O26   A    
C135  Cl26  S    
C2    O68   S    
C130  O55   S    
H32   O68   S    
C6    C10   A    
C40   C109  A    
C18   O59   S    
C22   C138  S    
C51   O65   S    
C79   C83   A    
C18   Cl10  S    
C10   C29   S    
C22   H49   S    
O37   Zn9   S    
C11   C28   S    
H29   O64   S    
C67   C71   A    
C118  C123  A    
C89   H52   S    
C38   C108  S    
C97   O44   S    
C46   O72   S    
C93   O14   A    
C129  C134  A    
C64   C100  S    
C8    C27   S    
H24   O59   S    
C35   C46   A    
O17   Zn7   S    
C99   H6    S    
C145  C149  S    
C32   O3    A    
C44   C49   A    
C58   C109  A    
C14   C18   S    
C56   C98   A    
C144  C148  S    
H16   O51   S    
C94   O19   A    
C6    Cl7   S    
C61   O74   S    
C119  C124  A    
C24   C55   A    
C143  C147  S    
C62   C67   A    
O12   Zn5   S    
C36   O32   A    
C34   O36   A    
C129  O54   S    
C96   O21   A    
C10   C15   A    
C151  Cl2   S    
O31   Zn1   S    
H26   O61   S    
C44   C93   S    
C116  C129  A    
C90   H2    S    
C36   O37   A    
C41   H23   S    
C43   C48   A    
H28   O63   S    
C68   C72   A    
H18   O53   S    
C30   C80   S    
C78   O77   S    
H13   O48   S    
O32   Zn5   S    
C13   O69   S    
O38   Zn10  S    
H43   O79   S    
H44   O80   S    
O11   Zn10  S    
H17   O52   S    
C88   C92   S    
H48   O83   S    
C74   Cl21  S    
C39   C43   A    
C52   C142  A    
C13   C24   A    
C89   C97   S    
C122  C126  A    
C72   C77   A    
C42   H34   S    
H40   O75   S    
C95   O16   A    
C138  C147  A    
C73   C78   A    
C57   O73   S    
C117  C130  A    
C39   H1    S    
C1    O9    A    
C113  O51   S    
C92   C101  S    
C114  O52   S    
H9    O44   S    
C143  O24   A    
C85   C90   S    
C84   C89   S    
C30   O5    A    
C75   C80   A    
C125  C133  A    
H21   O57   S    
C57   C131  A    
C143  O28   A    
O18   Zn8   S    
H42   O77   S    
O39   Zn11  S    
C65   O10   A    
C31   C81   S    
C74   C79   A    
H25   O60   S    
H38   O73   S    
C128  C133  A    
C71   C75   A    
C102  C106  A    
C42   C47   A    
H27   O62   S    
C50   O64   S    
C133  Cl24  S    
O16   Zn6   S    
C23   H50   S    
C104  C126  A    
O24   Zn5   S    
C145  O30   A    
C47   C95   S    
C12   C137  A    
C111  C115  A    
C122  C123  A    
C45   C96   S    
C52   C56   A    
O15   Zn5   S    
