data_mof_unit_32927.cif
_audit_creation_date              2012-12-10T20:40:01-0500
_audit_creation_method            fapswitch 2.2
_symmetry_space_group_name_H-M    P1
_symmetry_Int_Tables_number       1
_space_group_crystal_system       triclinic
_cell_length_a                    23.429167
_cell_length_b                    10.680294
_cell_length_c                    9.848328
_cell_angle_alpha                 89.696418
_cell_angle_beta                  90.13866
_cell_angle_gamma                 90.107213
_cell_volume                      2464.30490916

loop_
_atom_site_label
_atom_site_type_symbol
_atom_type_description
_atom_site_fract_x
_atom_site_fract_y
_atom_site_fract_z
_atom_type_partial_charge
C1    C     C_R   0.501914 0.259801 0.500227 0.889927
C2    C     C_R   0.119357 0.615393 0.486811 0.582329
C3    C     C_R   0.237740 0.501179 0.373223 0.514425
C4    C     C_R   0.389265 0.500593 0.499840 0.912492
C5    C     C_R   0.297205 0.501401 0.375264 -0.290765
C6    C     C_R   0.326973 0.502247 0.499084 -0.122194
C7    C     C_R   0.296874 0.505119 0.621782 -0.188899
C8    C     C_R   0.237740 0.505877 0.620691 -0.145974
C9    C     C_R   0.208168 0.503774 0.497402 0.174148
C10   C     C_R   0.762356 0.511826 0.379302 -0.098448
C11   C     C_R   0.703107 0.510708 0.378175 -0.212758
C12   C     C_R   0.970267 0.277852 0.538848 -0.150662
C13   C     C_R   0.672960 0.500810 0.500831 -0.038473
C14   C     C_R   0.702781 0.491865 0.624376 -0.213239
C15   C     C_R   0.762007 0.492625 0.625043 -0.099326
C16   C     C_R   0.502087 0.740067 0.499657 0.889415
C17   C     C_R   0.791639 0.502687 0.502634 0.321766
C18   C     C_R   0.514680 0.062854 0.622597 0.141539
C19   C     C_R   0.511678 0.128455 0.500265 -0.104464
C20   C     C_R   0.520350 0.065412 0.377290 -0.210943
C21   C     C_R   0.520514 0.935926 0.376884 -0.209273
C22   C     C_R   0.512003 0.871235 0.499444 -0.105751
C23   C     C_R   0.029675 0.278083 0.538574 -0.141487
C24   C     C_R   0.514825 0.935058 0.622096 0.132287
C25   C     C_3   0.477324 0.926085 0.744254 -0.453082
C26   C     C_3   0.477066 0.067865 0.744785 -0.492924
C27   C     C_R   0.450846 0.476844 0.071269 0.221189
C28   C     C_R   0.610717 0.500178 0.500153 0.872472
C29   C     C_R   0.547230 0.534381 0.072016 -0.135895
C30   C     C_R   0.547248 0.534279 0.928030 -0.135099
C31   C     C_R   0.450749 0.477495 0.928584 0.218647
C32   C     C_3   0.415452 0.361447 0.923378 -0.494615
C33   C     C_3   0.415956 0.360197 0.077421 -0.476797
C34   C     C_R   0.059819 0.390696 0.521208 -0.026256
C35   C     C_R   0.880414 0.614385 0.487200 0.506265
C36   C     C_R   0.880479 0.392323 0.520890 0.506487
C37   C     C_R   0.940062 0.390236 0.521758 -0.016676
C38   C     C_R   0.969942 0.503844 0.504649 -0.015666
C39   C     C_R   0.940006 0.617174 0.487497 -0.016637
C40   C     C_R   0.029895 0.504084 0.504444 -0.023201
C41   C     C_R   0.059783 0.617710 0.487519 -0.027134
C42   C     C_R   0.029585 0.730199 0.471339 -0.135930
C43   C     C_R   0.970168 0.729918 0.471173 -0.150583
C44   C     C_R   0.119379 0.393183 0.519223 0.595644
H1    H     H_    0.948151 0.189501 0.552180 0.194590
H2    H     H_    0.499585 0.107865 0.834107 0.204371
H3    H     H_    0.585621 0.560367 0.126125 0.149616
H4    H     H_    0.051835 0.189898 0.551596 0.196435
H5    H     H_    0.585658 0.560099 0.874025 0.151011
H6    H     H_    0.372406 0.378661 0.879779 0.217024
H7    H     H_    0.438779 0.281922 0.878317 0.209354
H8    H     H_    0.373133 0.376308 0.121971 0.226129
H9    H     H_    0.439799 0.279755 0.121710 0.210975
H10   H     H_    0.051712 0.818570 0.458274 0.198088
H11   H     H_    0.948012 0.818101 0.458094 0.194834
H12   H     H_    0.681039 0.517906 0.281705 0.153928
H13   H     H_    0.320249 0.501142 0.280284 0.193841
H14   H     H_    0.318884 0.507269 0.718464 0.176003
H15   H     H_    0.214639 0.508098 0.715784 0.183237
H16   H     H_    0.785602 0.519447 0.284697 0.139075
H17   H     H_    0.127722 0.402086 0.134357 0.385666
H18   H     H_    0.680474 0.483998 0.720244 0.156175
H19   H     H_    0.784972 0.485593 0.720338 0.138938
H20   H     H_    0.522713 0.114866 0.281128 0.171522
H21   H     H_    0.522941 0.887695 0.280575 0.173971
H22   H     H_    0.434828 0.884471 0.721487 0.214987
H23   H     H_    0.499923 0.884552 0.833038 0.206628
H24   H     H_    0.434373 0.108368 0.722085 0.211411
N1    N     N_R   0.852282 0.503161 0.503577 -0.361741
N2    N     N_R   0.147499 0.504078 0.500263 -0.344770
N3    N     N_R   0.499610 0.499140 0.142800 -0.110999
N4    N     N_R   0.499610 0.499180 0.857150 -0.109893
O1    O     O_R   0.500010 0.316790 0.614690 -0.615502
O2    O     O_R   0.583850 0.500060 0.614640 -0.629102
O3    O     O_R   0.583840 0.500020 0.385300 -0.629425
O4    O     O_2   0.850660 0.721587 0.471239 -0.544593
O5    O     O_2   0.174903 0.624504 0.190124 -0.265689
O6    O     O_2   0.242113 0.469443 0.102203 -0.318598
O7    O     O_3   0.149747 0.388987 0.219206 -0.541153
O8    O     O_2   0.850791 0.284777 0.536438 -0.543974
O9    O     O_2   0.149144 0.285946 0.534807 -0.517194
O10   O     O_2   0.149102 0.723022 0.472726 -0.511577
O11   O     O_R   0.500000 0.316760 0.385350 -0.623173
O12   O     O_R   0.416160 0.499980 0.614700 -0.622350
O13   O     O_R   0.416150 0.499940 0.385360 -0.617356
O14   O     O_R   0.500000 0.683240 0.614650 -0.616667
O15   O     O_R   0.499990 0.683210 0.385310 -0.619316
S1    S     S_3+6 0.201387 0.498460 0.215469 0.035178
Zn1   Zn    Zn3+2 0.500000 0.500020 0.653130 0.950856
Zn2   Zn    Zn3+2 0.500000 0.499980 0.346870 0.953347

loop_
_geom_bond_atom_site_label_1
_geom_bond_atom_site_label_2
_ccdc_geom_bond_type
C17   N1    S    
C41   C42   A    
C10   H16   S    
C19   C20   A    
C18   C26   S    
C28   O2    A    
C7    C8    A    
C27   C33   S    
C33   H8    S    
C12   C23   A    
C37   C38   A    
C29   H3    S    
C34   C40   A    
O2    Zn1   S    
C36   C37   A    
C8    H15   S    
C5    C6    A    
C10   C17   A    
C14   H18   S    
C18   C19   A    
C12   C37   A    
O3    Zn2   S    
O5    S1    D    
C8    C9    A    
C25   H23   S    
C16   O15   A    
C13   C28   S    
C44   N2    A    
C18   C24   A    
C7    H14   S    
C21   C22   A    
C16   O14   A    
O7    S1    S    
C33   H9    S    
C35   O4    S    
C1    C19   S    
C27   C31   A    
C34   C44   A    
C9    N2    S    
C4    C6    S    
C44   O9    S    
C36   O8    S    
C39   C43   A    
C4    O13   A    
C25   C26   S    
C20   H20   S    
C35   C39   A    
C32   H7    S    
C29   C30   A    
C3    C9    A    
C31   C32   S    
C4    O12   A    
C23   C34   A    
C24   C25   S    
C32   H6    S    
C43   H11   S    
C40   C41   A    
C30   H5    S    
C22   C24   A    
C2    O10   S    
C42   C43   A    
C27   N3    A    
C36   N1    A    
O6    S1    D    
C15   C17   A    
O11   Zn2   S    
C31   N4    A    
C16   C22   S    
C23   H4    S    
C21   H21   S    
C3    S1    S    
C25   H22   S    
C12   H1    S    
C3    C5    A    
O14   Zn1   S    
C30   N4    A    
O13   Zn2   S    
C6    C7    A    
C1    O11   A    
C5    H13   S    
C1    O1    A    
C32   C33   S    
C26   H24   S    
C2    N2    A    
C42   H10   S    
C38   C40   A    
N4    Zn1   S    
C11   C13   A    
C38   C39   A    
N3    Zn2   S    
H17   O7    S    
C10   C11   A    
C26   H2    S    
O1    Zn1   S    
C20   C21   A    
C35   N1    A    
O12   Zn1   S    
O15   Zn2   S    
C15   H19   S    
C14   C15   A    
C2    C41   A    
C13   C14   A    
C28   O3    A    
C11   H12   S    
C29   N3    A    
