data_mof_unit_27854.cif
_audit_creation_date              2013-03-05T16:32:59-0500
_audit_creation_method            fapswitch 2.2
_symmetry_space_group_name_H-M    P1
_symmetry_Int_Tables_number       1
_space_group_crystal_system       triclinic
_cell_length_a                    23.476095
_cell_length_b                    10.918494
_cell_length_c                    9.656149
_cell_angle_alpha                 89.181565
_cell_angle_beta                  91.172714
_cell_angle_gamma                 92.115239
_cell_volume                      2472.66761378

loop_
_atom_site_label
_atom_site_type_symbol
_atom_site_description
_atom_site_fract_x
_atom_site_fract_y
_atom_site_fract_z
_atom_type_partial_charge
O1    O     O_R   0.500000 0.319640 0.618810 -0.513610
O2    O     O_R   0.500010 0.319680 0.381230 -0.617885
C1    C     C_R   0.499728 0.263174 0.500864 0.828252
O3    O     O_R   0.417880 0.499940 0.618820 -0.545690
O4    O     O_R   0.417880 0.499980 0.381240 -0.550073
C2    C     C_R   0.391065 0.504231 0.498762 0.856198
Cu1   Cu    Cu3+1 0.500000 0.499980 0.640670 1.073599
Cu2   Cu    Cu3+1 0.500000 0.500020 0.359330 1.017498
O5    O     O_R   0.499990 0.680320 0.618770 -0.559384
O6    O     O_R   0.500000 0.680360 0.381190 -0.537200
O7    O     O_R   0.582120 0.500020 0.618760 -0.556779
O8    O     O_R   0.582120 0.500060 0.381180 -0.564960
C3    C     C_R   0.500857 0.737237 0.498830 0.855066
C4    C     C_R   0.608539 0.497185 0.500859 0.903718
C5    C     C_R   0.877122 0.576659 0.381344 0.632050
N1    N     N_R   0.850742 0.483514 0.455308 -0.443381
C6    C     C_R   0.881509 0.390832 0.512569 0.680113
C7    C     C_R   0.940004 0.383961 0.485634 -0.139091
C8    C     C_R   0.968585 0.489853 0.431209 -0.080335
C9    C     C_R   0.937139 0.589870 0.382445 -0.141768
C10   C     C_R   0.971190 0.277698 0.515922 0.319609
C11   C     C_R   0.030440 0.282596 0.502691 -0.157035
C12   C     C_R   0.059458 0.391458 0.462720 -0.063884
C13   C     C_R   0.028654 0.495793 0.427285 -0.047594
C14   C     C_R   0.057992 0.606158 0.390389 -0.163116
C15   C     C_R   0.026509 0.706612 0.340633 0.259914
C16   C     C_R   0.966445 0.697868 0.334904 0.252767
C17   C     C_R   0.119021 0.398483 0.458280 0.629963
N2    N     N_R   0.147266 0.509841 0.443230 -0.449500
C18   C     C_R   0.117839 0.613313 0.411737 0.588398
O9    O     O_2   0.845149 0.655147 0.307215 -0.467022
O10   O     O_2   0.855843 0.308233 0.598201 -0.423679
H1    H     H_    0.053844 0.200778 0.525517 0.232944
O11   O     O_2   0.148569 0.295064 0.471512 -0.496087
O12   O     O_2   0.146097 0.723025 0.407099 -0.467450
C19   C     C_R   0.243147 0.575970 0.366296 -0.178901
H2    H     H_    0.222835 0.615660 0.275767 0.191946
C20   C     C_R   0.302653 0.585536 0.385203 0.190731
C21   C     C_R   0.328232 0.516663 0.494064 -0.248031
C22   C     C_R   0.293373 0.461798 0.597714 0.250394
C23   C     C_R   0.233580 0.469468 0.587318 0.210240
C24   C     C_R   0.208440 0.518387 0.465720 0.197168
C25   C     C_R   0.754567 0.383058 0.428743 0.234124
C26   C     C_R   0.695280 0.383019 0.450923 0.128870
C27   C     C_R   0.670766 0.489985 0.500189 -0.229219
C28   C     C_R   0.705429 0.592516 0.538308 0.210479
C29   C     C_R   0.765093 0.586378 0.532837 0.249819
C30   C     C_R   0.789705 0.483805 0.473159 0.077503
C31   C     C_R   0.495065 0.059484 0.620077 -0.048907
C32   C     C_R   0.501482 0.130989 0.500841 -0.116338
C33   C     C_R   0.510594 0.069571 0.376296 -0.277908
H3    H     H_    0.516614 0.120564 0.280351 0.214505
C34   C     C_R   0.511293 0.941088 0.372805 0.381334
C35   C     C_R   0.502712 0.870678 0.495856 -0.164100
C36   C     C_R   0.496248 0.935504 0.616699 -0.082749
C37   C     C_3   0.483762 0.918197 0.767124 0.408507
C38   C     C_3   0.480154 0.061329 0.771356 0.388464
C39   C     C_R   0.549694 0.491753 0.075879 0.116973
N3    N     N_R   0.500360 0.500930 0.147930 -0.200438
C40   C     C_R   0.450208 0.497083 0.068731 0.339590
C41   C     C_R   0.450912 0.501292 0.921953 -0.013003
H4    H     H_    0.411093 0.504659 0.865217 0.214587
N4    N     N_R   0.500360 0.500890 0.852020 -0.230370
C42   C     C_R   0.549320 0.486323 0.929122 0.222021
C43   C     C_3   0.602330 0.564893 0.917520 0.070985
C44   C     C_3   0.599624 0.582133 0.074370 -0.077646
H5    H     H_    0.595703 0.648032 0.853766 0.134581
H6    H     H_    0.586935 0.675087 0.104434 0.206579
N5    N     N_R   0.943415 0.161822 0.549040 0.181980
O13   O     O_R   0.901263 0.120380 0.471302 -0.224153
O14   O     O_R   0.966657 0.088084 0.638996 -0.259157
N6    N     N_2   0.661493 0.272179 0.435896 -0.413376
H7    H     H_    0.629917 0.259582 0.507990 0.273406
C45   C     C_3   0.641982 0.241582 0.297123 -0.590160
H8    H     H_    0.625045 0.145398 0.296577 0.263770
H9    H     H_    0.677227 0.248791 0.222928 0.235962
H10   H     H_    0.607463 0.302083 0.262437 0.242758
N7    N     N_R   0.679988 0.703768 0.579137 0.135392
O15   O     O_R   0.642406 0.754489 0.498114 -0.411204
O16   O     O_R   0.698273 0.761152 0.689482 -0.279729
N8    N     N_R   0.801006 0.686072 0.583372 0.196666
O17   O     O_R   0.842579 0.664962 0.670633 -0.277531
O18   O     O_R   0.794842 0.796790 0.535086 -0.197379
N9    N     N_R   0.521100 0.885122 0.243600 0.126834
O19   O     O_R   0.478160 0.838089 0.172748 -0.369710
O20   O     O_R   0.570563 0.900954 0.186471 -0.374174
N10   N     N_R   0.429517 0.849298 0.789494 0.122995
O21   O     O_R   0.421508 0.787733 0.904220 -0.357917
O22   O     O_R   0.390440 0.841679 0.691949 -0.387727
N11   N     N_2   0.530839 0.866955 0.847747 -0.441357
H11   H     H_    0.526176 0.872151 0.952656 0.346035
C46   C     C_3   0.589183 0.887424 0.803555 -0.514253
H12   H     H_    0.619128 0.852963 0.884368 0.242774
H13   H     H_    0.599971 0.985610 0.785638 0.271353
H14   H     H_    0.595331 0.837556 0.706657 0.267866
N12   N     N_2   0.423151 0.106369 0.790123 -0.401034
H15   H     H_    0.393122 0.077294 0.717091 0.294235
C47   C     C_3   0.401780 0.105336 0.929700 -0.489641
H16   H     H_    0.356137 0.128728 0.927172 0.230757
H17   H     H_    0.425707 0.174839 0.992449 0.233387
H18   H     H_    0.405602 0.013850 0.979570 0.250465
N13   N     N_R   0.523689 0.124652 0.859132 0.129900
O23   O     O_R   0.562532 0.197377 0.804905 -0.320674
O24   O     O_R   0.525392 0.104753 0.992276 -0.368893
N14   N     N_2   0.396043 0.489417 0.130250 -0.362907
H19   H     H_    0.366814 0.544259 0.081097 0.284115
C48   C     C_3   0.373071 0.365604 0.148438 -0.596247
H20   H     H_    0.361294 0.325778 0.046538 0.237751
H21   H     H_    0.334052 0.366926 0.211360 0.236982
H22   H     H_    0.404455 0.307385 0.203161 0.231401
N15   N     N_R   0.651358 0.496213 0.873309 0.143855
O25   O     O_R   0.700939 0.551901 0.861550 -0.317952
O26   O     O_R   0.646443 0.379837 0.846312 -0.297450
N16   N     N_2   0.648920 0.539999 0.152266 -0.401377
H23   H     H_    0.663401 0.455465 0.126732 0.285291
C49   C     C_3   0.693324 0.632804 0.177701 -0.463852
H24   H     H_    0.730136 0.590994 0.231442 0.212319
H25   H     H_    0.677110 0.705341 0.244135 0.261769
H26   H     H_    0.708090 0.675311 0.079184 0.272327
N17   N     N_R   0.054878 0.817037 0.291487 0.193884
O27   O     O_R   0.086168 0.814663 0.181942 -0.284095
O28   O     O_R   0.045098 0.921632 0.347657 -0.249313
N18   N     N_R   0.935874 0.802143 0.287097 0.192067
O29   O     O_R   0.907601 0.864787 0.374395 -0.182803
O30   O     O_R   0.942180 0.843488 0.161108 -0.241112
N19   N     N_2   0.337212 0.666328 0.300203 -0.395367
H27   H     H_    0.372291 0.705942 0.350459 0.278124
C50   C     C_3   0.310663 0.748730 0.201475 -0.572414
H28   H     H_    0.344151 0.805047 0.148051 0.258389
H29   H     H_    0.282386 0.811139 0.255463 0.248182
H30   H     H_    0.286307 0.695914 0.121054 0.227797
N20   N     N_R   0.318198 0.396585 0.712286 0.117083
O31   O     O_R   0.307557 0.426941 0.838662 -0.423104
O32   O     O_R   0.346980 0.299527 0.690391 -0.375545
N21   N     N_2   0.198023 0.422555 0.695285 -0.391556
H31   H     H_    0.212668 0.347609 0.749373 0.312873
C51   C     C_3   0.175493 0.514919 0.782742 -0.559943
H32   H     H_    0.146071 0.470596 0.858531 0.232976
H33   H     H_    0.151220 0.581943 0.719796 0.237581
H34   H     H_    0.210709 0.563926 0.840196 0.246946
N22   N     N_2   0.779453 0.280479 0.366306 -0.368437
H35   H     H_    0.757680 0.197526 0.379045 0.320216
C52   C     C_3   0.799112 0.301274 0.226316 -0.550330
H36   H     H_    0.815804 0.215176 0.185956 0.267213
H37   H     H_    0.834100 0.372101 0.223717 0.230878
H38   H     H_    0.763790 0.331186 0.157101 0.218970

loop_
_geom_bond_atom_site_label_1
_geom_bond_atom_site_label_2
_geom_bond_distance
_ccdc_geom_bond_type
C52   H38   1.109980 S    
C44   H6    1.112365 S    
N10   O21   1.300911 A    
C31   C32   1.389458 A    
N19   H27   1.031548 S    
N2    C24   1.447844 S    
C7    C10   1.418432 A    
C23   C24   1.410410 A    
C19   C24   1.399221 A    
C8    C9    1.410623 A    
C36   C37   1.495650 S    
C50   H28   1.110914 S    
N1    C30   1.446862 S    
N16   H23   1.030219 S    
N18   O29   1.300716 A    
C34   C35   1.419743 A    
C37   C38   1.569365 S    
Cu1   O7    1.943711 S    
C38   N13   1.473129 S    
C51   H33   1.110659 S    
C15   C16   1.409790 A    
C45   H9    1.105414 S    
C18   O12   1.348352 S    
C34   N9    1.423687 S    
C17   N2    1.370585 A    
N9    O20   1.300486 A    
O2    C1    1.301857 A    
N5    O13   1.301415 A    
N22   C52   1.449437 S    
Cu2   N3    2.041380 S    
C20   C21   1.419847 A    
O7    C4    1.308843 A    
N7    O16   1.301007 A    
N18   O30   1.300965 A    
C52   H36   1.110431 S    
C31   C38   1.509674 S    
C49   H24   1.108389 S    
C41   N4    1.355038 A    
C7    C8    1.415263 A    
N5    O14   1.301334 A    
O5    C3    1.306681 A    
C43   N15   1.470479 S    
C20   N19   1.436595 S    
C35   C36   1.387222 A    
C39   C44   1.504303 S    
N15   O25   1.299476 A    
N1    C6    1.368613 A    
C43   H5    1.103505 S    
C38   N12   1.458258 S    
N12   C47   1.447468 S    
C12   C13   1.406168 A    
N21   H31   1.030438 S    
C25   C30   1.416478 A    
C37   N11   1.462368 S    
C22   N20   1.432603 S    
C17   O11   1.350055 S    
N3    C40   1.390402 A    
N21   C51   1.446359 S    
C10   C11   1.398400 A    
C48   H21   1.110153 S    
N13   O23   1.300159 A    
O3    Cu1   1.935055 S    
N8    O18   1.301444 A    
C1    C32   1.445373 S    
N17   O28   1.301253 A    
N8    O17   1.301172 A    
C4    C27   1.466016 S    
Cu1   O5    1.977368 S    
C11   C12   1.401329 A    
C39   C42   1.419022 A    
C5    C9    1.410875 A    
C51   H34   1.111149 S    
C45   H8    1.109172 S    
C33   H3    1.083104 S    
Cu1   Cu2   2.716655 S    
N9    O19   1.300606 A    
N6    C45   1.446859 S    
C21   C22   1.417918 A    
C28   N7    1.436842 S    
C16   N18   1.433918 S    
N7    O15   1.301024 A    
N20   O31   1.300600 A    
C37   N10   1.473148 S    
C32   C33   1.409222 A    
C39   N3    1.370761 A    
C31   C36   1.355848 A    
C45   H10   1.107867 S    
C46   H14   1.103922 S    
C10   N5    1.436740 S    
C40   C41   1.417810 A    
O1    C1    1.302580 A    
C25   C26   1.412519 A    
N2    C18   1.373052 A    
N14   C48   1.446538 S    
N11   C46   1.451451 S    
C29   C30   1.414224 A    
Cu2   O8    1.935055 S    
N12   H15   1.031798 S    
C46   H13   1.104444 S    
C6    C7    1.407756 A    
N15   O26   1.301249 A    
C12   C17   1.399073 A    
C13   C14   1.410647 A    
N13   O24   1.300878 A    
Cu1   N4    2.040837 S    
O3    C2    1.308893 A    
C22   C23   1.410729 A    
O8    C4    1.300847 A    
C43   C44   1.531786 S    
C47   H17   1.107376 S    
N10   O22   1.302663 A    
C48   H22   1.111395 S    
C25   N22   1.428712 S    
C48   H20   1.107207 S    
C50   H30   1.110315 S    
C23   N21   1.426481 S    
N17   O27   1.301220 A    
C3    C35   1.455911 S    
C51   H32   1.110288 S    
C14   C18   1.415289 A    
C52   H37   1.107570 S    
C11   H1    1.083576 S    
C28   C29   1.406854 A    
C19   H2    1.080142 S    
N19   C50   1.448907 S    
C44   N16   1.452747 S    
O1    Cu1   1.983319 S    
Cu2   O6    1.983318 S    
O2    Cu2   1.977368 S    
C26   C27   1.413580 A    
C15   N17   1.435169 S    
N6    H7    1.031454 S    
O6    C3    1.301816 A    
C50   H29   1.111076 S    
O4    Cu2   1.943716 S    
N16   C49   1.446515 S    
C5    O9    1.348378 S    
C9    C16   1.418486 A    
C47   H18   1.108523 S    
N14   H19   1.031295 S    
C49   H26   1.108843 S    
C42   C43   1.490416 S    
C19   C20   1.405377 A    
C8    C13   1.410519 A    
C14   C15   1.417862 A    
N22   H35   1.030511 S    
N11   H11   1.023741 S    
O4    C2    1.311164 A    
C46   H12   1.110565 S    
C49   H25   1.109250 S    
C26   N6    1.429785 S    
C29   N8    1.436789 S    
C41   H4    1.075332 S    
N4    C42   1.369587 A    
C27   C28   1.408252 A    
N20   O32   1.299766 A    
C47   H16   1.110362 S    
C6    O10   1.348745 S    
C2    C21   1.485991 S    
C33   C34   1.404442 A    
C40   N14   1.413659 S    
C5    N1    1.370686 A    
