data_mof_unit_63670.cif
_audit_creation_date              2012-12-10T20:48:19-0500
_audit_creation_method            fapswitch 2.2
_symmetry_space_group_name_H-M    P1
_symmetry_Int_Tables_number       1
_space_group_crystal_system       triclinic
_cell_length_a                    16.032402
_cell_length_b                    19.243525
_cell_length_c                    19.226192
_cell_angle_alpha                 94.752342
_cell_angle_beta                  94.953061
_cell_angle_gamma                 90.352326
_cell_volume                      5888.66832588

loop_
_atom_site_label
_atom_site_type_symbol
_atom_type_description
_atom_site_fract_x
_atom_site_fract_y
_atom_site_fract_z
_atom_type_partial_charge
C1    C     C_R   0.509069 0.310704 0.492717 0.508481
C2    C     C_R   0.407295 0.800363 0.516138 0.213428
C3    C     C_R   0.452739 0.119259 0.460595 -0.088647
C4    C     C_R   0.490198 0.689274 0.506396 0.539390
C5    C     C_R   0.448097 0.191589 0.459282 -0.151722
C6    C     C_R   0.524653 0.088890 0.492471 0.225475
C7    C     C_R   0.514563 0.234384 0.490320 0.029604
C8    C     C_R   0.586642 0.203796 0.520716 -0.144273
C9    C     C_R   0.591813 0.131647 0.520972 -0.108995
C10   C     C_R   0.491757 0.486985 0.233188 0.029456
C11   C     C_R   0.529216 0.540278 0.200623 -0.147615
C12   C     C_1   0.111095 0.483110 0.482994 -0.031894
C13   C     C_R   0.531933 0.535269 0.128243 -0.089308
C14   C     C_R   0.497258 0.476456 0.086900 0.224777
C15   C     C_R   0.460949 0.422907 0.119544 -0.108152
C16   C     C_R   0.508577 0.508237 0.690119 0.506401
C17   C     C_R   0.457344 0.428306 0.192104 -0.145174
C18   C     C_R   0.540935 0.460631 0.876924 -0.089787
C19   C     C_R   0.542872 0.457400 0.804268 -0.149907
C20   C     C_R   0.507841 0.519532 0.913019 0.224287
C21   C     C_R   0.510936 0.512371 0.766842 0.030039
C22   C     C_R   0.479236 0.571345 0.803155 -0.140946
C23   C     C_1   0.888869 0.517570 0.517815 -0.039607
C24   C     C_R   0.478832 0.575127 0.875742 -0.106018
C25   C     C_R   0.491758 0.491846 0.309908 0.512596
C26   C     C_R   0.724036 0.509959 0.509991 0.504291
C27   C     C_R   0.275924 0.490167 0.490180 0.513855
C28   C     C_1   0.813581 0.514128 0.514287 0.020080
C29   C     C_2   0.978814 0.521438 0.521769 -0.112457
C30   C     C_2   0.021154 0.479308 0.479114 -0.118314
C31   C     C_1   0.186382 0.486361 0.486309 0.032527
C32   C     C_R   0.483125 0.765447 0.505668 0.038421
C33   C     C_R   0.553053 0.803855 0.490630 -0.190965
C34   C     C_R   0.548402 0.875601 0.486587 -0.103716
C35   C     C_R   0.472975 0.910608 0.497177 0.182898
C36   C     C_R   0.402983 0.872362 0.511415 -0.068601
Cl1   Cl    Cl    0.314716 0.756239 0.531164 -0.566932
H1    H     H_    0.611698 0.778238 0.481946 0.142615
H2    H     H_    0.392069 0.214062 0.435282 0.136565
H3    H     H_    0.400434 0.087298 0.436750 0.141111
H4    H     H_    0.639182 0.235677 0.544316 0.139849
H5    H     H_    0.603576 0.903311 0.474419 0.151295
H6    H     H_    0.988456 0.441613 0.440926 0.136877
H7    H     H_    0.567834 0.411523 0.777274 0.136605
H8    H     H_    0.344579 0.898888 0.518756 0.157636
H9    H     H_    0.647769 0.108921 0.544821 0.124822
H10   H     H_    0.565620 0.417542 0.904794 0.139003
H11   H     H_    0.434723 0.377149 0.088526 0.125376
H12   H     H_    0.428857 0.386170 0.216108 0.139640
H13   H     H_    0.455038 0.614725 0.775434 0.146723
H14   H     H_    0.561951 0.577017 0.104819 0.140686
H15   H     H_    0.454376 0.621056 0.903039 0.128534
H16   H     H_    0.556615 0.585916 0.231107 0.142046
H17   H     H_    0.011488 0.559141 0.559962 0.149916
N1    N     N_2   0.464480 0.983615 0.492826 -0.241050
N2    N     N_2   0.532562 0.015945 0.496358 -0.243533
N3    N     N_2   0.499222 0.469053 0.012966 -0.244528
N4    N     N_2   0.504883 0.525838 0.986689 -0.247176
O1    O     O_3   0.500000 0.500000 0.500000 -0.445368
O2    O     O_R   0.688130 0.469010 0.547620 -0.537596
O3    O     O_R   0.315580 0.449250 0.449280 -0.541252
O4    O     O_R   0.680710 0.547310 0.468650 -0.537014
O5    O     O_R   0.315580 0.534430 0.534450 -0.510137
O6    O     O_R   0.456860 0.545290 0.655940 -0.541237
O7    O     O_R   0.446440 0.450430 0.339790 -0.542256
O8    O     O_R   0.557290 0.347960 0.537250 -0.545735
O9    O     O_R   0.539410 0.656320 0.467010 -0.553964
O10   O     O_R   0.456880 0.340240 0.450910 -0.544357
O11   O     O_R   0.446420 0.655480 0.544820 -0.479646
O12   O     O_R   0.557280 0.467820 0.657110 -0.543378
O13   O     O_R   0.539420 0.536460 0.347160 -0.542574
Zn1   Zn    Zn3+2 0.430910 0.557800 0.557800 0.996492
Zn2   Zn    Zn3+2 0.574380 0.447110 0.559460 0.939132
Zn3   Zn    Zn3+2 0.563780 0.559000 0.446630 0.947024
Zn4   Zn    Zn3+2 0.430930 0.436090 0.436110 0.945878

loop_
_geom_bond_atom_site_label_1
_geom_bond_atom_site_label_2
_ccdc_geom_bond_type
C24   H15   S    
N1    N2    D    
C16   C21   S    
C35   C36   A    
C34   H5    S    
C3    C6    A    
C18   H10   S    
C6    C9    A    
C7    C8    A    
O3    Zn4   S    
O10   Zn4   S    
C23   C29   S    
C19   C21   A    
C34   C35   A    
C29   H17   S    
C10   C17   A    
O2    Zn2   S    
C1    O10   A    
C2    C32   A    
C18   C19   A    
C27   O3    A    
C13   H14   S    
C20   C24   A    
C8    C9    A    
C25   O13   A    
O1    Zn2   S    
C11   H16   S    
O1    Zn1   S    
C22   H13   S    
C9    H9    S    
C13   C14   A    
C15   H11   S    
C4    O11   A    
C1    O8    A    
C27   C31   S    
C25   O7    A    
C8    H4    S    
C17   H12   S    
C5    C7    A    
O8    Zn2   S    
C35   N1    S    
O11   Zn1   S    
C29   C30   D    
O13   Zn3   S    
O12   Zn2   S    
C33   C34   A    
C16   O12   A    
C36   H8    S    
O9    Zn3   S    
C23   C28   T    
O1    Zn3   S    
C4    C32   S    
C27   O5    A    
C10   C25   S    
C3    H3    S    
C5    H2    S    
C12   C31   T    
C22   C24   A    
C30   H6    S    
C20   N4    S    
O1    Zn4   S    
C19   H7    S    
C2    C36   A    
C15   C17   A    
C14   N3    S    
C12   C30   S    
C1    C7    S    
C6    N2    S    
C3    C5    A    
C4    O9    A    
C26   C28   S    
C33   H1    S    
O7    Zn4   S    
C32   C33   A    
C26   O4    A    
C11   C13   A    
C2    Cl1   S    
N3    N4    D    
C18   C20   A    
O6    Zn1   S    
C10   C11   A    
O5    Zn1   S    
C14   C15   A    
O4    Zn3   S    
C16   O6    A    
C21   C22   A    
C26   O2    A    
