data_mof_unit_50817.cif
_audit_creation_date              2012-12-10T17:35:47-0500
_audit_creation_method            fapswitch 2.2
_symmetry_space_group_name_H-M    P1
_symmetry_Int_Tables_number       1
_space_group_crystal_system       triclinic
_cell_length_a                    10.530687
_cell_length_b                    11.99949
_cell_length_c                    12.882111
_cell_angle_alpha                 93.472714
_cell_angle_beta                  90.17809
_cell_angle_gamma                 87.121036
_cell_volume                      1622.78072863

loop_
_atom_site_label
_atom_site_type_symbol
_atom_type_description
_atom_site_fract_x
_atom_site_fract_y
_atom_site_fract_z
_atom_type_partial_charge
C1    C     C_R   0.499095 0.522189 0.700325 0.892076
C2    C     C_R   0.606525 0.163609 0.588597 -0.006617
C3    C     C_R   0.550296 0.858779 0.542345 -0.023453
C4    C     C_R   0.449704 0.141220 0.457655 -0.023453
C5    C     C_R   0.542973 0.976301 0.535899 0.019370
C6    C     C_R   0.457027 0.023699 0.464101 0.019370
C7    C     C_R   0.742276 0.501208 0.500127 0.887658
C8    C     C_R   0.257724 0.498792 0.499873 0.887658
C9    C     C_3   0.958575 0.458387 0.588791 -0.274378
C10   C     C_3   0.041425 0.541613 0.411209 -0.274379
C11   C     C_3   0.039648 0.561468 0.582199 -0.011770
C12   C     C_R   0.500905 0.477811 0.299674 0.892076
C13   C     C_3   0.960352 0.438532 0.417801 -0.011770
C14   C     C_3   0.123358 0.496655 0.500188 -0.086609
C15   C     C_3   0.876642 0.503345 0.499812 -0.086609
C16   C     C_3   0.043393 0.394050 0.505454 0.014289
C17   C     C_3   0.956607 0.605950 0.494546 0.014289
C18   C     C_R   0.502944 0.464145 0.188421 -0.075689
C19   C     C_R   0.497056 0.535855 0.811579 -0.075688
C20   C     C_R   0.438671 0.643975 0.968882 0.003055
C21   C     C_R   0.561329 0.356025 0.031118 0.003055
C22   C     C_R   0.450084 0.635744 0.861593 -0.216091
C23   C     C_R   0.536784 0.444709 0.867363 -0.261523
C24   C     C_R   0.549916 0.364255 0.138406 -0.216091
C25   C     C_1   0.086902 0.628027 0.672343 0.179435
C26   C     C_1   0.913097 0.371973 0.327657 0.179435
C27   C     C_1   0.090861 0.277415 0.511486 0.210194
C28   C     C_1   0.909139 0.722585 0.488514 0.210194
C29   C     C_1   0.388456 0.748640 0.017871 0.157263
C30   C     C_1   0.611544 0.251360 0.982129 0.157263
C31   C     C_1   0.291607 0.994727 0.326725 0.163957
C32   C     C_1   0.708393 0.005273 0.673275 0.163957
C33   C     C_R   0.463216 0.555291 0.132637 -0.261523
C34   C     C_R   0.525070 0.449622 0.974309 0.112957
C35   C     C_R   0.474930 0.550378 0.025691 0.112957
C36   C     C_R   0.381523 0.952222 0.401367 -0.088625
C37   C     C_R   0.618477 0.047778 0.598633 -0.088625
C38   C     C_R   0.393475 0.836391 0.411403 -0.006617
H1    H     H_    0.921337 0.425239 0.660741 0.155980
H2    H     H_    0.336257 0.780787 0.363758 0.136160
H3    H     H_    0.078662 0.574761 0.339259 0.155981
H4    H     H_    0.424551 0.630999 0.173443 0.167765
H5    H     H_    0.575449 0.369001 0.826557 0.167765
H6    H     H_    0.580409 0.293856 0.183001 0.176847
H7    H     H_    0.419591 0.706144 0.816999 0.176848
H8    H     H_    0.385304 0.180546 0.403695 0.143366
H9    H     H_    0.614696 0.819454 0.596305 0.143366
H10   H     H_    0.663743 0.219213 0.636242 0.136160
N1    N     N_R   0.523490 0.207800 0.519350 -0.112906
N2    N     N_1   0.780470 0.971221 0.733047 -0.165771
N3    N     N_R   0.476510 0.792200 0.480650 -0.112906
N4    N     N_1   0.124339 0.680399 0.743293 -0.188964
N5    N     N_1   0.875661 0.319601 0.256707 -0.188964
N6    N     N_1   0.128068 0.185497 0.516310 -0.193400
N7    N     N_1   0.871932 0.814503 0.483689 -0.193400
N8    N     N_1   0.348325 0.832348 0.057046 -0.178295
N9    N     N_1   0.651675 0.167652 0.942954 -0.178295
N10   N     N_1   0.219530 0.028779 0.266953 -0.165771
O1    O     O_R   0.506270 0.421700 0.658830 -0.627529
O2    O     O_R   0.493730 0.578300 0.341170 -0.627529
O3    O     O_R   0.491200 0.609310 0.646410 -0.625278
O4    O     O_R   0.508800 0.390690 0.353590 -0.625277
O5    O     O_R   0.693580 0.406210 0.506230 -0.621076
O6    O     O_R   0.306420 0.593790 0.493770 -0.621077
O7    O     O_R   0.678510 0.593830 0.493810 -0.621671
O8    O     O_R   0.321490 0.406170 0.506190 -0.621671
Zn1   Zn    Zn3+2 0.510060 0.374730 0.508290 0.959272
Zn2   Zn    Zn3+2 0.489940 0.625270 0.491710 0.959272

loop_
_geom_bond_atom_site_label_1
_geom_bond_atom_site_label_2
_ccdc_geom_bond_type
C19   C23   A    
C26   N5    T    
C8    O8    A    
C19   C22   A    
C21   C34   A    
C2    N1    A    
C5    C37   A    
C7    O7    A    
C12   O4    A    
C21   C30   S    
C2    H10   S    
C2    C37   A    
C13   C15   S    
C4    N1    A    
N3    Zn2   S    
O7    Zn2   S    
C32   N2    T    
C23   C34   A    
C16   C27   S    
C36   C38   A    
O8    Zn1   S    
C9    C15   S    
C27   N6    T    
C4    H8    S    
C32   C37   S    
C10   H3    S    
C38   H2    S    
C21   C24   A    
C9    C11   S    
O3    Zn2   S    
C7    O5    A    
O4    Zn1   S    
C8    O6    A    
C18   C24   A    
C33   H4    S    
O6    Zn2   S    
C31   N10   T    
C7    C15   S    
C29   N8    T    
C9    C16   S    
C6    C36   A    
O5    Zn1   S    
C20   C29   S    
C1    O1    A    
C5    C6    A    
C33   C35   A    
C11   C14   S    
C14   C16   S    
C13   C26   S    
C25   N4    T    
C1    C19   S    
C18   C33   A    
C11   C25   S    
C10   C17   S    
C12   C18   S    
C12   O2    A    
C30   N9    T    
C9    H1    S    
C22   H7    S    
C23   H5    S    
C24   H6    S    
O2    Zn2   S    
C4    C6    A    
C34   C35   A    
C10   C14   S    
C13   C16   S    
C3    H9    S    
C15   C17   S    
C3    N3    A    
C31   C36   S    
C11   C17   S    
C8    C14   S    
C38   N3    A    
N1    Zn1   S    
O1    Zn1   S    
C20   C35   A    
C28   N7    T    
C17   C28   S    
C20   C22   A    
C3    C5    A    
C10   C13   S    
C1    O3    A    
