data_mof_unit_19151.cif
_audit_creation_date              2012-12-11T17:09:29-0500
_audit_creation_method            fapswitch 2.2
_symmetry_space_group_name_H-M    P1
_symmetry_Int_Tables_number       1
_space_group_crystal_system       monoclinic
_cell_length_a                    14.806733
_cell_length_b                    6.930385
_cell_length_c                    13.505595
_cell_angle_alpha                 90.0
_cell_angle_beta                  99.805782
_cell_angle_gamma                 90.0
_cell_volume                      1365.64806975

loop_
_atom_site_label
_atom_site_type_symbol
_atom_type_description
_atom_site_fract_x
_atom_site_fract_y
_atom_site_fract_z
_atom_type_partial_charge
O1    O     O_R   0.586930 0.505770 0.416350 -0.540661
O2    O     O_R   0.413070 0.005770 0.583650 -0.540661
O3    O     O_R   0.397900 0.173100 0.389630 -0.535518
O4    O     O_R   0.602100 0.673100 0.610370 -0.535518
C1    C     C_R   0.364298 0.345427 0.362816 0.725564
C2    C     C_R   0.635702 0.845427 0.637183 0.725564
O5    O     O_R   0.585280 0.175870 0.404330 -0.540629
O6    O     O_R   0.414720 0.675870 0.595670 -0.540629
O7    O     O_R   0.601790 0.008380 0.598460 -0.535160
O8    O     O_R   0.398210 0.508380 0.401540 -0.535160
C3    C     C_R   0.614350 0.344765 0.382397 0.699891
C4    C     C_R   0.385650 0.844765 0.617603 0.699891
O9    O     O_3   0.505200 0.340120 0.563670 -0.369947
O10   O     O_3   0.494800 0.840120 0.436330 -0.369947
V1    V     V_3+5 0.499040 0.064180 0.488190 1.399532
V2    V     V_3+5 0.500960 0.564180 0.511810 1.399532
C5    C     C_R   0.320538 0.001897 0.758568 0.101939
C6    C     C_R   0.679462 0.501897 0.241432 0.101939
C7    C     C_R   0.319628 0.852197 0.688609 -0.138815
C8    C     C_R   0.680372 0.352197 0.311391 -0.138816
C9    C     C_R   0.255115 0.703254 0.690882 -0.175410
C10   C     C_R   0.744885 0.203254 0.309118 -0.175410
H1    H     H_    0.252633 0.582795 0.639620 0.123771
H2    H     H_    0.747367 0.082795 0.360380 0.123771
C11   C     C_R   0.188974 0.714810 0.754509 -0.176898
C12   C     C_R   0.811026 0.214810 0.245491 -0.176898
H3    H     H_    0.137977 0.602141 0.751035 0.123918
H4    H     H_    0.862023 0.102141 0.248965 0.123918
C13   C     C_R   0.184806 0.876612 0.816853 -0.105739
C14   C     C_R   0.815193 0.376613 0.183146 -0.105739
C15   C     C_R   0.254336 0.014484 0.820252 0.059086
C16   C     C_R   0.745664 0.514484 0.179748 0.059086
C17   C     C_3   0.249003 0.228776 0.811568 -0.401003
C18   C     C_3   0.750996 0.728776 0.188432 -0.401003
C19   C     C_3   0.322637 0.215562 0.745185 -0.028785
C20   C     C_3   0.677362 0.715562 0.254815 -0.028785
H5    H     H_    0.271164 0.301379 0.885133 0.175515
H6    H     H_    0.728836 0.801379 0.114866 0.175515
H7    H     H_    0.181489 0.276544 0.769977 0.149473
H8    H     H_    0.818511 0.776544 0.230023 0.149473
H9    H     H_    0.298794 0.260095 0.665991 0.139319
H10   H     H_    0.701206 0.760095 0.334009 0.139319
C21   C     C_1   0.783429 0.877122 0.782910 -0.192523
C22   C     C_1   0.216571 0.377122 0.217090 -0.192523
C23   C     C_1   0.716148 0.860138 0.716854 -0.190785
C24   C     C_1   0.283852 0.360138 0.283146 -0.190785
O11   O     O_R   0.101720 0.231700 0.098560 -0.535603
O12   O     O_R   0.898280 0.731700 0.901440 -0.535603
O13   O     O_R   0.914700 0.558980 0.095690 -0.541160
O14   O     O_R   0.085300 0.058980 0.904310 -0.541161
C25   C     C_R   0.885514 0.389715 0.117415 0.698775
C26   C     C_R   0.114486 0.889715 0.882585 0.698775
O15   O     O_R   0.102080 0.561590 0.110390 -0.536916
O16   O     O_R   0.897920 0.061590 0.889610 -0.536916
O17   O     O_R   0.086950 0.728940 0.916330 -0.540369
O18   O     O_R   0.913050 0.228940 0.083670 -0.540369
C27   C     C_R   0.136104 0.391915 0.137441 0.732585
C28   C     C_R   0.863896 0.891915 0.862559 0.732586
O19   O     O_3   0.994770 0.394510 0.936380 -0.369517
O20   O     O_3   0.005230 0.894510 0.063620 -0.369517
V3    V     V_3+5 0.000970 0.670520 0.011800 1.411169
V4    V     V_3+5 0.999030 0.170520 0.988200 1.411169
C29   C     C_3   0.414652 0.303631 0.792700 -0.718765
H11   H     H_    0.409071 0.463309 0.792586 0.214324
H12   H     H_    0.435977 0.253390 0.871391 0.198330
H13   H     H_    0.468285 0.261635 0.748643 0.221013
C30   C     C_3   0.585348 0.803631 0.207300 -0.718765
H14   H     H_    0.590928 0.963309 0.207414 0.214324
H15   H     H_    0.564023 0.753390 0.128609 0.198330
H16   H     H_    0.531715 0.761635 0.251357 0.221013

loop_
_geom_bond_atom_site_label_1
_geom_bond_atom_site_label_2
_ccdc_geom_bond_type
C14   C25   S    
C29   H12   S    
C2    C23   S    
C20   H10   S    
O1    C3    A    
O2    C4    A    
O11   V4    S    
C20   C30   S    
O5    C3    A    
C17   H7    S    
C18   H8    S    
C10   H2    S    
C7    C9    A    
O20   V4    S    
C25   O18   A    
C21   C28   S    
C5    C7    A    
O15   V3    S    
O13   C25   A    
O14   C26   A    
C15   C17   S    
O10   V2    S    
C6    C8    A    
C26   O17   A    
O5    V1    S    
C29   H13   S    
O6    V2    S    
C2    O7    A    
C22   C24   T    
C11   C13   A    
C3    C8    S    
O19   V3    S    
O13   V3    S    
C30   H14   S    
O4    C2    A    
O15   C27   A    
O16   V4    S    
C17   H5    S    
O20   V3    S    
C30   H15   S    
C16   C18   S    
O4    V2    S    
O11   C27   A    
C22   C27   S    
O6    C4    A    
O1    V2    S    
O2    V1    S    
C21   C23   T    
C8    C10   A    
C12   C14   A    
O9    V1    S    
O14   V4    S    
O18   V4    S    
C6    C16   A    
O3    V1    S    
O16   C28   A    
C9    C11   A    
O19   V4    S    
C18   H6    S    
O3    C1    A    
O12   C28   A    
C11   H3    S    
C1    C24   S    
C12   H4    S    
C30   H16   S    
C9    H1    S    
O7    V1    S    
C1    O8    A    
C13   C15   A    
O8    V2    S    
C14   C16   A    
O12   V3    S    
C5    C15   A    
O17   V3    S    
C4    C7    S    
C17   C19   S    
C18   C20   S    
C19   H9    S    
C29   H11   S    
C10   C12   A    
O9    V2    S    
O10   V1    S    
C19   C29   S    
C5    C19   S    
C6    C20   S    
C13   C26   S    
