data_mof_unit_58994.cif
_audit_creation_date              2012-12-11T16:26:30-0500
_audit_creation_method            fapswitch 2.2
_symmetry_space_group_name_H-M    P1
_symmetry_Int_Tables_number       1
_space_group_crystal_system       triclinic
_cell_length_a                    13.966733
_cell_length_b                    13.966345
_cell_length_c                    31.941386
_cell_angle_alpha                 90.05541
_cell_angle_beta                  90.004995
_cell_angle_gamma                 120.028577
_cell_volume                      5394.31813944

loop_
_atom_site_label
_atom_site_type_symbol
_atom_type_description
_atom_site_fract_x
_atom_site_fract_y
_atom_site_fract_z
_atom_type_partial_charge
C1    C     C_R   0.567617 0.443782 0.810595 0.537288
C2    C     C_R   0.444165 0.567438 0.189584 0.562009
C3    C     C_3   0.381284 0.189339 0.311101 -0.362870
C4    C     C_3   0.720098 0.714992 0.150542 -0.001442
C5    C     C_3   0.804308 0.772302 0.185302 -0.352019
C6    C     C_3   0.853722 0.358831 0.319467 0.017013
C7    C     C_3   0.768737 0.245504 0.302850 -0.349928
C8    C     C_3   0.501128 0.147234 0.183601 -0.019076
C9    C     C_3   0.468746 0.229446 0.199889 -0.365856
C10   C     C_3   0.645833 0.502109 0.312129 0.018049
C11   C     C_3   0.748005 0.544856 0.284636 -0.342165
C12   C     C_3   0.324239 0.867305 0.675601 0.017174
C13   C     C_R   0.432839 0.877067 0.310404 0.542613
C14   C     C_3   0.205549 0.804701 0.691237 -0.333922
C15   C     C_3   0.138749 0.460290 0.825033 -0.018318
C16   C     C_3   0.210549 0.408569 0.817096 -0.369708
C17   C     C_3   0.506024 0.646760 0.676675 0.017860
C18   C     C_3   0.538543 0.761394 0.693031 -0.343695
C19   C     C_3   0.350289 0.857644 0.821063 0.016495
C20   C     C_3   0.234678 0.775965 0.805427 -0.342547
C21   C     C_3   0.142257 0.489097 0.682242 -0.014769
C22   C     C_3   0.210536 0.446352 0.703746 -0.372496
C23   C     C_3   0.538473 0.669895 0.825350 0.017640
C24   C     C_R   0.123029 0.555741 0.189570 0.537511
C25   C     C_3   0.591095 0.787448 0.808708 -0.337182
C26   C     C_2   0.914627 0.313471 0.066691 0.267013
C27   C     C_2   0.405172 0.095660 0.429615 0.232821
C28   C     C_2   0.681773 0.533014 0.078462 0.228436
C29   C     C_2   0.883291 0.318534 0.428922 0.259726
C30   C     C_2   0.442380 0.130243 0.076629 0.242412
C31   C     C_2   0.692016 0.556980 0.422931 0.246054
C32   C     C_2   0.316562 0.912239 0.566323 0.264600
C33   C     C_2   0.096291 0.409422 0.930161 0.231510
C34   C     C_2   0.582355 0.679726 0.567342 0.251829
C35   C     C_1   0.001503 0.518281 0.018936 0.017438
C36   C     C_2   0.317359 0.894789 0.930738 0.256495
C37   C     C_2   0.119924 0.430659 0.574848 0.236138
C38   C     C_2   0.598341 0.679797 0.935169 0.254397
C39   C     C_1   0.519102 0.003052 0.480551 0.050047
C40   C     C_1   0.490238 0.475688 0.020561 0.077335
C41   C     C_1   0.008785 0.514036 0.481872 -0.000250
C42   C     C_1   0.512872 0.005538 0.019805 0.053915
C43   C     C_1   0.500657 0.483696 0.478724 -0.017979
C44   C     C_1   0.521679 0.008575 0.518061 0.000990
C45   C     C_R   0.876500 0.432547 0.689613 0.543844
C46   C     C_1   0.995764 0.515478 0.981437 0.062501
C47   C     C_1   0.506129 0.480475 0.516130 -0.019225
C48   C     C_1   0.516305 0.013674 0.982400 0.002035
C49   C     C_1   0.000732 0.510083 0.519275 0.052889
C50   C     C_1   0.495100 0.473784 0.983106 0.021053
C51   C     C_R   0.930090 0.471758 0.851669 -0.000759
C52   C     C_R   0.541834 0.070720 0.648117 -0.021494
C53   C     C_R   0.530845 0.456535 0.852443 -0.019649
C54   C     C_R   0.928854 0.470631 0.648437 0.004629
C55   C     C_R   0.543335 0.074708 0.852280 -0.016279
C56   C     C_R   0.556133 0.123673 0.810467 0.537209
C57   C     C_R   0.533689 0.455349 0.646985 -0.019466
C58   C     C_R   0.472850 0.932976 0.351185 -0.000897
C59   C     C_R   0.068087 0.540038 0.148593 -0.015814
C60   C     C_R   0.460135 0.527137 0.350672 -0.015989
C61   C     C_R   0.471174 0.929441 0.148612 0.012059
C62   C     C_R   0.074338 0.543462 0.352137 -0.010277
C63   C     C_R   0.459233 0.528988 0.148483 0.013570
C64   C     C_R   0.898646 0.534966 0.876150 -0.168957
C65   C     C_R   0.636830 0.101556 0.623954 -0.172554
C66   C     C_R   0.470387 0.360878 0.876688 -0.183612
C67   C     C_R   0.567840 0.443627 0.689362 0.535553
C68   C     C_R   0.887574 0.521664 0.622035 -0.172863
C69   C     C_R   0.636775 0.119068 0.878285 -0.172821
C70   C     C_R   0.487848 0.361769 0.621004 -0.179172
C71   C     C_R   0.540992 0.907201 0.375249 -0.170080
C72   C     C_R   0.093646 0.634318 0.124803 -0.185762
C73   C     C_R   0.369674 0.477634 0.377959 -0.185102
C74   C     C_R   0.518526 0.885428 0.121654 -0.181015
C75   C     C_R   0.121717 0.635836 0.378693 -0.164731
C76   C     C_R   0.366738 0.476805 0.122144 -0.180365
C77   C     C_R   0.926592 0.553509 0.918181 -0.128351
C78   C     C_R   0.876814 0.432788 0.810450 0.542991
C79   C     C_R   0.628074 0.075140 0.581793 -0.118988
C80   C     C_R   0.455770 0.368644 0.919156 -0.128008
C81   C     C_R   0.916848 0.538498 0.580170 -0.145807
C82   C     C_R   0.626233 0.094282 0.920550 -0.119262
C83   C     C_R   0.476565 0.371729 0.578432 -0.129490
C84   C     C_R   0.560613 0.937079 0.417116 -0.132940
C85   C     C_R   0.065302 0.624823 0.082811 -0.141346
C86   C     C_R   0.384405 0.458814 0.419345 -0.131728
C87   C     C_R   0.536546 0.916219 0.079961 -0.151771
C88   C     C_R   0.095255 0.624741 0.420798 -0.116560
C89   C     C_R   0.556007 0.123388 0.689484 0.534253
C90   C     C_R   0.378508 0.455950 0.080677 -0.156761
C91   C     C_R   0.986664 0.509701 0.936697 0.013138
C92   C     C_R   0.524523 0.017570 0.562823 -0.035461
C93   C     C_R   0.500965 0.471830 0.938345 -0.040010
C94   C     C_R   0.988202 0.505270 0.563830 0.012805
C95   C     C_R   0.522370 0.024885 0.937763 -0.037017
C96   C     C_R   0.510702 0.475138 0.560860 -0.042166
C97   C     C_R   0.513215 0.993721 0.435809 0.016804
C98   C     C_R   0.011139 0.521254 0.063668 -0.033631
C99   C     C_R   0.489522 0.488829 0.434294 -0.039100
C100  C     C_R   0.444227 0.567142 0.310206 0.545988
C101  C     C_R   0.508030 0.991766 0.064311 0.014923
C102  C     C_R   0.021142 0.521349 0.437294 -0.032164
C103  C     C_R   0.481841 0.481809 0.065059 0.013127
C104  C     C_R   0.027542 0.453426 0.912109 0.031660
C105  C     C_R   0.426833 0.977631 0.586854 0.032654
C106  C     C_R   0.554815 0.570022 0.914353 0.030088
C107  C     C_R   0.038397 0.461672 0.590413 0.034960
C108  C     C_R   0.427258 0.972530 0.911998 0.031913
C109  C     C_R   0.550497 0.570340 0.586484 0.031398
C110  C     C_R   0.452477 0.029824 0.411477 0.032358
C111  C     C_R   0.432773 0.876834 0.189710 0.547553
C112  C     C_R   0.976217 0.423921 0.087406 0.033294
C113  C     C_R   0.581210 0.530643 0.406800 0.030880
C114  C     C_R   0.468064 0.044328 0.091454 0.033552
C115  C     C_R   0.965980 0.427649 0.410943 0.039575
C116  C     C_R   0.574866 0.523046 0.092004 0.023376
C117  C     C_R   0.000198 0.436343 0.869059 0.218575
C118  C     C_R   0.436253 0.002443 0.630252 0.275703
C119  C     C_R   0.567338 0.561544 0.870666 0.277852
C120  C     C_R   0.008967 0.445841 0.633255 0.218415
C121  C     C_R   0.438914 0.996269 0.868517 0.280136
C122  C     C_R   0.123508 0.556109 0.310403 0.536103
C123  C     C_R   0.559790 0.559296 0.630231 0.279154
C124  C     C_R   0.433914 0.000227 0.368651 0.216746
C125  C     C_R   0.002705 0.433912 0.130642 0.275132
C126  C     C_R   0.565206 0.547783 0.364182 0.277984
C127  C     C_R   0.450929 0.013197 0.134134 0.218782
C128  C     C_R   0.991668 0.439986 0.367610 0.284415
C129  C     C_R   0.564319 0.553238 0.133468 0.205685
C130  C     C_3   0.869142 0.314014 0.174838 0.020687
C131  C     C_3   0.814914 0.195941 0.191068 -0.340069
C132  C     C_3   0.445290 0.132647 0.324278 -0.017823
Cr1   Cr    Cr6+3 0.504240 0.249200 0.750000 1.043142
Cr2   Cr    Cr6+3 0.744960 0.495760 0.750000 1.045694
Cr3   Cr    Cr6+3 0.750800 0.255040 0.750000 1.043963
Cr4   Cr    Cr6+3 0.249200 0.504240 0.250000 1.044764
Cr5   Cr    Cr6+3 0.495760 0.744960 0.250000 1.015978
Cr6   Cr    Cr6+3 0.255040 0.750800 0.250000 1.040220
H1    H     H_    0.845809 0.564188 0.863589 0.171888
H2    H     H_    0.535056 0.821353 0.132123 0.133829
H3    H     H_    0.184839 0.716122 0.367462 0.160253
H4    H     H_    0.285754 0.458901 0.132792 0.167490
H5    H     H_    0.091352 0.699331 0.064606 0.142154
H6    H     H_    0.607957 0.910214 0.435612 0.144032
H7    H     H_    0.306916 0.422965 0.060243 0.161691
H8    H     H_    0.136812 0.696598 0.441001 0.142286
H9    H     H_    0.567889 0.876524 0.059312 0.131654
H10   H     H_    0.314089 0.425932 0.440380 0.166470
H11   H     H_    0.702881 0.105010 0.563384 0.147137
H12   H     H_    0.718829 0.152761 0.636902 0.165049
H13   H     H_    0.895896 0.597290 0.936875 0.160220
H14   H     H_    0.445023 0.298688 0.558818 0.172079
H15   H     H_    0.699157 0.133566 0.940295 0.146865
H16   H     H_    0.879157 0.572773 0.559948 0.140687
H17   H     H_    0.413415 0.293469 0.937519 0.165138
H18   H     H_    0.809182 0.319281 0.153171 0.119431
H19   H     H_    0.885768 0.370812 0.201798 0.114196
H20   H     H_    0.871779 0.186748 0.212840 0.166244
H21   H     H_    0.737323 0.175252 0.207858 0.058106
H22   H     H_    0.794555 0.137414 0.164530 0.193488
H23   H     H_    0.440362 0.279264 0.863478 0.168625
H24   H     H_    0.480319 0.115334 0.295892 0.136529
H25   H     H_    0.514653 0.191509 0.344863 0.111606
H26   H     H_    0.348920 0.210798 0.339183 0.158399
H27   H     H_    0.436532 0.266431 0.293781 0.072521
H28   H     H_    0.310932 0.133646 0.290607 0.177177
H29   H     H_    0.669515 0.756065 0.147772 0.145720
H30   H     H_    0.765722 0.727257 0.120718 0.120056
H31   H     H_    0.857269 0.734257 0.188594 0.149957
H32   H     H_    0.857444 0.861410 0.177799 0.110001
H33   H     H_    0.761186 0.764498 0.215402 0.173629
H34   H     H_    0.826570 0.542100 0.633052 0.162844
H35   H     H_    0.889931 0.416514 0.292557 0.112585
H36   H     H_    0.808995 0.388103 0.340138 0.127184
H37   H     H_    0.725155 0.188556 0.329304 0.187028
H38   H     H_    0.706980 0.252697 0.283216 0.053346
H39   H     H_    0.810228 0.210595 0.283696 0.167737
H40   H     H_    0.576611 0.194311 0.163853 0.115956
H41   H     H_    0.521692 0.110840 0.210705 0.131395
H42   H     H_    0.391536 0.185678 0.218487 0.168363
H43   H     H_    0.535839 0.292122 0.219982 0.092159
H44   H     H_    0.454896 0.272166 0.173241 0.160610
H45   H     H_    0.717814 0.178872 0.866521 0.162797
H46   H     H_    0.572018 0.467404 0.291323 0.113620
H47   H     H_    0.641516 0.434950 0.332340 0.118460
H48   H     H_    0.823429 0.578472 0.304424 0.173340
H49   H     H_    0.742449 0.476319 0.265159 0.071358
H50   H     H_    0.754129 0.611078 0.263686 0.176555
H51   H     H_    0.380901 0.889947 0.702951 0.113356
H52   H     H_    0.336723 0.810219 0.654742 0.113950
H53   H     H_    0.147401 0.776615 0.664308 0.197011
H54   H     H_    0.191792 0.731160 0.709384 0.054545
H55   H     H_    0.188694 0.859039 0.711606 0.171947
H56   H     H_    0.466893 0.281153 0.633128 0.168696
H57   H     H_    0.188689 0.536223 0.844346 0.111761
H58   H     H_    0.119270 0.485189 0.794576 0.140170
H59   H     H_    0.164435 0.331981 0.798205 0.175315
H60   H     H_    0.286600 0.467842 0.800001 0.073812
H61   H     H_    0.234988 0.387708 0.847322 0.153207
H62   H     H_    0.480801 0.588879 0.703665 0.112186
H63   H     H_    0.433638 0.620470 0.655360 0.113637
H64   H     H_    0.557450 0.819426 0.666463 0.187404
H65   H     H_    0.469287 0.757670 0.711431 0.052803
H66   H     H_    0.612658 0.792639 0.713361 0.168600
H67   H     H_    0.573216 0.856981 0.362582 0.165075
H68   H     H_    0.377527 0.810930 0.841574 0.111278
H69   H     H_    0.406749 0.890737 0.793668 0.113023
H70   H     H_    0.202427 0.819382 0.785974 0.169422
H71   H     H_    0.237113 0.710708 0.786340 0.052184
H72   H     H_    0.178149 0.736326 0.832367 0.189676
H73   H     H_    0.108131 0.520620 0.706653 0.129386
H74   H     H_    0.198740 0.558744 0.661354 0.110437
H75   H     H_    0.250640 0.419850 0.679978 0.148749
H76   H     H_    0.275525 0.512873 0.723318 0.069001
H77   H     H_    0.156530 0.374829 0.723968 0.179958
H78   H     H_    0.142298 0.716604 0.137851 0.160291
H79   H     H_    0.469145 0.656565 0.846479 0.111966
H80   H     H_    0.504560 0.611571 0.798454 0.111305
H81   H     H_    0.662421 0.805226 0.788282 0.172812
H82   H     H_    0.529415 0.797752 0.790319 0.053421
H83   H     H_    0.620347 0.847205 0.835144 0.191560
H84   H     H_    0.884808 0.306456 0.034845 0.112620
H85   H     H_    0.345006 0.106791 0.412022 0.154940
H86   H     H_    0.748159 0.556339 0.100905 0.134003
H87   H     H_    0.858665 0.312213 0.461466 0.101654
H88   H     H_    0.400029 0.159012 0.097123 0.152529
H89   H     H_    0.288232 0.460064 0.368048 0.160688
H90   H     H_    0.701752 0.539403 0.455224 0.101272
H91   H     H_    0.310642 0.885646 0.534040 0.106041
H92   H     H_    0.110626 0.351615 0.912348 0.154499
H93   H     H_    0.568478 0.685702 0.534278 0.102267
H94   H     H_    0.311069 0.871269 0.963409 0.101225
H95   H     H_    0.147333 0.386802 0.595142 0.155415
H96   H     H_    0.581680 0.684742 0.968026 0.096955
O1    O     O_R   0.480350 0.140770 0.796330 -0.470122
O2    O     O_R   0.140770 0.480350 0.203670 -0.464234
O3    O     O_R   0.519650 0.660420 0.296330 -0.468921
O4    O     O_R   0.339580 0.859230 0.203670 -0.468583
O5    O     O_R   0.514930 0.348530 0.793250 -0.513527
O6    O     O_R   0.833600 0.485070 0.706750 -0.514842
O7    O     O_R   0.651470 0.166400 0.793250 -0.512159
O8    O     O_R   0.514930 0.348530 0.706750 -0.511053
O9    O     O_R   0.833600 0.485070 0.793250 -0.513451
O10   O     O_R   0.651470 0.166400 0.706750 -0.512785
O11   O     O_R   0.348530 0.514930 0.293250 -0.511680
O12   O     O_R   0.660420 0.519650 0.703670 -0.469350
O13   O     O_R   0.485070 0.833600 0.206750 -0.521972
O14   O     O_R   0.166400 0.651470 0.293250 -0.510337
O15   O     O_R   0.348530 0.514930 0.206750 -0.508596
O16   O     O_R   0.485070 0.833600 0.293250 -0.514897
O17   O     O_R   0.166400 0.651470 0.206750 -0.514604
O18   O     O_3   0.666667 0.333333 0.750000 -0.252102
O19   O     O_3   0.333333 0.666667 0.250000 -0.249437
O20   O     O_3   0.969406 0.340137 0.154667 -0.492982
O21   O     O_3   0.372381 0.032321 0.344667 -0.554744
O22   O     O_3   0.654616 0.601150 0.160169 -0.576935
O23   O     O_R   0.859230 0.339580 0.796330 -0.463236
O24   O     O_3   0.937969 0.350499 0.340857 -0.494999
O25   O     O_3   0.411156 0.062660 0.161161 -0.562668
O26   O     O_3   0.653128 0.590126 0.336458 -0.492192
O27   O     O_3   0.342199 0.963957 0.654575 -0.489616
O28   O     O_3   0.039203 0.381449 0.844555 -0.555281
O29   O     O_3   0.597633 0.650652 0.656140 -0.489625
O30   O     O_3   0.347822 0.945222 0.842386 -0.491374
O31   O     O_3   0.055371 0.401707 0.659691 -0.556794
O32   O     O_3   0.619771 0.656037 0.846403 -0.488436
O33   O     O_2   0.896924 0.228924 0.084548 -0.467113
O34   O     O_R   0.480350 0.140770 0.703670 -0.465514
O35   O     O_2   0.433998 0.140338 0.463789 -0.519351
O36   O     O_2   0.696926 0.513099 0.042639 -0.504417
O37   O     O_2   0.841755 0.234099 0.407940 -0.462326
O38   O     O_2   0.469547 0.171685 0.041915 -0.500183
O39   O     O_2   0.773952 0.598381 0.400622 -0.468191
O40   O     O_2   0.230846 0.887575 0.584851 -0.457419
O41   O     O_2   0.139582 0.438219 0.964557 -0.523490
O42   O     O_2   0.624859 0.764809 0.587948 -0.462919
O43   O     O_2   0.232235 0.856215 0.910253 -0.459896
O44   O     O_2   0.159216 0.454911 0.539717 -0.517818
O45   O     O_R   0.660420 0.519650 0.796330 -0.465182
O46   O     O_2   0.653659 0.766266 0.916203 -0.460870
O47   O     O_R   0.859230 0.339580 0.703670 -0.465641
O48   O     O_R   0.140770 0.480350 0.296330 -0.472054
O49   O     O_R   0.519650 0.660420 0.203670 -0.495018
O50   O     O_R   0.339580 0.859230 0.296330 -0.460074

loop_
_geom_bond_atom_site_label_1
_geom_bond_atom_site_label_2
_ccdc_geom_bond_type
C56   O7    A    
C23   H79   S    
C13   O50   A    
C38   C106  S    
C65   C79   A    
C48   C95   S    
C54   C120  A    
C106  C119  A    
C36   C108  S    
C33   C104  S    
C10   H46   S    
C64   C77   A    
C30   H88   S    
C34   H93   S    
Cr3   O47   S    
Cr2   O18   S    
Cr3   O18   S    
C55   C56   S    
C28   O36   D    
C77   H13   S    
C55   C121  A    
Cr5   O16   S    
C66   C80   A    
C9    H43   S    
C1    O5    A    
C97   C110  A    
C12   H51   S    
C87   H9    S    
Cr1   O34   S    
C130  H19   S    
C11   H49   S    
C68   C81   A    
C20   H70   S    
C43   C99   S    
C1    O45   A    
C90   H7    S    
C24   C59   S    
C121  O30   S    
C5    H31   S    
Cr5   O13   S    
C67   O12   A    
C58   C71   A    
C39   C97   S    
C54   C68   A    
C63   C76   A    
C84   H6    S    
C15   C16   S    
C11   H48   S    
C130  H18   S    
C60   C73   A    
C10   H47   S    
C41   C102  S    
C7    H39   S    
C17   H62   S    
C12   O27   S    
Cr1   O1    S    
C65   H12   S    
C52   C65   A    
C31   O39   D    
C1    C53   S    
C9    H44   S    
C75   H3    S    
C132  O21   S    
C110  C124  A    
C19   O30   S    
C87   C101  A    
C82   H15   S    
C85   C98   A    
C116  C129  A    
C19   C20   S    
C27   C110  S    
C123  O29   S    
C8    C9    S    
C7    H37   S    
C26   H84   S    
C19   H68   S    
C5    H32   S    
C56   O1    A    
C25   H83   S    
C18   H65   S    
C102  C115  A    
C51   C78   S    
C29   H87   S    
C49   C94   S    
C35   C98   S    
Cr4   O48   S    
C91   C104  A    
C73   C86   A    
C61   C111  S    
C44   C92   S    
C36   H94   S    
C59   C72   A    
C79   H11   S    
C15   H57   S    
C70   H56   S    
C24   O2    A    
C29   C115  S    
C23   H80   S    
C3    H28   S    
C31   H90   S    
C19   H69   S    
C101  C114  A    
C85   H5    S    
C52   C89   S    
C100  O11   A    
C57   C67   S    
C124  O21   S    
C41   C49   T    
C67   O8    A    
C72   C85   A    
C6    C7    S    
C71   C84   A    
C90   C103  A    
Cr2   O12   S    
C94   C107  A    
Cr3   O23   S    
C111  O4    A    
C98   C112  A    
C99   C113  A    
C11   H50   S    
C29   O37   D    
C37   H95   S    
Cr4   O19   S    
Cr6   O14   S    
C22   H77   S    
C58   C124  A    
C61   C127  A    
Cr6   O17   S    
C95   C108  A    
C2    O15   A    
C73   H89   S    
C109  C123  A    
C113  C126  A    
C33   O41   D    
C119  O32   S    
C34   O42   D    
C47   C96   S    
C84   C97   A    
C115  C128  A    
C3    C132  S    
C66   H23   S    
C128  O24   S    
Cr3   O10   S    
C17   O29   S    
C131  H20   S    
C17   H63   S    
C16   H59   S    
C4    H29   S    
C38   H96   S    
C70   C83   A    
C8    H40   S    
Cr1   O8    S    
C57   C123  A    
C52   C118  A    
C75   C88   A    
C28   C116  S    
C129  O22   S    
C28   H86   S    
C37   O44   D    
C7    H38   S    
C17   C18   S    
C5    H33   S    
C89   O10   A    
C30   O38   D    
C100  O3    A    
C18   H64   S    
C42   C48   T    
C20   H71   S    
C131  H21   S    
C86   C99   A    
C122  O48   A    
Cr1   O18   S    
C79   C92   A    
C55   C69   A    
C16   H61   S    
C13   O16   A    
C3    H26   S    
C69   H45   S    
C108  C121  A    
C14   H53   S    
C130  O20   S    
C38   O46   D    
Cr6   O4    S    
C27   O35   D    
C45   O47   A    
C12   C14   S    
C45   C54   S    
C15   H58   S    
C20   H72   S    
C32   C105  S    
C22   H76   S    
C93   C106  A    
C74   C87   A    
C127  O25   S    
C105  C118  A    
C25   H81   S    
Cr2   O45   S    
C39   C44   T    
C33   H92   S    
Cr6   O19   S    
C42   C101  S    
C26   C112  S    
C107  C120  A    
C62   C122  S    
C16   H60   S    
C2    C63   S    
C3    H27   S    
C80   H17   S    
C122  O14   A    
C83   H14   S    
C30   C114  S    
C32   H91   S    
C77   C91   A    
C88   H8    S    
C120  O31   S    
C72   H78   S    
Cr2   O9    S    
Cr2   O6    S    
C14   H55   S    
C24   O17   A    
C51   C64   A    
C4    C5    S    
C60   C100  S    
C86   H10   S    
C114  C127  A    
C88   C102  A    
C53   C119  A    
C50   C93   S    
C37   C107  S    
C2    O49   A    
C13   C58   S    
C6    H35   S    
C21   O31   S    
C82   C95   A    
C59   C125  A    
C6    H36   S    
C96   C109  A    
C104  C117  A    
C23   O32   S    
C27   H85   S    
C78   O9    A    
C21   H74   S    
C126  O26   S    
C6    O24   S    
C89   O34   A    
C9    H42   S    
Cr3   O7    S    
C8    O25   S    
C60   C126  A    
C130  C131  S    
C132  H25   S    
C14   H54   S    
C15   O28   S    
C53   C66   A    
C40   C103  S    
C62   C128  A    
C81   C94   A    
C68   H34   S    
C8    H41   S    
C26   O33   D    
C118  O27   S    
C74   H2    S    
C103  C116  A    
C40   C50   T    
C83   C96   A    
Cr4   O2    S    
C21   H73   S    
C51   C117  A    
C78   O23   A    
C31   C113  S    
Cr4   O11   S    
C69   C82   A    
C10   O26   S    
C12   H52   S    
C63   C129  A    
Cr5   O3    S    
C125  O20   S    
Cr4   O15   S    
C132  H24   S    
C36   O43   D    
C45   O6    A    
C32   O40   D    
C10   C11   S    
C81   H16   S    
C57   C70   A    
C4    H30   S    
C92   C105  A    
C71   H67   S    
C23   C25   S    
Cr5   O49   S    
C111  O13   A    
C22   H75   S    
Cr6   O50   S    
C34   C109  S    
C4    O22   S    
C25   H82   S    
C18   H66   S    
C117  O28   S    
Cr1   O5    S    
C112  C125  A    
C80   C93   A    
C21   C22   S    
C35   C46   T    
C43   C47   T    
C131  H22   S    
C46   C91   S    
Cr5   O19   S    
C62   C75   A    
C61   C74   A    
C76   C90   A    
C64   H1    S    
C76   H4    S    
