data_mof_unit_45603.cif
_audit_creation_date              2012-12-11T14:45:24-0500
_audit_creation_method            fapswitch 2.2
_symmetry_space_group_name_H-M    P1
_symmetry_Int_Tables_number       1
_space_group_crystal_system       triclinic
_cell_length_a                    24.919024
_cell_length_b                    7.179437
_cell_length_c                    14.393444
_cell_angle_alpha                 89.999966
_cell_angle_beta                  102.961327
_cell_angle_gamma                 90.000076
_cell_volume                      2509.44478375

loop_
_atom_site_label
_atom_site_type_symbol
_atom_type_description
_atom_site_fract_x
_atom_site_fract_y
_atom_site_fract_z
_atom_type_partial_charge
O1    O     O_R   0.319150 0.364170 0.330530 -0.538597
O2    O     O_R   0.680850 0.635830 0.669470 -0.537644
O3    O     O_R   0.180850 0.864170 0.169470 -0.538598
O4    O     O_R   0.819150 0.135830 0.830530 -0.537645
O5    O     O_R   0.210330 0.696850 0.354180 -0.534107
O6    O     O_R   0.789670 0.303150 0.645820 -0.533969
O7    O     O_R   0.289670 0.196850 0.145820 -0.534107
O8    O     O_R   0.710330 0.803150 0.854180 -0.533969
C1    C     C_R   0.197203 0.525671 0.378200 0.675926
C2    C     C_R   0.802813 0.474280 0.621829 0.678964
C3    C     C_R   0.302796 0.025671 0.121800 0.675926
C4    C     C_R   0.697187 0.974280 0.878171 0.678965
O9    O     O_R   0.320550 0.694110 0.341970 -0.537667
O10   O     O_R   0.679450 0.305890 0.658030 -0.538006
O11   O     O_R   0.179450 0.194110 0.158030 -0.537667
O12   O     O_R   0.820550 0.805890 0.841970 -0.538006
O13   O     O_R   0.291860 0.861000 0.157170 -0.535387
O14   O     O_R   0.708140 0.139000 0.842830 -0.539070
O15   O     O_R   0.208140 0.361000 0.342830 -0.535386
O16   O     O_R   0.791860 0.639000 0.657170 -0.539069
C5    C     C_R   0.341440 0.526303 0.363711 0.694922
C6    C     C_R   0.658529 0.473742 0.636386 0.692502
C7    C     C_R   0.158560 0.026303 0.136289 0.694923
C8    C     C_R   0.841470 0.973743 0.863614 0.692503
O17   O     O_3   0.240460 0.529330 0.189380 -0.371713
O18   O     O_3   0.759540 0.470670 0.810620 -0.371455
O19   O     O_3   0.259540 0.029330 0.310620 -0.371713
O20   O     O_3   0.740460 0.970670 0.689380 -0.371455
V1    V     V_3+5 0.251770 0.805510 0.261240 1.480401
V2    V     V_3+5 0.748230 0.194490 0.738760 1.469624
V3    V     V_3+5 0.248230 0.305510 0.238760 1.480401
V4    V     V_3+5 0.751770 0.694490 0.761240 1.469624
C9    C     C_R   0.103548 0.024911 0.069765 -0.102782
C10   C     C_R   0.896481 0.975527 0.930117 -0.106034
C11   C     C_R   0.396452 0.524912 0.430235 -0.102783
C12   C     C_R   0.603518 0.475526 0.569883 -0.106035
C13   C     C_R   0.961310 0.856557 0.071514 -0.073711
C14   C     C_R   0.038651 0.145739 0.928831 -0.073900
C15   C     C_R   0.538689 0.356546 0.428490 -0.073712
C16   C     C_R   0.461350 0.645750 0.571166 -0.073900
C17   C     C_R   0.907248 0.868700 0.014768 -0.088075
C18   C     C_R   0.092776 0.132410 0.985310 -0.089887
C19   C     C_R   0.592751 0.368692 0.485234 -0.088075
C20   C     C_R   0.407225 0.632418 0.514688 -0.089886
C21   C     C_R   0.939865 0.069769 0.903546 -0.221408
C22   C     C_R   0.060116 0.931323 0.096453 -0.220487
C23   C     C_R   0.560136 0.569775 0.596451 -0.221406
C24   C     C_R   0.439883 0.431317 0.403549 -0.220486
C25   C     C_R   0.994549 0.055126 0.957773 0.088539
C26   C     C_R   0.005425 0.946539 0.042359 0.085101
C27   C     C_R   0.505451 0.555130 0.542225 0.088539
C28   C     C_R   0.494574 0.446534 0.457643 0.085101
H1    H     H_    0.069280 0.851766 0.162059 0.132974
H2    H     H_    0.930696 0.149140 0.837881 0.133664
H3    H     H_    0.430719 0.351754 0.337944 0.132975
H4    H     H_    0.569305 0.649151 0.662115 0.133665
C29   C     C_R   0.665269 0.977844 0.951968 -0.042585
C30   C     C_R   0.335127 0.022030 0.048581 -0.063787
C31   C     C_R   0.834731 0.477845 0.548032 -0.042584
C32   C     C_R   0.164873 0.522029 0.451419 -0.063785
C33   C     C_R   0.656045 0.877161 0.107489 -0.134573
C34   C     C_R   0.345082 0.123684 0.893634 -0.129264
C35   C     C_R   0.843954 0.377169 0.392510 -0.134571
C36   C     C_R   0.154918 0.623673 0.606367 -0.129263
C37   C     C_R   0.688962 0.912512 0.043243 -0.155218
C38   C     C_R   0.311762 0.086500 0.957014 -0.147099
C39   C     C_R   0.811038 0.412517 0.456756 -0.155217
C40   C     C_R   0.188239 0.586492 0.542987 -0.147098
C41   C     C_R   0.608984 0.019155 0.927323 -0.205146
C42   C     C_R   0.391532 0.982894 0.074403 -0.139586
C43   C     C_R   0.891016 0.519154 0.572677 -0.205147
C44   C     C_R   0.108468 0.482898 0.425596 -0.139585
C45   C     C_R   0.575279 0.997869 0.993755 0.083309
C46   C     C_R   0.425879 0.008037 0.009117 0.095191
C47   C     C_R   0.924720 0.497870 0.506245 0.083310
C48   C     C_R   0.074121 0.508037 0.490882 0.095192
C49   C     C_R   0.599159 0.910529 0.081575 0.099561
C50   C     C_R   0.402113 0.093776 0.920806 0.051622
C51   C     C_R   0.900841 0.410536 0.418424 0.099563
C52   C     C_R   0.097887 0.593769 0.579195 0.051623
C53   C     C_R   0.517785 0.042881 0.972376 -0.035698
C54   C     C_R   0.483643 0.966963 0.031601 0.031878
C55   C     C_R   0.982215 0.542881 0.527625 -0.035694
C56   C     C_R   0.016356 0.466965 0.468398 0.031883
C57   C     C_R   0.508575 0.851047 0.109904 0.226516
C58   C     C_R   0.492705 0.160451 0.894411 0.225126
C59   C     C_R   0.991424 0.351054 0.390093 0.226513
C60   C     C_R   0.007296 0.660445 0.605592 0.225124
C61   C     C_R   0.565727 0.839431 0.138376 -0.198285
C62   C     C_R   0.435684 0.167908 0.864971 -0.119773
C63   C     C_R   0.934272 0.339440 0.361621 -0.198284
C64   C     C_R   0.064317 0.667898 0.635032 -0.119772
H5    H     H_    0.583793 0.758313 0.201225 0.131633
H6    H     H_    0.417582 0.250304 0.802595 0.143448
H7    H     H_    0.916206 0.258326 0.298772 0.131632
H8    H     H_    0.082419 0.750290 0.697409 0.143447
H9    H     H_    0.408265 0.952436 0.148558 0.150848
H10   H     H_    0.591602 0.050852 0.853646 0.122519
H11   H     H_    0.091734 0.452446 0.351440 0.150845
H12   H     H_    0.908398 0.550847 0.646355 0.122517
H13   H     H_    0.268288 0.118792 0.936708 0.143042
H14   H     H_    0.732328 0.878451 0.062699 0.143151
H15   H     H_    0.231712 0.618781 0.563293 0.143037
H16   H     H_    0.767672 0.378458 0.437301 0.143147
H17   H     H_    0.674608 0.814249 0.175580 0.128802
H18   H     H_    0.326669 0.185796 0.825269 0.129131
H19   H     H_    0.825392 0.314260 0.324418 0.128802
H20   H     H_    0.173333 0.685780 0.674734 0.129131
C65   C     C_1   0.137325 0.229463 0.956042 0.308799
N1    N     N_1   0.172673 0.307746 0.932594 -0.366673
C66   C     C_1   0.862786 0.771007 0.043967 0.309310
N2    N     N_1   0.827534 0.692097 0.067379 -0.369099
C67   C     C_1   0.362676 0.729473 0.543955 0.308801
N3    N     N_1   0.327328 0.807758 0.567402 -0.366669
C68   C     C_1   0.637213 0.270996 0.456036 0.309312
N4    N     N_1   0.672465 0.192085 0.432625 -0.369095
C69   C     C_1   0.971095 0.751611 0.159903 0.283103
N5    N     N_1   0.978949 0.668560 0.230526 -0.373741
C70   C     C_1   0.028749 0.253540 0.841278 0.306419
N6    N     N_1   0.020816 0.339119 0.771414 -0.361819
C71   C     C_1   0.528903 0.251585 0.340105 0.283106
N7    N     N_1   0.521048 0.168522 0.269486 -0.373743
C72   C     C_1   0.471253 0.753563 0.658714 0.306419
N8    N     N_1   0.479187 0.839152 0.728576 -0.361824
N9    N     N_3   0.476789 0.730492 0.156168 -0.682957
H21   H     H_    0.487123 0.758200 0.229383 0.238617
H22   H     H_    0.487967 0.592748 0.146199 0.245192
N10   N     N_3   0.522385 0.296726 0.852679 -0.670734
H23   H     H_    0.559015 0.336441 0.899395 0.243188
H24   H     H_    0.528793 0.247793 0.787651 0.236906
N11   N     N_3   0.023209 0.230502 0.343827 -0.682958
H25   H     H_    0.012876 0.258214 0.270614 0.238614
H26   H     H_    0.012031 0.092758 0.353795 0.245195
N12   N     N_3   0.977617 0.796717 0.647326 -0.670734
H27   H     H_    0.940987 0.836437 0.600611 0.243190
H28   H     H_    0.971209 0.747781 0.712353 0.236904

loop_
_geom_bond_atom_site_label_1
_geom_bond_atom_site_label_2
_ccdc_geom_bond_type
O17   V3    S    
C24   H3    S    
O1    C5    A    
C59   C63   A    
O19   V1    S    
O13   V1    S    
O3    C7    A    
C66   N2    T    
C56   C59   A    
O1    V3    S    
C44   C48   A    
O15   V3    S    
N10   H23   S    
C48   C56   A    
C53   C54   A    
C72   N8    T    
C14   C25   A    
C35   C51   A    
C50   C62   A    
O7    C3    A    
C49   C61   A    
C9    C18   A    
C36   C40   A    
O9    V1    S    
C18   C65   S    
O10   V2    S    
C14   C18   A    
O4    C8    A    
C32   C44   A    
C68   N4    T    
C64   H8    S    
C12   C23   A    
O2    V4    S    
C59   N11   S    
O3    V1    S    
C19   C68   S    
C57   N9    S    
C1    O15   A    
C60   C64   A    
C2    O16   A    
C7    C9    S    
C42   C46   A    
C40   H15   S    
C41   C45   A    
O14   V2    S    
C3    C30   S    
C33   H17   S    
C65   N1    T    
C16   C20   A    
C51   C63   A    
C53   C58   A    
C42   H9    S    
C31   C39   A    
C41   H10   S    
O11   C7    A    
C55   C60   A    
O12   C8    A    
C61   H5    S    
C9    C22   A    
C36   C52   A    
C38   H13   S    
C10   C17   A    
C37   H14   S    
C46   C54   A    
C11   C24   A    
C45   C53   A    
C30   C38   A    
C39   H16   S    
C62   H6    S    
O5    V1    S    
C35   C39   A    
O7    V3    S    
C34   C38   A    
C58   N10   S    
C27   C28   A    
O8    V4    S    
C58   C62   A    
C33   C49   A    
C57   C61   A    
O18   V4    S    
C30   C42   A    
C15   C19   A    
C8    C10   S    
C52   C64   A    
O5    C1    A    
C55   C56   A    
C21   C25   A    
O8    C4    A    
O9    C5    A    
C10   C21   A    
C11   C20   A    
C71   N7    T    
C5    C11   S    
C14   C70   S    
O6    V2    S    
C20   C67   S    
C46   C50   A    
N9    H21   S    
C4    C29   S    
C35   H19   S    
N11   H25   S    
C54   C57   A    
C67   N3    T    
O16   V4    S    
C16   C72   S    
C3    O13   A    
C34   C50   A    
C48   C52   A    
C29   C37   A    
N11   H26   S    
N10   H24   S    
C21   H2    S    
C23   C27   A    
C70   N6    T    
O11   V3    S    
N12   H27   S    
C34   H18   S    
O12   V4    S    
C16   C27   A    
C6    C12   S    
C43   H12   S    
C22   C26   A    
C15   C71   S    
C1    C32   S    
O10   C6    A    
O20   V2    S    
C2    C31   S    
C60   N12   S    
O2    C6    A    
C43   C47   A    
C13   C26   A    
C47   C55   A    
C22   H1    S    
N12   H28   S    
C15   C28   A    
C13   C17   A    
O6    C2    A    
C63   H7    S    
C33   C37   A    
C24   C28   A    
C13   C69   S    
C32   C40   A    
C25   C26   A    
C17   C66   S    
C4    O14   A    
N9    H22   S    
C45   C49   A    
C12   C19   A    
C29   C41   A    
C69   N5    T    
C47   C51   A    
O4    V2    S    
C36   H20   S    
C31   C43   A    
C23   H4    S    
C44   H11   S    
