data_mof_unit_14514.cif
_audit_creation_date              2013-03-05T15:52:13-0500
_audit_creation_method            fapswitch 2.2
_symmetry_space_group_name_H-M    P1
_symmetry_Int_Tables_number       1
_space_group_crystal_system       triclinic
_cell_length_a                    23.480258
_cell_length_b                    10.847564
_cell_length_c                    9.619445
_cell_angle_alpha                 87.133033
_cell_angle_beta                  89.40014
_cell_angle_gamma                 92.98048
_cell_volume                      2443.52071211

loop_
_atom_site_label
_atom_site_type_symbol
_atom_site_description
_atom_site_fract_x
_atom_site_fract_y
_atom_site_fract_z
_atom_type_partial_charge
O1    O     O_R   0.500000 0.319640 0.618810 -0.516390
O2    O     O_R   0.500000 0.319660 0.381240 -0.571745
C1    C     C_R   0.495540 0.261660 0.503893 0.848242
O3    O     O_R   0.417880 0.499950 0.618810 -0.583704
O4    O     O_R   0.417880 0.499980 0.381240 -0.581226
C2    C     C_R   0.391190 0.498669 0.500022 0.821120
Cu1   Cu    Cu3+1 0.500000 0.499990 0.640660 0.997471
Cu2   Cu    Cu3+1 0.500000 0.500010 0.359340 0.959470
O5    O     O_R   0.500000 0.680340 0.618760 -0.604704
O6    O     O_R   0.500000 0.680360 0.381190 -0.599632
O7    O     O_R   0.582120 0.500020 0.618760 -0.588921
O8    O     O_R   0.582120 0.500050 0.381190 -0.590381
C3    C     C_R   0.501009 0.737175 0.496611 0.843696
C4    C     C_R   0.608774 0.500571 0.499081 0.911749
C5    C     C_R   0.879185 0.509268 0.368176 0.598063
N1    N     N_R   0.850016 0.463518 0.485004 -0.442502
C6    C     C_R   0.877390 0.413861 0.597318 0.596751
C7    C     C_R   0.937013 0.412054 0.596731 0.015558
C8    C     C_R   0.968175 0.458957 0.477527 -0.068170
C9    C     C_R   0.939112 0.503673 0.359298 -0.180231
C10   C     C_R   0.966026 0.366244 0.713340 -0.180882
C11   C     C_R   0.025321 0.373327 0.715601 -0.102982
C12   C     C_R   0.056965 0.422108 0.599072 0.026233
C13   C     C_R   0.028456 0.462135 0.477914 -0.056573
C14   C     C_R   0.060157 0.507210 0.358937 -0.198290
C15   C     C_R   0.030848 0.551178 0.239655 0.260399
C16   C     C_R   0.970797 0.544299 0.237884 0.400564
C17   C     C_R   0.116658 0.432751 0.601642 0.567122
N2    N     N_R   0.147311 0.472025 0.484239 -0.458458
C18   C     C_R   0.120298 0.504158 0.362847 0.605714
O9    O     O_2   0.850127 0.562317 0.262878 -0.492620
O10   O     O_2   0.846977 0.368597 0.710078 -0.533092
H1    H     H_    0.942944 0.326366 0.804093 0.168059
H2    H     H_    0.046254 0.339912 0.808882 0.198646
O11   O     O_2   0.143801 0.405316 0.721365 -0.505438
O12   O     O_2   0.151626 0.529395 0.245598 -0.480858
C19   C     C_R   0.239776 0.587637 0.439372 -0.135645
H3    H     H_    0.217399 0.667128 0.401398 0.185402
C20   C     C_R   0.299586 0.593038 0.436141 0.456834
C21   C     C_R   0.328736 0.494507 0.497662 -0.142190
C22   C     C_R   0.298063 0.385734 0.543266 -0.268202
H4    H     H_    0.320106 0.305208 0.577654 0.200553
C23   C     C_R   0.238739 0.377436 0.536884 -0.084569
H5    H     H_    0.216010 0.291226 0.569354 0.179738
C24   C     C_R   0.208893 0.479358 0.488024 0.239226
C25   C     C_R   0.753238 0.376329 0.444954 0.547488
C26   C     C_R   0.694089 0.387652 0.450358 -0.340125
H6    H     H_    0.666038 0.311660 0.420199 0.220960
C27   C     C_R   0.671006 0.495457 0.495962 -0.205100
C28   C     C_R   0.707657 0.594332 0.537432 0.306282
C29   C     C_R   0.766691 0.580031 0.536811 -0.227275
H7    H     H_    0.795676 0.654407 0.567614 0.204698
C30   C     C_R   0.789348 0.472158 0.491348 0.200814
C31   C     C_R   0.402522 0.090307 0.651228 0.256391
C32   C     C_R   0.352065 0.015602 0.671283 -0.258095
H8    H     H_    0.315891 0.049044 0.726117 0.205942
C33   C     C_R   0.350303 0.891994 0.641089 0.508156
C34   C     C_R   0.398748 0.843625 0.585237 -0.186932
H9    H     H_    0.397083 0.746532 0.566344 0.174534
C35   C     C_R   0.447667 0.919953 0.549045 -0.020744
C36   C     C_R   0.448611 0.047994 0.571623 -0.077125
C37   C     C_R   0.494862 0.125700 0.511243 -0.154549
C38   C     C_R   0.538950 0.073085 0.437063 0.486363
H10   H     H_    0.576214 0.904609 0.385058 0.187061
C39   C     C_R   0.540103 0.945154 0.432538 -0.243749
C40   C     C_R   0.495583 0.869546 0.490082 -0.102332
H11   H     H_    0.427917 0.378120 0.137560 0.154142
C41   C     C_R   0.577047 0.661144 0.134747 -0.132504
H12   H     H_    0.578102 0.671904 0.243745 0.211155
C42   C     C_R   0.615243 0.740181 0.058446 -0.212603
H13   H     H_    0.643698 0.803885 0.110972 0.175390
C43   C     C_R   0.616095 0.739584 0.915226 -0.145029
H14   H     H_    0.645059 0.803436 0.856047 0.219150
C44   C     C_R   0.578850 0.659824 0.847306 -0.110188
H15   H     H_    0.581690 0.670464 0.737410 0.230700
C45   C     C_R   0.539415 0.576631 0.920634 0.178140
C46   C     C_R   0.538873 0.577367 0.070126 0.195271
N3    N     N_R   0.500540 0.501210 0.147910 -0.209482
C47   C     C_R   0.460548 0.433041 0.078914 -0.060375
H16   H     H_    0.424802 0.391800 0.881695 0.224844
C48   C     C_R   0.459665 0.436727 0.931603 0.010311
N4    N     N_R   0.500560 0.501290 0.852040 -0.211652
N5    N     N_R   0.686398 0.710723 0.573835 0.109908
O13   O     O_R   0.640727 0.751214 0.515968 -0.447136
O14   O     O_R   0.717372 0.785448 0.647418 -0.350126
O15   O     O_3   0.583855 0.148088 0.380670 -0.588140
C49   C     C_3   0.585712 0.138988 0.234757 -0.260978
H17   H     H_    0.542823 0.146664 0.187230 0.178947
H18   H     H_    0.604712 0.051738 0.206460 0.160495
H19   H     H_    0.613501 0.216853 0.189190 0.183306
N6    N     N_R   0.411357 0.186269 0.745831 0.108249
O16   O     O_R   0.367154 0.241303 0.789885 -0.436850
O17   O     O_R   0.455450 0.180774 0.826436 -0.365811
O18   O     O_3   0.300700 0.819605 0.666875 -0.552217
C50   C     C_3   0.309089 0.735587 0.780698 -0.260604
H20   H     H_    0.324291 0.783997 0.873929 0.147125
H21   H     H_    0.339072 0.664333 0.753294 0.159496
H22   H     H_    0.267596 0.686643 0.808873 0.222457
N7    N     N_R   0.061162 0.612401 0.123410 0.198396
O19   O     O_R   0.086821 0.720254 0.137069 -0.293211
O20   O     O_R   0.060333 0.564620 0.002064 -0.319446
O21   O     O_3   0.943800 0.585389 0.118476 -0.503130
C51   C     C_3   0.929616 0.482283 0.039318 -0.128006
H23   H     H_    0.896804 0.418818 0.093127 0.150567
H24   H     H_    0.967694 0.429921 0.015357 0.138687
H25   H     H_    0.911524 0.515762 0.939147 0.205250
O22   O     O_3   0.329578 0.696740 0.379052 -0.587189
C52   C     C_3   0.325659 0.697569 0.232805 -0.262935
H26   H     H_    0.281486 0.713589 0.198231 0.185250
H27   H     H_    0.340500 0.610552 0.191244 0.163492
H28   H     H_    0.353834 0.774847 0.187418 0.189214
O23   O     O_3   0.776271 0.268820 0.404098 -0.549480
C53   C     C_3   0.767971 0.258278 0.260085 -0.247042
H29   H     H_    0.784375 0.342896 0.198948 0.172659
H30   H     H_    0.722322 0.237323 0.236918 0.160951
H31   H     H_    0.792247 0.180074 0.225420 0.204711

loop_
_geom_bond_atom_site_label_1
_geom_bond_atom_site_label_2
_geom_bond_distance
_ccdc_geom_bond_type
C49   H17   1.115624 S    
C38   C39   1.392255 A    
C25   O23   1.383472 S    
C7    C10   1.401670 A    
C22   H4    1.077983 S    
C8    C9    1.410625 A    
C32   H8    1.083086 S    
C48   N4    1.363575 A    
C50   H22   1.109419 S    
Cu1   Cu2   2.706130 S    
C26   C27   1.402134 A    
C46   N3    1.378113 A    
Cu1   O7    1.937461 S    
C15   C16   1.408431 A    
C37   C38   1.411833 A    
C44   C45   1.416009 A    
C17   N2    1.370365 A    
O4    C2    1.296516 A    
H16   C48   1.062193 S    
O7    C4    1.304193 A    
C4    C27   1.465213 S    
C10   H1    1.082084 S    
C34   C35   1.410670 A    
C5    N1    1.367866 A    
C41   C46   1.413925 A    
C52   H26   1.112101 S    
C7    C8    1.412245 A    
O5    C3    1.298742 A    
N1    C30   1.433298 S    
C31   C32   1.406152 A    
C26   H6    1.081187 S    
C17   O11   1.349788 S    
N1    C6    1.364881 A    
C12   C13   1.410988 A    
C42   H13   1.083153 S    
N2    C18   1.373005 A    
C36   C37   1.438697 A    
C15   N7    1.434565 S    
C53   H31   1.109222 S    
C35   C40   1.402901 A    
C10   C11   1.390851 A    
Cu2   N3    2.033133 S    
C22   C23   1.393374 A    
O21   C51   1.411887 S    
O3    Cu1   1.941787 S    
O23   C53   1.410447 S    
C28   N5    1.439426 S    
C28   C29   1.402767 A    
C3    C40   1.446436 S    
C5    C9    1.413443 A    
C11   H2    1.083220 S    
C44   H15   1.058691 S    
C29   H7    1.083026 S    
H11   C47   1.081712 S    
C45   C46   1.438379 A    
C43   C44   1.389271 A    
C45   N4    1.387321 A    
C20   C21   1.407958 A    
C47   C48   1.416016 A    
O15   C49   1.412365 S    
C41   H12   1.061166 S    
C14   C15   1.419002 A    
N2    C24   1.444967 S    
C35   C36   1.415586 A    
O1    C1    1.301401 A    
C20   O22   1.382263 S    
C23   H5    1.082726 S    
C19   H3    1.082900 S    
N6    O17   1.302008 A    
N5    O13   1.299922 A    
Cu2   O8    1.941787 S    
C9    C16   1.417041 A    
C6    C7    1.401078 A    
C51   H24   1.112077 S    
C52   H28   1.109357 S    
C12   C17   1.400930 A    
C13   C14   1.411143 A    
C23   C24   1.403512 A    
O3    C2    1.309319 A    
C21   C22   1.398780 A    
N5    O14   1.301494 A    
O8    C4    1.301120 A    
C27   C28   1.415651 A    
C33   O18   1.383464 S    
C32   C33   1.384692 A    
C38   O15   1.386597 S    
C2    C21   1.465234 S    
O22   C52   1.410394 S    
C19   C24   1.404913 A    
N6    O16   1.301446 A    
C53   H29   1.114116 S    
C1    C37   1.472243 S    
C14   C18   1.415090 A    
Cu1   O5    1.957165 S    
C25   C26   1.401254 A    
N7    O20   1.300578 A    
O1    Cu1   1.978040 S    
Cu2   O6    1.978042 S    
O2    Cu2   1.957162 S    
C43   H14   1.081569 S    
O6    C3    1.296379 A    
O4    Cu2   1.937463 S    
C50   H21   1.111589 S    
C5    O9    1.348948 S    
C31   C36   1.427451 A    
C16   O21   1.383221 S    
N7    O19   1.301057 A    
C18   O12   1.348671 S    
H10   C39   1.082473 S    
C49   H18   1.111784 S    
O2    C1    1.309644 A    
C34   H9    1.076495 S    
C31   N6    1.425143 S    
C19   C20   1.402487 A    
N3    C47   1.363448 A    
C33   C34   1.391163 A    
C25   C30   1.400466 A    
C52   H27   1.114136 S    
C8    C13   1.414105 A    
C51   H25   1.109262 S    
O18   C50   1.411251 S    
Cu1   N4    2.034288 S    
C41   C42   1.386146 A    
C39   C40   1.387481 A    
C49   H19   1.109490 S    
C51   H23   1.111880 S    
C6    O10   1.349677 S    
C11   C12   1.403895 A    
C42   C43   1.377981 A    
C29   C30   1.398073 A    
C50   H20   1.114358 S    
C53   H30   1.111260 S    
