data_mof_unit_7983.cif
_audit_creation_date              2012-12-11T14:27:55-0500
_audit_creation_method            fapswitch 2.2
_symmetry_space_group_name_H-M    P1
_symmetry_Int_Tables_number       1
_space_group_crystal_system       triclinic
_cell_length_a                    6.950437
_cell_length_b                    14.890669
_cell_length_c                    16.018956
_cell_angle_alpha                 90.920886
_cell_angle_beta                  90.720149
_cell_angle_gamma                 89.498939
_cell_volume                      1657.50280336

loop_
_atom_site_label
_atom_site_type_symbol
_atom_type_description
_atom_site_fract_x
_atom_site_fract_y
_atom_site_fract_z
_atom_type_partial_charge
O1    O     O_R   0.494510 0.415970 0.413200 -0.543162
O2    O     O_R   0.823800 0.407430 0.586200 -0.529828
O3    O     O_R   0.994130 0.584030 0.586800 -0.533082
C1    C     C_R   0.657693 0.385515 0.613303 0.768135
O4    O     O_R   0.824220 0.405090 0.413820 -0.543718
O5    O     O_R   0.994560 0.581670 0.413190 -0.540910
C2    C     C_R   0.654732 0.384003 0.384516 0.778685
O6    O     O_R   0.494090 0.418330 0.586810 -0.544959
O7    O     O_3   0.660810 0.557940 0.500000 -0.380026
V1    V     V_3+5 0.935650 0.489250 0.500000 1.448111
O8    O     O_R   0.324270 0.592570 0.413800 -0.544655
C3    C     C_R   0.154735 0.615305 0.386708 0.715210
O9    O     O_R   0.323850 0.594910 0.586180 -0.554046
C4    C     C_R   0.155143 0.614681 0.616334 0.713936
V2    V     V_3+5 0.435660 0.510750 0.500000 1.409746
O10   O     O_3   0.160630 0.442060 0.500000 -0.368134
C5    C     C_3   0.022102 0.674546 0.766307 -0.101125
C6    C     C_3   0.195692 0.710261 0.819077 -0.251437
H1    H     H_    0.247052 0.683803 0.879604 0.123341
H2    H     H_    0.928465 0.617606 0.782330 0.119377
C7    C     C_3   0.124466 0.807929 0.807031 -0.105761
C8    C     C_3   0.955129 0.772208 0.754491 0.191148
C9    C     C_3   0.069245 0.779941 0.673013 -0.262529
C10   C     C_3   0.242954 0.813155 0.726155 0.480216
C11   C     C_3   0.316958 0.716341 0.738501 -0.147851
C12   C     C_3   0.142756 0.682795 0.686219 -0.099181
H3    H     H_    0.010228 0.806294 0.613500 0.104772
H4    H     H_    0.466564 0.691201 0.731169 0.150398
C13   C     C_2   0.989796 0.721239 0.289322 -0.132292
C14   C     C_2   0.151345 0.685914 0.322740 -0.283858
H5    H     H_    0.850861 0.700076 0.311808 0.139474
H6    H     H_    0.289941 0.712308 0.305331 0.186313
C15   C     C_2   0.991163 0.794657 0.226908 -0.213691
C16   C     C_2   0.124334 0.803331 0.166456 0.277710
H7    H     H_    0.869987 0.841207 0.228553 0.110951
C17   C     C_2   0.759636 0.224540 0.795705 -0.313685
C18   C     C_2   0.597479 0.183010 0.816412 0.230764
H8    H     H_    0.889541 0.209081 0.829983 0.099313
C19   C     C_2   0.758826 0.303852 0.738958 0.427105
C20   C     C_2   0.657771 0.305460 0.665163 0.052195
C21   C     C_2   0.785810 0.218262 0.203141 0.452598
C22   C     C_2   0.620474 0.178429 0.176270 -0.383679
H9    H     H_    0.486088 0.193415 0.206930 0.095348
C23   C     C_2   0.792382 0.278939 0.278875 -0.231174
C24   C     C_2   0.638707 0.320496 0.312865 -0.362932
H10   H     H_    0.933639 0.291196 0.306325 0.153266
H11   H     H_    0.496128 0.311442 0.286113 0.128064
O11   O     O_R   0.771000 0.074870 0.906030 -0.559428
O12   O     O_R   0.440710 0.088040 0.078970 -0.542964
O13   O     O_R   0.270540 0.911420 0.079570 -0.526125
C25   C     C_R   0.610508 0.110839 0.107146 0.768980
O14   O     O_R   0.441280 0.085700 0.906600 -0.545968
O15   O     O_R   0.271110 0.909060 0.905960 -0.525484
C26   C     C_R   0.605750 0.109099 0.879281 0.620392
O16   O     O_R   0.770430 0.077230 0.079640 -0.507692
O17   O     O_3   0.604340 0.935220 0.992820 -0.368065
V3    V     V_3+5 0.329430 0.003850 0.992770 1.444603
O18   O     O_R   0.941400 0.898110 0.906530 -0.552094
C27   C     C_R   0.110617 0.877094 0.876965 0.690164
O19   O     O_R   0.940830 0.900450 0.078910 -0.551183
C28   C     C_R   0.110690 0.878554 0.106696 0.650567
V4    V     V_3+5 0.829450 0.982250 0.992700 1.417347
O20   O     O_3   0.104410 0.051000 0.992740 -0.372059
O21   O     O_3   0.271832 0.740391 0.158184 -0.573386
C29   C     C_3   0.244451 0.688920 0.083813 0.098372
H12   H     H_    0.383478 0.655265 0.069011 0.140146
H13   H     H_    0.207764 0.731113 0.028956 0.084702
C30   C     C_3   0.092025 0.616111 0.095317 -0.306178
H14   H     H_    0.139892 0.570077 0.145573 0.197106
H15   H     H_    0.952916 0.647336 0.113729 0.199276
C31   C     C_3   0.058412 0.562174 0.014908 -0.893595
H16   H     H_    0.003280 0.606700 0.964946 0.230431
H17   H     H_    0.950747 0.509046 0.025628 0.243372
H18   H     H_    0.194368 0.529996 0.994371 0.238338
O22   O     O_3   0.428667 0.225504 0.787857 -0.580463
C32   C     C_3   0.254754 0.177482 0.785555 0.082134
H19   H     H_    0.151146 0.222925 0.753861 0.162560
H20   H     H_    0.197389 0.168433 0.849004 0.151690
C33   C     C_3   0.257972 0.090245 0.733036 -0.338142
H21   H     H_    0.309356 0.103102 0.669341 0.182801
H22   H     H_    0.355219 0.040240 0.761922 0.228475
C34   C     C_3   0.055996 0.051070 0.725231 -0.817084
H23   H     H_    0.999786 0.036165 0.787780 0.237080
H24   H     H_    0.058055 0.987947 0.687901 0.228656
H25   H     H_    0.957581 0.098907 0.693290 0.222410
O23   O     O_3   0.872039 0.377470 0.760220 -0.590016
C35   C     C_3   0.809302 0.417771 0.835807 0.036801
H26   H     H_    0.923041 0.465044 0.857222 0.158684
H27   H     H_    0.793076 0.368376 0.886583 0.127377
C36   C     C_3   0.621477 0.470913 0.822714 -0.315136
H28   H     H_    0.637355 0.517809 0.769993 0.183577
H29   H     H_    0.502496 0.423945 0.807038 0.211229
C37   C     C_3   0.568161 0.524257 0.901053 -0.857346
H30   H     H_    0.560010 0.479375 0.955617 0.232402
H31   H     H_    0.425670 0.556092 0.891061 0.231930
H32   H     H_    0.675126 0.577755 0.913968 0.232641
N1    N     N_3   0.576669 0.226702 0.625896 -0.704883
H33   H     H_    0.427093 0.233644 0.626179 0.256312
H34   H     H_    0.620064 0.167238 0.654375 0.236511
O24   O     O_3   0.958970 0.191057 0.168013 -0.558076
C38   C     C_3   0.059075 0.264524 0.134762 0.100387
H35   H     H_    0.214470 0.248243 0.140316 0.144593
H36   H     H_    0.038734 0.329138 0.169671 0.076728
C39   C     C_3   0.006371 0.277165 0.042228 -0.317761
H37   H     H_    0.964495 0.212237 0.012745 0.229228
H38   H     H_    0.881044 0.323728 0.037343 0.151460
C40   C     C_3   0.175252 0.314628 0.993935 -0.837833
H39   H     H_    0.229417 0.376739 0.024864 0.230119
H40   H     H_    0.129365 0.330027 0.929118 0.235885
H41   H     H_    0.294249 0.264383 0.991162 0.236655
N2    N     N_3   0.756591 0.801901 0.763727 -0.660160
H42   H     H_    0.754227 0.871892 0.759800 0.248829
H43   H     H_    0.713103 0.785656 0.823800 0.241685
O25   O     O_3   0.373027 0.883019 0.709541 -0.580034
C41   C     C_3   0.390232 0.898122 0.622748 0.047261
H44   H     H_    0.464233 0.963333 0.615959 0.142608
H45   H     H_    0.248189 0.906400 0.591202 0.110668
C42   C     C_3   0.512577 0.825970 0.578307 -0.305375
H46   H     H_    0.657578 0.822946 0.607609 0.220853
H47   H     H_    0.444965 0.759375 0.583221 0.200966
C43   C     C_3   0.534029 0.846265 0.485841 -0.838439
H48   H     H_    0.390722 0.847578 0.454331 0.230875
H49   H     H_    0.623625 0.793152 0.455643 0.232504
H50   H     H_    0.605227 0.912051 0.478071 0.232139

loop_
_geom_bond_atom_site_label_1
_geom_bond_atom_site_label_2
_ccdc_geom_bond_type
O18   V4    S    
C35   H26   S    
C10   O25   S    
C38   H35   S    
C6    C7    S    
C21   C22   D    
N2    H42   S    
C32   C33   S    
C1    O6    A    
C39   H38   S    
O25   C41   S    
O15   C27   A    
C11   H4    S    
O11   C26   A    
C37   H30   S    
C5    C12   S    
C2    C24   S    
C17   C18   D    
C32   H20   S    
C7    C27   S    
O5    C3    A    
C29   H13   S    
V2    O10   S    
O16   V4    S    
C13   C15   S    
C5    H2    S    
O12   V3    S    
O17   V3    S    
O19   V4    S    
C6    H1    S    
C9    C12   S    
C42   H46   S    
C43   H50   S    
C15   H7    S    
O8    V2    S    
C1    C20   S    
C23   H10   S    
C30   H14   S    
C41   H45   S    
C40   H39   S    
V3    O20   S    
O1    V2    S    
C9    H3    S    
C13   C14   D    
O7    V1    S    
C22   C25   S    
C41   C42   S    
C18   O22   S    
C38   H36   S    
O9    C4    A    
C40   H40   S    
C6    C11   S    
C39   H37   S    
N1    H34   S    
O14   C26   A    
N1    H33   S    
C24   H11   S    
C32   H19   S    
C19   C20   D    
C31   H17   S    
O15   V3    S    
O23   C35   S    
O12   C25   A    
C11   C12   S    
C16   C28   S    
C4    C12   S    
O19   C28   A    
C42   C43   S    
O2    C1    A    
O22   C32   S    
V4    O20   S    
C31   H18   S    
C36   H29   S    
C9    C10   S    
C29   C30   S    
C16   O21   S    
C5    C6    S    
C21   O24   S    
N2    H43   S    
C10   C11   S    
C43   H48   S    
O3    C4    A    
C18   C26   S    
C30   H15   S    
C37   H32   S    
C34   H23   S    
O6    V2    S    
C34   H24   S    
O9    V2    S    
C21   C23   S    
O17   V4    S    
C35   C36   S    
C22   H9    S    
O2    V1    S    
O11   V4    S    
C20   N1    S    
C23   C24   D    
C36   C37   S    
O4    C2    A    
C3    C14   S    
O1    C2    A    
O13   V3    S    
C17   C19   S    
O5    V1    S    
C33   C34   S    
O8    C3    A    
C38   C39   S    
C34   H25   S    
C33   H22   S    
C5    C8    S    
O21   C29   S    
C35   H27   S    
O18   C27   A    
O4    V1    S    
C13   H5    S    
O3    V1    S    
V1    O10   S    
C14   H6    S    
C36   H28   S    
C30   C31   S    
C17   H8    S    
O24   C38   S    
C40   H41   S    
C15   C16   D    
C25   O16   A    
C29   H12   S    
O7    V2    S    
C42   H47   S    
C43   H49   S    
O14   V3    S    
C33   H21   S    
C31   H16   S    
C37   H31   S    
C8    N2    S    
C7    C10   S    
O13   C28   A    
C8    C9    S    
C19   O23   S    
C7    C8    S    
C39   C40   S    
C41   H44   S    
