data_mof_unit_38781.cif
_audit_creation_date              2012-12-10T17:10:58-0500
_audit_creation_method            fapswitch 2.2
_symmetry_space_group_name_H-M    P1
_symmetry_Int_Tables_number       1
_space_group_crystal_system       triclinic
_cell_length_a                    11.664933
_cell_length_b                    12.982888
_cell_length_c                    13.417442
_cell_angle_alpha                 92.636489
_cell_angle_beta                  76.174025
_cell_angle_gamma                 100.35302
_cell_volume                      1940.989002

loop_
_atom_site_label
_atom_site_type_symbol
_atom_type_description
_atom_site_fract_x
_atom_site_fract_y
_atom_site_fract_z
_atom_type_partial_charge
C1    C     C_R   0.522287 0.701072 0.499340 0.820759
C2    C     C_R   0.441923 0.479769 0.976485 0.097922
C3    C     C_R   0.467023 0.455918 0.870279 0.017552
C4    C     C_R   0.528432 0.469826 0.032926 0.035215
C5    C     C_R   0.632087 0.426725 0.985157 0.030135
C6    C     C_R   0.643922 0.386564 0.884444 0.248807
C7    C     C_R   0.561880 0.401670 0.828648 -0.229854
C8    C     C_R   0.515579 0.503030 0.135376 -0.334757
C9    C     C_R   0.708508 0.461935 0.140334 0.443480
C10   C     C_R   0.394578 0.484741 0.808696 -0.084538
C11   C     C_R   0.463337 0.185588 0.504747 -0.151669
C12   C     C_R   0.435280 0.490726 0.696044 0.762784
C13   C     C_R   0.537302 0.815008 0.494598 -0.089992
C14   C     C_R   0.658696 0.985750 0.447974 -0.246825
C15   C     C_R   0.650519 0.877703 0.455926 0.239709
C16   C     C_R   0.434798 0.861332 0.525463 -0.294809
C17   C     C_R   0.443464 0.969025 0.518480 0.105396
C18   C     C_R   0.556293 0.031536 0.479613 0.134158
C19   C     C_R   0.565350 0.139166 0.472796 -0.311580
C20   C     C_R   0.350338 0.123509 0.544644 0.445778
C21   C     C_R   0.340942 0.015103 0.549711 -0.288907
C22   C     C_R   0.949096 0.605098 0.588526 -0.338672
C23   C     C_R   0.478062 0.299110 0.499976 0.826922
C24   C     C_R   0.829285 0.593710 0.580948 0.075562
C25   C     C_R   0.854536 0.452185 0.464783 0.051574
C26   C     C_R   0.975468 0.460694 0.470170 -0.005203
C27   C     C_R   0.023601 0.538418 0.532347 0.075293
C28   C     C_R   0.144754 0.546602 0.537220 -0.090620
C29   C     C_R   0.170988 0.406168 0.418257 0.703854
C30   C     C_R   0.048898 0.393513 0.414594 -0.428319
C31   C     C_R   0.564103 0.503180 0.303561 0.829828
C32   C     C_R   0.722321 0.426344 0.038624 -0.303650
C33   C     C_R   0.599632 0.492281 0.191166 -0.138993
C34   C     C_R   0.286831 0.518570 0.855747 -0.192770
C35   C     C_R   0.254530 0.530108 0.961485 -0.157464
C36   C     C_R   0.331692 0.513396 0.021372 -0.174451
Cu1   Cu    Cu3+1 0.386470 0.492430 0.492410 0.973062
Cu2   Cu    Cu3+1 0.613530 0.507570 0.507590 0.956530
H1    H     H_    0.745213 0.033727 0.417073 0.138893
H2    H     H_    0.253865 0.967478 0.579224 0.148307
H3    H     H_    0.347902 0.813412 0.555367 0.155242
H4    H     H_    0.182202 0.604982 0.586316 0.138361
H5    H     H_    0.982888 0.665304 0.637978 0.135319
H6    H     H_    0.011299 0.331636 0.368905 0.156116
H7    H     H_    0.772074 0.644634 0.625185 0.131490
H8    H     H_    0.817084 0.393274 0.416138 0.148589
H9    H     H_    0.804605 0.399016 0.002268 0.147855
H10   H     H_    0.439325 0.536691 0.174944 0.165667
H11   H     H_    0.228710 0.538910 0.810499 0.145020
H12   H     H_    0.300915 0.525772 0.102548 0.114208
H13   H     H_    0.170990 0.555995 0.996986 0.131555
H14   H     H_    0.571341 0.366975 0.752908 0.177217
H15   H     H_    0.652178 0.187003 0.442377 0.167977
N1    N     N_R   0.215880 0.481050 0.481000 -0.221359
N2    N     N_R   0.784100 0.518950 0.519000 -0.183772
O1    O     O_R   0.419710 0.645650 0.494620 -0.599998
O2    O     O_R   0.611450 0.658430 0.507430 -0.553400
O3    O     O_R   0.357340 0.490460 0.641450 -0.592653
O4    O     O_R   0.549080 0.503250 0.654260 -0.590596
O5    O     O_R   0.388550 0.341570 0.492570 -0.488823
O6    O     O_R   0.580290 0.354350 0.505380 -0.611383
O7    O     O_R   0.450920 0.496750 0.345740 -0.578530
O8    O     O_R   0.642660 0.509540 0.358550 -0.533404
O9    O     O_3   0.797810 0.460535 0.191979 -0.573370
C37   C     C_3   0.898246 0.536842 0.148660 0.071154
H16   H     H_    0.871778 0.614037 0.141079 0.135478
H17   H     H_    0.945237 0.510901 0.072008 0.129395
C38   C     C_3   0.986265 0.552329 0.217488 -0.792958
H18   H     H_    0.013406 0.476687 0.228185 0.242057
H19   H     H_    0.067414 0.609073 0.181859 0.189212
H20   H     H_    0.944310 0.583758 0.293094 0.261123
O10   O     O_3   0.248205 0.167729 0.576230 -0.549988
C39   C     C_3   0.233544 0.193770 0.681352 0.086287
H21   H     H_    0.315397 0.244532 0.696737 0.113686
H22   H     H_    0.212442 0.121549 0.728701 0.129044
C40   C     C_3   0.130020 0.253862 0.713915 -0.761150
H23   H     H_    0.045915 0.204275 0.702816 0.237348
H24   H     H_    0.118455 0.276102 0.796180 0.192759
H25   H     H_    0.148401 0.326121 0.667346 0.262173
N3    N     N_2   0.755182 0.832261 0.420157 -0.412552
H26   H     H_    0.799221 0.853292 0.345772 0.241031
C41   C     C_3   0.836003 0.847655 0.488296 -0.655956
H27   H     H_    0.908237 0.800766 0.460525 0.226669
H28   H     H_    0.787247 0.821864 0.567237 0.227091
H29   H     H_    0.877465 0.931567 0.490190 0.214408
O11   O     O_3   0.243660 0.337028 0.367818 -0.537248
C42   C     C_3   0.240739 0.323650 0.262993 0.047190
H30   H     H_    0.334445 0.339361 0.216742 0.183110
H31   H     H_    0.192219 0.378017 0.234008 0.102722
C43   C     C_3   0.188716 0.210483 0.242989 -0.800573
H32   H     H_    0.094952 0.189806 0.288354 0.237031
H33   H     H_    0.189920 0.199583 0.160193 0.204565
H34   H     H_    0.243190 0.157077 0.264634 0.260899
N4    N     N_2   0.734766 0.327301 0.838448 -0.439072
H35   H     H_    0.761162 0.282470 0.887417 0.249062
C44   C     C_3   0.832574 0.382543 0.761709 -0.678461
H36   H     H_    0.881544 0.450392 0.796905 0.217442
H37   H     H_    0.798097 0.410017 0.699337 0.253714
H38   H     H_    0.895727 0.328993 0.727415 0.227532

loop_
_geom_bond_atom_site_label_1
_geom_bond_atom_site_label_2
_ccdc_geom_bond_type
C42   H30   S    
C9    O9    S    
C39   H21   S    
C14   C18   A    
C35   C36   A    
C40   H25   S    
C4    C8    A    
Cu1   O7    S    
C24   N2    A    
C11   C19   A    
C26   C27   A    
C29   C30   A    
C24   H7    S    
C1    O1    A    
C40   H24   S    
C7    H14   S    
C18   C19   A    
C3    C7    A    
C5    C6    A    
C29   N1    A    
C44   H38   S    
C34   C35   A    
C11   C23   S    
C9    C32   A    
C14   H1    S    
Cu1   O1    S    
Cu2   N2    S    
C22   H5    S    
C38   H18   S    
C6    N4    S    
C44   H37   S    
C31   C33   S    
Cu1   O3    S    
Cu2   O6    S    
C12   O3    A    
C19   H15   S    
C9    C33   A    
C39   H22   S    
C31   O7    A    
C30   H6    S    
C23   O5    A    
C11   C20   A    
C31   O8    A    
C40   H23   S    
N3    C41   S    
C28   N1    A    
O11   C42   S    
N3    H26   S    
C37   H17   S    
C25   C26   A    
C41   H27   S    
C17   C21   A    
C2    C4    A    
C8    H10   S    
Cu1   Cu2   S    
C1    O2    A    
Cu2   O2    S    
C43   H33   S    
C15   N3    S    
C23   O6    A    
C37   C38   S    
C44   H36   S    
C17   C18   A    
C10   C34   A    
N4    C44   S    
C29   O11   S    
C10   C12   S    
Cu1   N1    S    
C26   C30   A    
C41   H28   S    
C22   C27   A    
C13   C15   A    
C35   H13   S    
C39   C40   S    
C22   C24   A    
C42   C43   S    
C1    C13   S    
C36   H12   S    
C43   H34   S    
Cu2   O8    S    
C2    C36   A    
C34   H11   S    
C25   N2    A    
O10   C39   S    
C6    C7    A    
C41   H29   S    
O9    C37   S    
C5    C32   A    
C42   H31   S    
C2    C3    A    
C3    C10   A    
C43   H32   S    
C16   C17   A    
C21   H2    S    
C38   H20   S    
C16   H3    S    
C28   H4    S    
C32   H9    S    
C8    C33   A    
C12   O4    A    
N4    H35   S    
Cu1   O5    S    
Cu2   O4    S    
C4    C5    A    
C20   C21   A    
C38   H19   S    
C37   H16   S    
C13   C16   A    
C27   C28   A    
C14   C15   A    
C20   O10   S    
C25   H8    S    
