data_mof_unit_25656.cif
_audit_creation_date              2012-12-11T21:12:09-0500
_audit_creation_method            fapswitch 2.2
_symmetry_space_group_name_H-M    P1
_symmetry_Int_Tables_number       1
_space_group_crystal_system       triclinic
_cell_length_a                    8.310549
_cell_length_b                    18.767288
_cell_length_c                    26.996819
_cell_angle_alpha                 99.233034
_cell_angle_beta                  92.834718
_cell_angle_gamma                 88.345231
_cell_volume                      4150.02339708

loop_
_atom_site_label
_atom_site_type_symbol
_atom_type_description
_atom_site_fract_x
_atom_site_fract_y
_atom_site_fract_z
_atom_type_partial_charge
Ba1   Ba    Ba6+2 0.160810 0.465630 0.521640 1.716541
Ba2   Ba    Ba6+2 0.649380 0.534380 0.478400 1.806919
C1    C     C_3   0.495466 0.267828 0.693042 -0.295977
C2    C     C_R   0.061088 0.096130 0.447809 -0.077469
C3    C     C_R   0.205490 0.956010 0.460546 -0.125586
C4    C     C_3   0.952754 0.270987 0.634043 0.981783
C5    C     C_R   0.051546 0.977993 0.477492 -0.056733
C6    C     C_R   0.265700 0.886346 0.460969 0.549042
C7    C     C_R   0.173182 0.834072 0.477986 -0.080054
C8    C     C_R   0.024048 0.856634 0.499727 -0.055742
C9    C     C_R   0.963886 0.928989 0.499970 0.016846
C10   C     C_R   0.223850 0.760572 0.474970 0.019672
C11   C     C_R   0.126663 0.711680 0.493033 -0.185516
C12   C     C_3   0.455169 0.301875 0.646186 0.319876
C13   C     C_R   0.986619 0.733868 0.518069 0.089815
C14   C     C_R   0.936843 0.807586 0.522563 -0.035955
C15   C     C_R   0.841112 0.071548 0.498060 0.024558
C16   C     C_3   0.950920 0.206391 0.662614 0.946167
C17   C     C_R   0.782759 0.144063 0.498491 0.021574
C18   C     C_R   0.870401 0.192985 0.475727 -0.000892
C19   C     C_R   0.003362 0.166315 0.448082 -0.013417
C20   C     C_R   0.804194 0.834277 0.550116 -0.005545
C21   C     C_R   0.743985 0.904003 0.549931 -0.022583
C22   C     C_R   0.817395 0.951949 0.523161 0.050099
C23   C     C_3   0.436686 0.312161 0.390097 0.849963
C24   C     C_R   0.753476 0.022885 0.521057 0.024482
C25   C     C_R   0.602409 0.046582 0.540206 -0.055628
C26   C     C_R   0.636171 0.167419 0.521211 -0.031345
C27   C     C_R   0.545689 0.117081 0.540375 -0.064118
C28   C     C_3   0.839771 0.618976 0.630763 0.326801
C29   C     C_R   0.584258 0.240351 0.523761 -0.053522
C30   C     C_R   0.680128 0.289158 0.505274 -0.216637
C31   C     C_R   0.821168 0.266726 0.480774 0.145560
C32   C     C_R   0.300622 0.457056 0.176247 0.676703
C33   C     C_R   0.191558 0.576092 0.173648 0.714620
C34   C     C_3   0.384547 0.234524 0.374348 -0.273102
C35   C     C_2   0.053060 0.557506 0.272121 0.654128
C36   C     C_3   0.045078 0.582732 0.328044 -0.106364
C37   C     C_1   0.280792 0.503336 0.338194 -0.013292
C38   C     C_2   0.317644 0.504157 0.290903 -0.145973
C39   C     C_2   0.192976 0.527092 0.253703 0.180067
C40   C     C_3   0.839597 0.635003 0.687803 0.539240
C41   C     C_R   0.304312 0.507979 0.098274 -0.165175
C42   C     C_R   0.346613 0.451749 0.125819 -0.112808
C43   C     C_R   0.441585 0.393669 0.103071 0.645979
C44   C     C_R   0.229089 0.570849 0.122853 -0.071585
C45   C     C_3   0.826824 0.740329 0.381065 0.651705
C46   C     C_2   0.157000 0.540821 0.359217 0.306675
C47   C     C_2   0.645791 0.469575 0.636176 -0.306061
C48   C     C_R   0.457895 0.433017 0.970461 -0.004360
C49   C     C_R   0.326049 0.552264 0.967350 -0.015693
C50   C     C_R   0.415934 0.491419 0.943991 -0.078559
C51   C     C_R   0.521983 0.368041 0.942576 0.323867
C52   C     C_3   0.960913 0.378907 0.367562 0.302985
C53   C     C_R   0.573829 0.367783 0.893621 0.583930
C54   C     C_R   0.543451 0.427543 0.868578 -0.116793
C55   C     C_R   0.457959 0.487843 0.892940 -0.168517
C56   C     C_3   0.776686 0.815657 0.369451 -0.245003
C57   C     C_R   0.411558 0.544228 0.865947 -0.087160
C58   C     C_R   0.463208 0.542787 0.816697 0.645329
C59   C     C_R   0.587378 0.426094 0.818380 0.646329
C60   C     C_2   0.733784 0.451014 0.723825 -0.085851
C61   C     C_3   0.749915 0.426338 0.668374 -0.075091
C62   C     C_1   0.516567 0.505272 0.654845 0.047079
C63   C     C_2   0.473228 0.504447 0.701640 -0.070155
C64   C     C_3   0.965912 0.358014 0.310700 0.386950
C65   C     C_2   0.591036 0.480070 0.740229 0.177392
C66   C     C_R   0.425677 0.440232 0.022804 0.000294
C67   C     C_3   0.368339 0.706707 0.352010 0.939973
C68   C     C_R   0.341546 0.502465 0.046588 -0.019892
C69   C     C_R   0.300833 0.560716 0.019923 0.046730
C70   C     C_R   0.485713 0.390096 0.053647 -0.067173
C71   C     C_R   0.203912 0.630131 0.097599 -0.106992
C72   C     C_R   0.255408 0.599927 0.936031 0.662339
C73   C     C_R   0.305387 0.598599 0.887506 -0.070058
C74   C     C_R   0.248305 0.627437 0.047894 0.453636
C75   C     C_3   0.357360 0.694338 0.600303 0.645008
C76   C     C_3   0.453729 0.763452 0.610447 -0.265186
C77   C     C_3   0.328773 0.755482 0.312256 0.584837
C78   C     C_R   0.987079 0.048474 0.474775 0.048022
F1    F     F_    0.725069 0.687873 0.702757 -0.654707
F2    F     F_    0.123639 0.641739 0.949289 -0.646398
F3    F     F_    0.153937 0.558180 0.409959 -0.713759
F4    F     F_    0.964678 0.418649 0.288073 -0.743888
F5    F     F_    0.602494 0.313091 0.394237 -0.751096
F6    F     F_    0.455202 0.646169 0.331235 -0.707088
F7    F     F_    0.019678 0.249672 0.588066 -0.697652
F8    F     F_    0.418014 0.872903 0.445909 -0.716975
F9    F     F_    0.501253 0.341832 0.129336 -0.618284
F10   F     F_    0.647895 0.307152 0.869723 -0.640619
F11   F     F_    0.926258 0.571849 0.241003 -0.631433
H1    H     H_    0.383269 0.352734 0.656549 0.063517
H2    H     H_    0.414598 0.798782 0.644994 0.127590
H3    H     H_    0.437469 0.793513 0.578280 0.048406
H4    H     H_    0.582527 0.749459 0.616626 0.138298
H5    H     H_    0.570851 0.315043 0.631503 -0.047002
H6    H     H_    0.598242 0.296299 0.714769 0.168810
H7    H     H_    0.386503 0.332015 0.427277 -0.033072
H8    H     H_    0.440826 0.210536 0.338846 0.140562
H9    H     H_    0.421985 0.202146 0.404144 0.039433
H10   H     H_    0.251513 0.232892 0.368337 0.045258
H11   H     H_    0.531766 0.209811 0.682417 0.179177
H12   H     H_    0.811917 0.585576 0.702977 -0.068254
H13   H     H_    0.784646 0.735141 0.418657 0.070325
H14   H     H_    0.646349 0.827009 0.371780 0.195595
H15   H     H_    0.838852 0.857480 0.396904 0.068019
H16   H     H_    0.811394 0.821448 0.331157 0.118182
H17   H     H_    0.256045 0.687556 0.364838 -0.115087
H18   H     H_    0.276804 0.807527 0.331581 0.007342
H19   H     H_    0.165990 0.655837 0.490297 0.113365
H20   H     H_    0.065715 0.199192 0.426281 0.078812
H21   H     H_    0.744780 0.801573 0.572335 0.084619
H22   H     H_    0.429640 0.131310 0.555913 0.129012
H23   H     H_    0.959958 0.653640 0.703301 0.038936
H24   H     H_    0.640759 0.345083 0.508181 0.059895
H25   H     H_    0.286274 0.992722 0.448129 0.105928
H26   H     H_    0.162934 0.080323 0.425007 0.060909
H27   H     H_    0.641060 0.919155 0.572334 0.064781
H28   H     H_    0.825324 0.286416 0.626764 -0.379877
H29   H     H_    0.522934 0.011466 0.554813 0.084983
H30   H     H_    0.438219 0.488714 0.279057 0.171553
H31   H     H_    0.827713 0.435823 0.749765 0.136766
H32   H     H_    0.575032 0.349187 0.041633 0.182344
H33   H     H_    0.157244 0.680589 0.117495 0.124689
H34   H     H_    0.078419 0.400814 0.383033 -0.063542
H35   H     H_    0.253065 0.638140 0.865743 0.160164
H36   H     H_    0.351253 0.519970 0.711932 0.135021
H37   H     H_    0.658722 0.457743 0.595893 0.079560
H38   H     H_    0.718244 0.602790 0.615646 -0.044482
H39   H     H_    0.927321 0.574125 0.620010 -0.007741
H40   H     H_    0.175328 0.730678 0.640183 0.323145
H41   H     H_    0.881093 0.131996 0.607282 0.318244
H42   H     H_    0.026116 0.741238 0.348496 0.286281
H43   H     H_    0.181391 0.759567 0.255167 0.341905
H44   H     H_    0.500901 0.725622 0.266282 0.369935
H45   H     H_    0.865209 0.420671 0.376333 0.103023
H46   H     H_    0.564523 0.262912 0.937772 0.379605
H47   H     H_    0.175462 0.203507 0.686670 0.313792
H48   H     H_    0.215135 0.732367 0.052460 0.324456
H49   H     H_    0.904897 0.187979 0.729200 0.354152
H50   H     H_    0.076221 0.325086 0.300839 0.058591
H51   H     H_    0.858524 0.326045 0.296008 0.110897
H52   H     H_    0.379921 0.667417 0.561412 0.008574
H53   H     H_    0.390216 0.272859 0.717340 0.118219
N1    N     N_R   0.224928 0.519149 0.200090 -0.428132
N2    N     N_R   0.549512 0.483764 0.792841 -0.436789
O1    O     O_2   0.106080 0.324280 0.466820 -0.485945
O2    O     O_2   0.716905 0.544378 0.325400 -0.383859
O3    O     O_3   0.758794 0.685541 0.344281 -0.527844
O4    O     O_3   0.859130 0.413620 0.470620 -0.469878
O5    O     O_3   0.459240 0.537930 0.559910 -0.503988
O6    O     O_2   0.583120 0.462390 0.379940 -0.434008
O7    O     O_3   0.380950 0.352979 0.353162 -0.657406
O8    O     O_2   0.557112 0.755686 0.483749 -0.473098
O9    O     O_3   0.460316 0.746564 0.391305 -0.607366
O10   O     O_2   0.326991 0.406193 0.198774 -0.482321
O11   O     O_2   0.657117 0.372509 0.797135 -0.516867
O12   O     O_3   0.405383 0.651795 0.636800 -0.598102
O13   O     O_2   0.131688 0.632579 0.194549 -0.503099
O14   O     O_2   0.432437 0.594606 0.795322 -0.551877
O15   O     O_3   0.376230 0.370290 0.556910 -0.488955
O16   O     O_2   0.247638 0.242933 0.518965 -0.422598
O17   O     O_3   0.927486 0.316766 0.387263 -0.636348
O18   O     O_3   0.366668 0.253530 0.610626 -0.531913
O19   O     O_2   0.227190 0.537650 0.620070 -0.462620
O20   O     O_3   0.971110 0.406970 0.583250 -0.449071
O21   O     O_2   0.075681 0.468871 0.674857 -0.511107
O22   O     O_3   0.193861 0.712245 0.604248 -0.783543
O23   O     O_3   0.042460 0.328111 0.661977 -0.608059
O24   O     O_3   0.835915 0.156808 0.639090 -0.733311
O25   O     O_3   0.994756 0.735695 0.382593 -0.829520
O26   O     O_3   0.215192 0.722844 0.276494 -0.740734
O27   O     O_3   0.468577 0.770453 0.288753 -0.700632
O28   O     O_3   0.518441 0.303568 0.961399 -0.706863
O29   O     O_3   0.103729 0.172044 0.662725 -0.687582
O30   O     O_3   0.258186 0.691038 0.028493 -0.644633
O31   O     O_3   0.906786 0.231063 0.712167 -0.728661
O32   O     O_2   0.704230 0.675760 0.533200 -0.506918
O33   O     O_3   0.951180 0.586390 0.529420 -0.463201
O34   O     O_3   0.434080 0.629720 0.443130 -0.426919
O35   O     O_3   0.882830 0.681369 0.612896 -0.603538
O36   O     O_3   0.351080 0.462080 0.440130 -0.424439
O37   O     O_3   0.839200 0.593040 0.416790 -0.450316
P1    P     P_3+3 0.929380 0.335110 0.452880 1.075826
P2    P     P_3+3 0.398530 0.559060 0.613740 1.038407
P3    P     P_3+3 0.960903 0.410181 0.647918 0.990614
P4    P     P_3+3 0.880940 0.664900 0.547160 1.038448
P5    P     P_3+3 0.838256 0.599899 0.353023 1.213200
P6    P     P_3+3 0.393126 0.276290 0.551253 1.038828
P7    P     P_3+3 0.397299 0.445377 0.376469 1.094120
P8    P     P_3+3 0.416235 0.723254 0.448988 1.054949

loop_
_geom_bond_atom_site_label_1
_geom_bond_atom_site_label_2
_ccdc_geom_bond_type
O1    P1    D    
Ba2   O4    S    
C53   C54   A    
C47   C61   S    
C25   C27   A    
C77   O27   S    
C17   C18   A    
C49   C72   A    
O8    P8    D    
C40   H12   S    
C21   H27   S    
C70   H32   S    
O35   P4    S    
C64   H50   S    
C75   C76   S    
C75   O22   S    
C5    C9    A    
C38   H30   S    
C24   C25   A    
C35   C36   S    
C49   C69   A    
C60   C65   D    
C15   C24   A    
H44   O27   S    
C26   C27   A    
C22   C24   A    
O23   P3    S    
Ba1   Ba2   S    
C53   F10   S    
C33   N1    Am   
C69   C74   A    
C32   N1    Am   
C55   C57   A    
O33   P4    S    
C76   H2    S    
C13   C14   A    
C9    C22   A    
C54   C55   A    
C56   H16   S    
Ba2   O36   S    
C10   P8    S    
Ba2   P4    S    
O6    P7    D    
C15   C17   A    
C40   H23   S    
C45   O3    S    
C16   O31   S    
C6    C7    A    
C63   C65   S    
C48   C50   A    
C21   C22   A    
C68   C69   A    
C52   O17   S    
C43   F9    S    
C7    C8    A    
C36   C46   S    
C62   P2    S    
C75   O12   S    
C16   O29   S    
C71   H33   S    
C51   C53   A    
Ba1   O15   S    
C57   C58   A    
C47   C62   D    
H43   O26   S    
C43   C70   A    
C12   O18   S    
H48   O30   S    
C40   F1    S    
H41   O24   S    
C72   F2    S    
C12   H5    S    
C19   H20   S    
C67   H17   S    
C51   O28   S    
O7    P7    S    
C16   O24   S    
Ba2   O6    S    
C4    C16   S    
C52   H34   S    
C48   C51   A    
C72   C73   A    
C77   H18   S    
C23   O7    S    
C49   C50   A    
C25   H29   S    
C74   O30   S    
C32   C42   A    
O15   P6    S    
C8    C9    A    
C37   C38   D    
C3    C5    A    
C37   P7    S    
C35   F11   S    
O4    P1    S    
C28   H39   S    
O21   P3    D    
C13   P4    S    
C15   C78   A    
O19   P2    D    
C4    F7    S    
C30   C31   A    
C34   H10   S    
C6    F8    S    
C77   O26   S    
C59   N2    Am   
C75   H52   S    
C60   C61   S    
C59   O11   D    
C1    H6    S    
C29   C30   A    
Ba1   O19   S    
C76   H4    S    
C66   C70   A    
C61   P3    S    
C52   H45   S    
C65   N2    S    
C23   F5    S    
H49   O31   S    
C31   P1    S    
Ba1   O4    S    
C34   H9    S    
C67   O9    S    
C10   C11   A    
C17   C26   A    
C11   H19   S    
C12   H1    S    
C1    C12   S    
O9    P8    S    
C64   H51   S    
O32   P4    D    
C1    H11   S    
C38   C39   S    
H40   O22   S    
C41   C68   A    
C20   H21   S    
C11   C13   A    
C41   C42   A    
C28   O35   S    
C2    H26   S    
C67   C77   S    
Ba2   O33   S    
C18   C31   A    
O18   P6    S    
O12   P2    S    
C57   C73   A    
C4    H28   S    
C60   H31   S    
C5    C78   A    
C42   C43   A    
Ba2   O5    S    
O5    P2    S    
C47   H37   S    
C27   H22   S    
C14   C20   A    
C45   H13   S    
O17   P1    S    
O20   P3    S    
C63   H36   S    
C26   C29   A    
C1    H53   S    
C58   O14   D    
O34   P8    S    
C3    C6    A    
C45   O25   S    
Ba1   O36   S    
C2    C78   A    
C52   C64   S    
C32   O10   D    
O2    P5    D    
C28   H38   S    
O36   P7    S    
C29   P6    S    
Ba2   O34   S    
C46   F3    S    
C56   H14   S    
Ba1   P2    S    
C73   H35   S    
H42   O25   S    
H46   O28   S    
C3    H25   S    
C8    C14   A    
O37   P5    S    
C62   C63   D    
C45   C56   S    
C2    C19   A    
Ba1   O33   S    
C41   C44   A    
Ba1   O20   S    
C76   H3    S    
C36   P5    S    
C71   C74   A    
Ba1   P1    S    
Ba1   O5    S    
C34   H8    S    
Ba2   O37   S    
C44   C71   A    
C30   H24   S    
C35   C39   D    
C7    C10   A    
C33   O13   D    
Ba1   O1    S    
C50   C55   A    
C23   C34   S    
C64   F4    S    
C23   H7    S    
C58   N2    Am   
C39   N1    S    
C18   C19   A    
O3    P5    S    
C66   C68   A    
H47   O29   S    
C20   C21   A    
C28   C40   S    
Ba2   O32   S    
C56   H15   S    
C33   C44   A    
C48   C66   A    
O16   P6    D    
C67   F6    S    
C37   C46   D    
C4    O23   S    
C54   C59   A    
