data_mof_unit_54760.cif
_audit_creation_date              2012-12-10T20:27:13-0500
_audit_creation_method            fapswitch 2.2
_symmetry_space_group_name_H-M    P1
_symmetry_Int_Tables_number       1
_space_group_crystal_system       triclinic
_cell_length_a                    10.669195
_cell_length_b                    10.724903
_cell_length_c                    9.887819
_cell_angle_alpha                 89.641943
_cell_angle_beta                  103.549188
_cell_angle_gamma                 89.476682
_cell_volume                      1099.8490469

loop_
_atom_site_label
_atom_site_type_symbol
_atom_type_description
_atom_site_fract_x
_atom_site_fract_y
_atom_site_fract_z
_atom_type_partial_charge
C1    C     C_R   0.503235 0.259890 0.501384 0.867080
C2    C     C_R   0.604205 0.539565 0.097911 -0.155939
C3    C     C_R   0.604924 0.537767 0.954310 -0.104131
C4    C     C_R   0.258291 0.509290 0.442597 0.914161
C5    C     C_R   0.389135 0.477631 0.900569 0.147121
C6    C     C_3   0.306028 0.366299 0.866251 -0.635201
C7    C     C_3   0.319229 0.349116 0.022595 0.386595
C8    C     C_R   0.504881 0.739637 0.500972 0.865362
C9    C     C_R   0.741577 0.503630 0.557537 0.933643
C10   C     C_2   0.119423 0.531989 0.411085 -0.026753
C11   C     C_2   0.064711 0.587454 0.506735 0.180478
C12   C     C_R   0.518630 0.127677 0.507825 -0.085616
C13   C     C_2   0.878554 0.524701 0.587905 -0.397964
C14   C     C_2   0.926521 0.579421 0.489614 -0.190270
C15   C     C_R   0.492823 0.061184 0.619538 0.010657
C16   C     C_3   0.114344 0.253475 0.048551 -0.800575
C17   C     C_3   0.527021 0.223529 0.070686 -0.810240
C18   C     C_3   0.086897 0.757737 0.672594 -0.821087
C19   C     C_3   0.015761 0.588790 0.174668 -0.824685
C20   C     C_3   0.554218 0.874864 0.911017 -0.755845
C21   C     C_3   0.147863 0.104792 0.649050 -0.837349
C22   C     C_R   0.569218 0.064793 0.408097 -0.202058
C23   C     C_R   0.569308 0.935289 0.406177 -0.219585
C24   C     C_R   0.523210 0.870606 0.507764 -0.117376
C25   C     C_R   0.498810 0.933961 0.620914 0.089166
C26   C     C_3   0.388373 0.921323 0.689248 0.018391
C27   C     C_3   0.380137 0.063223 0.687031 -0.070980
C28   C     C_R   0.392043 0.469922 0.043220 0.148054
H1    H     H_    0.864865 0.608834 0.390749 0.167483
H2    H     H_    0.020069 0.280305 0.069902 0.243027
H3    H     H_    0.157682 0.179770 0.125001 0.249716
H4    H     H_    0.097014 0.216884 0.941107 0.225567
H5    H     H_    0.343674 0.155996 0.050536 0.228765
H6    H     H_    0.558407 0.124828 0.090120 0.212622
H7    H     H_    0.590993 0.280190 0.150942 0.267221
H8    H     H_    0.540132 0.249459 0.966305 0.234246
H9    H     H_    0.166786 0.581848 0.711236 0.237448
H10   H     H_    0.156899 0.797279 0.762410 0.225825
H11   H     H_    0.996754 0.739339 0.706719 0.248080
H12   H     H_    0.402736 0.105162 0.791775 0.159803
H13   H     H_    0.067143 0.826573 0.585592 0.255303
H14   H     H_    0.939408 0.496703 0.687945 0.149412
H15   H     H_    0.963996 0.440383 0.285652 0.231750
H16   H     H_    0.959908 0.549419 0.075355 0.227901
H17   H     H_    0.106684 0.628177 0.157143 0.256330
H18   H     H_    0.957583 0.664851 0.206231 0.228568
H19   H     H_    0.599603 0.886833 0.323217 0.160191
H20   H     H_    0.354810 0.887069 0.886447 0.215772
H21   H     H_    0.560815 0.834464 0.016195 0.224305
H22   H     H_    0.586386 0.973100 0.922108 0.221281
H23   H     H_    0.690570 0.565888 0.921950 0.138944
H24   H     H_    0.619206 0.819940 0.860747 0.254739
H25   H     H_    0.270811 0.194485 0.548160 0.243665
H26   H     H_    0.060969 0.110113 0.561772 0.249500
H27   H     H_    0.145561 0.184598 0.718739 0.238264
H28   H     H_    0.144863 0.017287 0.708187 0.247080
H29   H     H_    0.206836 0.391230 0.807979 0.172902
H30   H     H_    0.351911 0.294846 0.814439 0.226415
H31   H     H_    0.603512 0.115167 0.329526 0.171194
H32   H     H_    0.304562 0.874437 0.621430 0.169143
H33   H     H_    0.689120 0.569704 0.172811 0.144309
H34   H     H_    0.146890 0.441578 0.026574 0.221401
N1    N     N_R   0.499160 0.499140 0.142600 -0.108149
N2    N     N_R   0.499160 0.499180 0.856960 -0.084039
N3    N     N_2   0.197208 0.361202 0.064068 -0.263415
N4    N     N_2   0.393521 0.237031 0.080157 -0.250286
N5    N     N_2   0.139737 0.643849 0.629738 -0.276254
N6    N     N_2   0.043999 0.491590 0.280016 -0.300235
N7    N     N_2   0.422315 0.868131 0.829692 -0.281406
N8    N     N_2   0.262098 0.109609 0.594301 -0.290286
O1    O     O_R   0.500020 0.316790 0.614700 -0.628553
O2    O     O_R   0.500000 0.316760 0.385350 -0.590517
O3    O     O_R   0.317820 0.500020 0.571850 -0.621910
O4    O     O_R   0.317800 0.499980 0.342510 -0.581765
O5    O     O_R   0.500000 0.683240 0.614650 -0.595642
O6    O     O_R   0.499980 0.683210 0.385300 -0.626599
O7    O     O_R   0.682200 0.500020 0.657490 -0.622828
O8    O     O_R   0.682180 0.499980 0.428150 -0.625901
Zn1   Zn    Zn3+2 0.500010 0.500020 0.653140 0.943528
Zn2   Zn    Zn3+2 0.499990 0.499980 0.346860 0.951034

loop_
_geom_bond_atom_site_label_1
_geom_bond_atom_site_label_2
_ccdc_geom_bond_type
C6    H30   S    
H20   N7    S    
O1    Zn1   S    
C19   H18   S    
C3    N2    A    
C2    N1    A    
C16   H3    S    
C26   C27   S    
C1    O1    A    
C21   H26   S    
C11   C14   S    
O8    Zn2   S    
C15   C25   A    
C16   H2    S    
C12   C22   A    
C8    O6    A    
C9    C13   S    
C20   H22   S    
H15   N6    S    
C23   C24   A    
C17   H8    S    
C4    O4    A    
C2    H33   S    
O4    Zn2   S    
C13   C14   D    
C6    H29   S    
C1    C12   S    
H25   N8    S    
C13   H14   S    
C25   C26   S    
C11   N5    S    
H5    N4    S    
N1    Zn2   S    
O7    Zn1   S    
C1    O2    A    
C23   H19   S    
C24   C25   A    
C18   H13   S    
C22   H31   S    
C21   H27   S    
C3    H23   S    
C18   N5    S    
C8    O5    A    
C7    C28   S    
C5    N2    A    
C18   H11   S    
C20   H21   S    
C7    N3    S    
C5    C28   A    
C15   C27   S    
C12   C15   A    
C27   H12   S    
O3    Zn1   S    
C19   N6    S    
C9    O7    A    
C4    O3    A    
C27   N8    S    
N2    Zn1   S    
C20   N7    S    
C17   H6    S    
C14   H1    S    
C4    C10   S    
C19   H16   S    
H34   N3    S    
O6    Zn2   S    
C21   H28   S    
C19   H17   S    
C6    C7    S    
C10   N6    S    
C16   H4    S    
C21   N8    S    
C2    C3    A    
C18   H10   S    
O2    Zn2   S    
C7    N4    S    
C5    C6    S    
O5    Zn1   S    
H9    N5    S    
C8    C24   S    
C9    O8    A    
C17   N4    S    
C10   C11   D    
C28   N1    A    
C20   H24   S    
C26   N7    S    
C22   C23   A    
C16   N3    S    
C17   H7    S    
C26   H32   S    
