data_mof_unit_14067.cif
_audit_creation_date              2012-12-11T17:34:25-0500
_audit_creation_method            fapswitch 2.2
_symmetry_space_group_name_H-M    P1
_symmetry_Int_Tables_number       1
_space_group_crystal_system       triclinic
_cell_length_a                    23.827587
_cell_length_b                    7.221734
_cell_length_c                    20.618844
_cell_angle_alpha                 90.000615
_cell_angle_beta                  105.318827
_cell_angle_gamma                 90.000014
_cell_volume                      3421.95965573

loop_
_atom_site_label
_atom_site_type_symbol
_atom_type_description
_atom_site_fract_x
_atom_site_fract_y
_atom_site_fract_z
_atom_type_partial_charge
O1    O     O_R   0.449110 0.494310 0.552140 -0.536003
O2    O     O_R   0.550890 0.994310 0.447860 -0.536003
O3    O     O_R   0.440010 0.824420 0.415850 -0.535556
O4    O     O_R   0.559990 0.324420 0.584150 -0.535557
C1    C     C_R   0.425173 0.655368 0.391192 0.677239
C2    C     C_R   0.574826 0.155370 0.608809 0.677238
O5    O     O_R   0.442260 0.824040 0.549660 -0.542231
O6    O     O_R   0.557740 0.324040 0.450340 -0.542230
O7    O     O_R   0.553160 0.993960 0.582620 -0.528930
O8    O     O_R   0.446840 0.493960 0.417380 -0.528931
C3    C     C_R   0.428577 0.655369 0.567551 0.676160
C4    C     C_R   0.571423 0.155368 0.432449 0.676162
O9    O     O_3   0.536380 0.660670 0.510660 -0.371228
O10   O     O_3   0.463620 0.160670 0.489340 -0.371229
V1    V     V_3+5 0.493250 0.935680 0.498020 1.424508
V2    V     V_3+5 0.506750 0.435680 0.501980 1.424509
C5    C     C_R   0.823352 0.910392 0.170637 -0.134767
C6    C     C_R   0.176648 0.410390 0.829361 -0.134766
H1    H     H_    0.806276 0.784345 0.186638 0.106892
H2    H     H_    0.193723 0.284343 0.813361 0.106892
C7    C     C_R   0.862562 0.898497 0.130516 -0.166587
C8    C     C_R   0.137438 0.398496 0.869483 -0.166588
H3    H     H_    0.874809 0.762736 0.116635 0.122443
H4    H     H_    0.125191 0.262735 0.883363 0.122442
C9    C     C_R   0.885837 0.059855 0.109124 -0.052055
C10   C     C_R   0.114163 0.559854 0.890876 -0.052055
C11   C     C_R   0.868343 0.233079 0.128804 -0.166923
C12   C     C_R   0.131657 0.733078 0.871197 -0.166920
H5    H     H_    0.885010 0.360731 0.113557 0.125696
H6    H     H_    0.114989 0.860730 0.886445 0.125697
C13   C     C_R   0.829190 0.244466 0.168820 -0.137924
C14   C     C_R   0.170810 0.744465 0.831181 -0.137925
H7    H     H_    0.816704 0.379383 0.183325 0.106983
H8    H     H_    0.183296 0.879382 0.816677 0.106983
C15   C     C_R   0.806577 0.083430 0.190130 0.131109
C16   C     C_R   0.193423 0.583429 0.809869 0.131109
C17   C     C_1   0.766519 0.096416 0.232164 -0.056689
C18   C     C_1   0.233481 0.596415 0.767836 -0.056689
C19   C     C_1   0.733119 0.108110 0.267356 -0.054220
C20   C     C_1   0.266881 0.608111 0.732644 -0.054220
C21   C     C_R   0.670474 0.960007 0.330720 -0.131855
C22   C     C_R   0.329530 0.460009 0.669284 -0.131857
H9    H     H_    0.682902 0.825108 0.316131 0.106556
H10   H     H_    0.317105 0.325110 0.683877 0.106555
C23   C     C_R   0.631411 0.971347 0.370849 -0.149427
C24   C     C_R   0.368593 0.471349 0.629155 -0.149427
C25   C     C_R   0.614018 0.144543 0.390672 -0.046945
C26   C     C_R   0.385982 0.644545 0.609328 -0.046944
C27   C     C_R   0.637267 0.305925 0.369260 -0.158451
C28   C     C_R   0.362729 0.805926 0.630736 -0.158451
H11   H     H_    0.625081 0.441668 0.383230 0.123430
H12   H     H_    0.374912 0.941668 0.616763 0.123431
C29   C     C_R   0.676387 0.294077 0.329024 -0.128983
C30   C     C_R   0.323609 0.794078 0.670972 -0.128981
H13   H     H_    0.693462 0.420139 0.313034 0.107454
H14   H     H_    0.306531 0.920140 0.686958 0.107455
C31   C     C_R   0.693089 0.121063 0.309426 0.129799
C32   C     C_R   0.306910 0.621064 0.690574 0.129799
C33   C     C_R   0.640696 0.120907 0.794960 -0.168770
C34   C     C_R   0.359305 0.620877 0.205041 -0.168771
H15   H     H_    0.554760 0.137828 0.729398 0.121984
H16   H     H_    0.445240 0.637804 0.270603 0.121984
H17   H     H_    0.723859 0.114390 0.909099 0.122567
H18   H     H_    0.276143 0.614345 0.090901 0.122566
H19   H     H_    0.624673 0.121475 0.839512 0.123952
H20   H     H_    0.375327 0.621434 0.160489 0.123951
C35   C     C_R   0.619752 0.144597 0.673848 -0.129019
C36   C     C_R   0.380248 0.644590 0.326152 -0.129018
C37   C     C_R   0.903340 0.021801 0.768122 -0.255463
C38   C     C_R   0.096658 0.521825 0.231879 -0.255461
C39   C     C_R   0.865072 0.991229 0.705405 -0.116979
C40   C     C_R   0.134925 0.491257 0.294596 -0.116980
C41   C     C_R   0.804971 0.995847 0.696715 0.436952
C42   C     C_R   0.195026 0.495866 0.303286 0.436952
C43   C     C_R   0.781897 0.059229 0.750113 -0.021924
C44   C     C_R   0.218102 0.559232 0.249888 -0.021926
C45   C     C_R   0.821434 0.071953 0.815871 0.019726
C46   C     C_R   0.178566 0.571948 0.184129 0.019724
C47   C     C_R   0.721073 0.098461 0.741881 0.032681
C48   C     C_R   0.278927 0.598454 0.258119 0.032676
C49   C     C_R   0.700407 0.106617 0.800458 0.089332
C50   C     C_R   0.299593 0.606594 0.199543 0.089335
C51   C     C_R   0.739485 0.103918 0.864396 -0.174389
C52   C     C_R   0.260516 0.603886 0.135604 -0.174387
C53   C     C_R   0.799111 0.094777 0.871934 -0.160393
C54   C     C_R   0.200890 0.594754 0.128066 -0.160391
C55   C     C_R   0.680573 0.138872 0.678534 0.294749
C56   C     C_R   0.319426 0.638870 0.321467 0.294751
C57   C     C_R   0.600812 0.132607 0.732264 -0.205586
C58   C     C_R   0.399188 0.632587 0.267737 -0.205583
C59   C     C_R   0.882419 0.053463 0.824313 -0.076487
C60   C     C_R   0.117580 0.553470 0.175687 -0.076486
H21   H     H_    0.949669 0.007712 0.773717 0.130555
H22   H     H_    0.050328 0.507744 0.226282 0.130554
H23   H     H_    0.827595 0.100131 0.922429 0.103932
H24   H     H_    0.172406 0.600101 0.077570 0.103931
O11   O     O_R   0.053190 0.709680 0.082610 -0.531589
O12   O     O_R   0.946810 0.209680 0.917390 -0.531589
O13   O     O_R   0.057740 0.380240 0.950340 -0.540505
O14   O     O_R   0.942260 0.880240 0.049660 -0.540505
C61   C     C_R   0.071458 0.548987 0.932507 0.674176
C62   C     C_R   0.928542 0.048988 0.067493 0.674175
O15   O     O_R   0.060000 0.379940 0.084150 -0.533220
O16   O     O_R   0.940000 0.879940 0.915850 -0.533221
O17   O     O_R   0.949110 0.210100 0.052140 -0.538017
O18   O     O_R   0.050890 0.710100 0.947860 -0.538016
C63   C     C_R   0.074650 0.548302 0.109021 0.695761
C64   C     C_R   0.925350 0.048300 0.890979 0.695759
O19   O     O_3   0.963630 0.543720 0.989330 -0.372898
O20   O     O_3   0.036370 0.043720 0.010670 -0.372898
V3    V     V_3+5 0.006750 0.268680 0.001980 1.414556
V4    V     V_3+5 0.993250 0.768680 0.998020 1.414557
O21   O     O_3   0.701739 0.186855 0.624446 -0.621766
H25   H     H_    0.669487 0.221358 0.585254 0.285579
O22   O     O_3   0.298261 0.686866 0.375554 -0.621765
H26   H     H_    0.330513 0.721369 0.414746 0.285579
O23   O     O_3   0.771491 0.914266 0.638948 -0.613620
H27   H     H_    0.737570 0.855001 0.649826 0.298600
O24   O     O_3   0.228505 0.414288 0.361054 -0.613619
H28   H     H_    0.262425 0.355014 0.350175 0.298599
H29   H     H_    0.882356 0.949355 0.664065 0.150439
H30   H     H_    0.117640 0.449390 0.335936 0.150438
H31   H     H_    0.614744 0.843681 0.386086 0.125588
H32   H     H_    0.385263 0.343683 0.613921 0.125587

loop_
_geom_bond_atom_site_label_1
_geom_bond_atom_site_label_2
_ccdc_geom_bond_type
C11   H5    S    
C41   C43   A    
O1    C3    A    
O2    C4    A    
C22   C32   A    
C2    O7    A    
C47   C55   A    
C25   C27   A    
O18   V4    S    
C23   H31   S    
O5    C3    A    
C42   O24   S    
C28   C30   A    
C42   C44   A    
C14   C16   A    
C8    H4    S    
C38   H22   S    
C44   C46   A    
C37   H21   S    
C1    C36   S    
C10   C61   S    
C33   C57   A    
C9    C62   S    
O22   H26   S    
C19   C31   S    
C35   C57   A    
O12   C64   A    
C62   O17   A    
O15   V3    S    
C22   C24   A    
C23   C25   A    
C37   C39   A    
O20   V3    S    
H18   C52   S    
C34   C50   A    
C27   H11   S    
C36   C58   A    
C13   H7    S    
C40   H30   S    
C46   C54   A    
C26   C28   A    
O17   V3    S    
C34   H20   S    
O6    V2    S    
C21   H9    S    
C24   H32   S    
C3    C26   S    
C22   H10   S    
C4    C25   S    
C49   C51   A    
H15   C57   S    
C24   C26   A    
C29   H13   S    
C30   H14   S    
C20   C32   S    
C11   C13   A    
C44   C48   A    
C12   C14   A    
C41   O23   S    
C40   C42   A    
O19   V4    S    
C39   C41   A    
O11   V4    S    
C29   C31   A    
O5    V1    S    
C46   C60   A    
C5    C7    A    
H17   C51   S    
C14   H8    S    
O4    V2    S    
C60   C63   S    
C28   H12   S    
O6    C4    A    
O13   V3    S    
O14   C62   A    
O1    V2    S    
O2    V1    S    
C43   C45   A    
C54   H24   S    
C48   C50   A    
C2    C35   S    
C51   C53   A    
O14   V4    S    
C50   C52   A    
C7    H3    S    
C36   C56   A    
C13   C15   A    
O4    C2    A    
O16   C64   A    
O3    V1    S    
O16   V4    S    
O21   H25   S    
C30   C32   A    
C61   O18   A    
C7    C9    A    
C45   C59   A    
O12   V3    S    
C15   C17   S    
C6    C8    A    
C10   C12   A    
C59   C64   S    
C39   H29   S    
C38   C60   A    
C33   C49   A    
C52   C54   A    
O3    C1    A    
C38   C40   A    
O24   H28   S    
C47   C49   A    
C34   C58   A    
C9    C11   A    
C35   C55   A    
C56   O22   S    
C12   H6    S    
O7    V1    S    
C21   C31   A    
C1    O8    A    
C48   C56   A    
O8    V2    S    
O23   H27   S    
C33   H19   S    
C18   C20   T    
C53   H23   S    
C6    C16   A    
C27   C29   A    
H16   C58   S    
C16   C18   S    
C5    H1    S    
C6    H2    S    
C55   O21   S    
C45   C53   A    
O11   C63   A    
C17   C19   T    
C8    C10   A    
O9    V2    S    
C21   C23   A    
O10   V1    S    
O15   C63   A    
C5    C15   A    
C37   C59   A    
C43   C47   A    
O13   C61   A    
