data_mof_unit_8852.cif
_audit_creation_date              2012-12-10T16:47:30-0500
_audit_creation_method            fapswitch 2.2
_symmetry_space_group_name_H-M    P1
_symmetry_Int_Tables_number       1
_space_group_crystal_system       triclinic
_cell_length_a                    10.590327
_cell_length_b                    8.754631
_cell_length_c                    7.448141
_cell_angle_alpha                 102.55163
_cell_angle_beta                  94.235412
_cell_angle_gamma                 92.584275
_cell_volume                      670.878253538

loop_
_atom_site_label
_atom_site_type_symbol
_atom_type_description
_atom_site_fract_x
_atom_site_fract_y
_atom_site_fract_z
_atom_type_partial_charge
C1    C     C_R   0.493311 0.200589 0.454721 0.825496
C2    C     C_R   0.506689 0.799411 0.545279 0.825496
C3    C     C_R   0.259479 0.499812 0.502096 0.778718
C4    C     C_R   0.740521 0.500188 0.497904 0.778718
C5    C     C_3   0.048448 0.516773 0.675951 -0.132142
C6    C     C_3   0.951552 0.483227 0.324049 -0.132142
C7    C     C_3   0.955851 0.380338 0.568767 -0.167767
C8    C     C_3   0.044148 0.619662 0.431233 -0.167767
C9    C     C_3   0.877219 0.499786 0.495180 0.023847
C10   C     C_3   0.122781 0.500214 0.504820 0.023847
C11   C     C_3   0.967472 0.636224 0.602364 -0.170929
C12   C     C_3   0.032528 0.363776 0.397636 -0.170929
C13   C     C_2   0.474128 0.034915 0.434783 -0.256886
C14   C     C_2   0.525872 0.965085 0.565217 -0.256886
Cu1   Cu    Cu3+1 0.514140 0.517380 0.684380 0.974232
Cu2   Cu    Cu3+1 0.485860 0.482620 0.315620 0.974232
H1    H     H_    0.916187 0.282228 0.624330 0.141587
H2    H     H_    0.083813 0.717772 0.375670 0.141587
H3    H     H_    0.090839 0.530454 0.819856 0.148720
H4    H     H_    0.909161 0.469546 0.180144 0.148720
N1    N     N_2   0.464560 0.456420 0.038510 -0.203731
N2    N     N_2   0.535440 0.543580 0.961490 -0.203731
O1    O     O_R   0.509190 0.286130 0.619780 -0.580493
O2    O     O_R   0.490810 0.713870 0.380220 -0.580493
O3    O     O_R   0.485310 0.256770 0.308360 -0.572654
O4    O     O_R   0.514690 0.743230 0.691640 -0.572654
O5    O     O_R   0.328790 0.514640 0.655680 -0.591231
O6    O     O_R   0.671210 0.485360 0.344320 -0.591231
O7    O     O_R   0.304910 0.485280 0.344260 -0.581921
O8    O     O_R   0.695090 0.514720 0.655740 -0.581920
H5    H     H_    0.937376 0.747801 0.685398 0.136080
H6    H     H_    0.062623 0.252199 0.314602 0.136080
H7    H     H_    0.400303 0.379426 0.948865 0.226116
H8    H     H_    0.599696 0.620574 0.051135 0.226116
C15   C     C_1   0.386438 0.953858 0.279988 0.288574
N3    N     N_1   0.316660 0.889830 0.156881 -0.285619
C16   C     C_1   0.613562 0.046142 0.720012 0.288574
N4    N     N_1   0.683340 0.110170 0.843119 -0.285619

loop_
_geom_bond_atom_site_label_1
_geom_bond_atom_site_label_2
_ccdc_geom_bond_type
Cu2   O6    S    
C13   C15   S    
Cu2   N1    S    
C5    H3    S    
C6    H4    S    
Cu1   O5    S    
C15   N3    T    
C6    C9    S    
C3    O5    A    
Cu2   O7    S    
C11   H5    S    
C5    C10   S    
C2    O4    A    
C3    C10   S    
C13   C14   D    
C12   H6    S    
C14   C16   S    
C1    O3    A    
C9    C11   S    
C16   N4    T    
C10   C12   S    
C8    C11   S    
C2    C14   S    
C6    C12   S    
Cu1   O1    S    
C4    O6    A    
C1    O1    A    
C5    C7    S    
Cu1   N2    S    
C5    C11   S    
C2    O2    A    
C7    C12   S    
N2    H8    S    
C4    O8    A    
C1    C13   S    
Cu1   Cu2   S    
C7    C9    S    
N1    H7    S    
Cu1   O8    S    
Cu2   O2    S    
Cu2   O3    S    
C3    O7    A    
Cu1   O4    S    
C6    C8    S    
C4    C9    S    
N1    N2    D    
C8    C10   S    
C8    H2    S    
C7    H1    S    
