data_mof_unit_67054.cif
_audit_creation_date              2012-12-11T17:41:19-0500
_audit_creation_method            fapswitch 2.2
_symmetry_space_group_name_H-M    P1
_symmetry_Int_Tables_number       1
_space_group_crystal_system       triclinic
_cell_length_a                    8.285125
_cell_length_b                    12.686802
_cell_length_c                    14.187323
_cell_angle_alpha                 92.881147
_cell_angle_beta                  91.149987
_cell_angle_gamma                 98.346299
_cell_volume                      1473.02981717

loop_
_atom_site_label
_atom_site_type_symbol
_atom_type_description
_atom_site_fract_x
_atom_site_fract_y
_atom_site_fract_z
_atom_type_partial_charge
Ba1   Ba    Ba6+2 0.855630 0.555280 0.454520 1.669657
Ba2   Ba    Ba6+2 0.334200 0.444810 0.545490 1.712641
C1    C     C_3   0.612511 0.951837 0.186161 -0.391262
C2    C     C_R   0.181763 0.499719 0.196597 0.038128
C3    C     C_R   0.336460 0.550448 0.226919 -0.293655
C4    C     C_3   0.148478 0.806605 0.196114 0.355394
C5    C     C_R   0.447707 0.597032 0.163226 0.016651
C6    C     C_R   0.402173 0.600407 0.068371 -0.148567
C7    C     C_R   0.246048 0.553365 0.035419 -0.001694
C8    C     C_R   0.135363 0.499698 0.098698 -0.030612
C9    C     C_R   0.051617 0.504367 0.901796 -0.072288
C10   C     C_R   0.939113 0.453702 0.965618 0.003802
C11   C     C_R   0.009410 0.498042 0.802901 0.041631
C12   C     C_3   0.652648 0.856176 0.237896 0.339973
C13   C     C_R   0.857663 0.442440 0.772012 0.144844
C14   C     C_R   0.739561 0.407459 0.837218 -0.020650
C15   C     C_R   0.781428 0.409912 0.933104 -0.217418
C16   C     C_3   0.133946 0.845190 0.096749 -0.362128
C17   C     C_R   0.202359 0.557262 0.939198 -0.025403
C18   C     C_R   0.761684 0.176583 0.534608 -0.182541
C19   C     C_R   0.427070 0.813364 0.463102 -0.231107
C20   C     C_R   0.405392 0.994432 0.426660 -0.099439
C21   C     C_R   0.339190 0.887348 0.424423 -0.020553
C22   C     C_R   0.576065 0.846278 0.511503 0.141568
C23   C     C_3   0.476679 0.312535 0.257268 0.301878
C24   C     C_R   0.640497 0.956939 0.519712 -0.074331
C25   C     C_R   0.555073 0.031194 0.474540 -0.077743
C26   C     C_R   0.618170 0.141110 0.482329 0.039780
C27   C     C_R   0.849074 0.104941 0.576540 0.006766
C28   C     C_3   0.210312 0.771858 0.669654 0.614037
C29   C     C_R   0.786971 0.996167 0.571183 -0.101035
C30   C     C_3   0.137497 0.874395 0.681815 -0.292406
C31   C     C_3   0.961466 0.236435 0.341272 0.282199
C32   C     C_3   0.964435 0.117646 0.322666 -0.331719
C33   C     C_3   0.717671 0.674894 0.739176 0.311478
C34   C     C_3   0.459803 0.292044 0.150535 -0.393415
C35   C     C_3   0.732135 0.699453 0.845628 -0.377397
C36   C     C_3   0.024890 0.124771 0.798064 0.284871
C37   C     C_3   0.090580 0.091904 0.891360 -0.372911
C38   C     C_3   0.533638 0.144966 0.776855 1.008865
C39   C     C_3   0.521849 0.041225 0.830664 0.163901
C40   C     C_R   0.982993 0.449095 0.061670 -0.015887
H1    H     H_    0.199592 0.923967 0.741718 0.115308
H2    H     H_    0.579984 0.013920 0.237673 0.093091
H3    H     H_    0.834796 0.764873 0.862841 0.132056
H4    H     H_    0.754933 0.627793 0.882407 0.046137
H5    H     H_    0.616880 0.724583 0.871345 0.119112
H6    H     H_    0.507297 0.926520 0.136115 0.121809
H7    H     H_    0.361033 0.335817 0.283719 0.016638
H8    H     H_    0.578475 0.378630 0.272714 0.058096
H9    H     H_    0.355443 0.228622 0.132365 0.127581
H10   H     H_    0.438379 0.365661 0.116579 0.064206
H11   H     H_    0.573189 0.266602 0.122685 0.114491
H12   H     H_    0.152447 0.919144 0.616686 0.111838
H13   H     H_    0.719231 0.986277 0.145699 0.144639
H14   H     H_    0.186085 0.790072 0.045460 0.068335
H15   H     H_    0.013078 0.210837 0.806616 0.039135
H16   H     H_    0.907527 0.071930 0.782439 0.070582
H17   H     H_    0.209178 0.141229 0.911353 0.144629
H18   H     H_    0.105517 0.006290 0.886320 0.106450
H19   H     H_    0.559784 0.976719 0.783136 0.062306
H20   H     H_    0.070716 0.727205 0.198918 0.083737
H21   H     H_    0.373555 0.549634 0.300425 0.066628
H22   H     H_    0.489263 0.638789 0.020264 0.073505
H23   H     H_    0.006862 0.856174 0.698060 0.090520
H24   H     H_    0.691313 0.376613 0.981969 0.082239
H25   H     H_    0.896328 0.405488 0.106599 0.097465
H26   H     H_    0.288907 0.600509 0.894031 0.097398
H27   H     H_    0.335676 0.048091 0.392818 0.102886
H28   H     H_    0.855956 0.943725 0.605951 0.087631
H29   H     H_    0.811207 0.260457 0.537799 0.093328
H30   H     H_    0.278534 0.797766 0.210236 -0.068824
H31   H     H_    0.002143 0.846330 0.077176 0.152893
H32   H     H_    0.203017 0.927777 0.093142 0.114921
H33   H     H_    0.748799 0.883765 0.293169 0.079500
H34   H     H_    0.834775 0.250560 0.351624 -0.008874
H35   H     H_    0.037012 0.262727 0.406076 0.065573
H36   H     H_    0.539945 0.821416 0.273046 -0.063180
H37   H     H_    0.002833 0.103941 0.947710 0.110891
H38   H     H_    0.752644 0.203783 0.815899 0.253362
H39   H     H_    0.481538 0.068402 0.654814 0.263085
H40   H     H_    0.578225 0.100546 0.958125 0.302873
H41   H     H_    0.393269 0.014659 0.851570 0.026092
H42   H     H_    0.765546 0.476955 0.655892 0.288725
H43   H     H_    0.374951 0.729872 0.459747 0.064131
H44   H     H_    0.414169 0.812671 0.740148 0.307833
H45   H     H_    0.905807 0.090467 0.253078 0.121375
H46   H     H_    0.168911 0.733820 0.599340 0.050807
H47   H     H_    0.898566 0.071815 0.377927 0.064443
H48   H     H_    0.092492 0.101618 0.322315 0.137004
H49   H     H_    0.833877 0.651753 0.714541 -0.034908
H50   H     H_    0.615209 0.608980 0.724312 0.046755
O1    O     O_2   0.887370 0.460630 0.272300 -0.472664
O2    O     O_2   0.172545 0.114309 0.547481 -0.460970
O3    O     O_3   0.131926 0.109234 0.725802 -0.560535
O4    O     O_3   0.129410 0.451380 0.388510 -0.493001
O5    O     O_3   0.575400 0.626570 0.547370 -0.490425
O6    O     O_2   0.344320 0.238700 0.455090 -0.450995
O7    O     O_3   0.508822 0.219084 0.298212 -0.655566
O8    O     O_2   0.405091 0.417437 0.834982 -0.500394
O9    O     O_3   0.471112 0.223405 0.834356 -0.627326
O10   O     O_3   0.670210 0.653170 0.329170 -0.487995
O11   O     O_2   0.783730 0.590844 0.164514 -0.490957
O12   O     O_3   0.688085 0.766934 0.695772 -0.609452
O13   O     O_3   0.020840 0.289134 0.262187 -0.639395
O14   O     O_3   0.711896 0.784224 0.172883 -0.588170
O15   O     O_2   0.845380 0.761330 0.544970 -0.493372
O16   O     O_3   0.088930 0.704860 0.376040 -0.491788
O17   O     O_2   0.003271 0.888618 0.436213 -0.491426
O18   O     O_3   0.696896 0.177322 0.755041 -0.794570
O19   O     O_3   0.439901 0.126205 0.692538 -0.657415
O20   O     O_3   0.627224 0.055007 0.910779 -0.756101
O21   O     O_3   0.826087 0.420480 0.677265 -0.697015
O22   O     O_3   0.379333 0.797069 0.672680 -0.782420
O23   O     O_3   0.095619 0.881337 0.261075 -0.599823
O24   O     O_2   0.302330 0.539400 0.727760 -0.464038
O25   O     O_3   0.060300 0.548700 0.611500 -0.466663
O26   O     O_3   0.519500 0.346920 0.670840 -0.384620
O27   O     O_3   0.162145 0.709074 0.745203 -0.677602
O28   O     O_3   0.614310 0.373510 0.452640 -0.481938
O29   O     O_3   0.100780 0.295230 0.623970 -0.428638
P1    P     P_3+3 0.054400 0.427280 0.286870 0.969639
P2    P     P_3+3 0.668300 0.742890 0.573060 1.020988
P3    P     P_3+3 0.132262 0.842783 0.375536 0.944756
P4    P     P_3+3 0.135310 0.572810 0.713130 1.013744
P5    P     P_3+3 0.058688 0.155218 0.620921 1.032148
P6    P     P_3+3 0.653518 0.653711 0.206540 0.958143
P7    P     P_3+3 0.524270 0.241918 0.420983 0.947863
P8    P     P_3+3 0.532607 0.351518 0.794440 1.057831

loop_
_geom_bond_atom_site_label_1
_geom_bond_atom_site_label_2
_ccdc_geom_bond_type
H42   O21   S    
C8    C40   A    
C39   H19   S    
Ba1   O16   S    
C32   H48   S    
Ba2   O26   S    
C5    C6    A    
O12   P2    S    
C33   H49   S    
C4    H30   S    
C9    C17   A    
C24   C25   A    
C33   C35   S    
C22   C24   A    
C36   C37   S    
C28   O27   S    
C13   C14   A    
C39   H41   S    
C1    H6    S    
C3    H21   S    
Ba1   Ba2   S    
Ba1   P1    S    
C10   C40   A    
C34   H11   S    
C38   O9    S    
C36   H16   S    
C1    H13   S    
C23   O7    S    
C29   H28   S    
H39   O19   S    
Ba2   O5    S    
C14   C15   A    
C39   O20   S    
C36   O3    S    
C13   O21   S    
C18   H29   S    
O15   P2    D    
C35   H5    S    
O11   P6    D    
C7    C8    A    
C20   H27   S    
C34   H10   S    
C16   H14   S    
C11   P4    S    
C33   H50   S    
O6    P7    D    
C24   C29   A    
C16   H32   S    
C27   P5    S    
Ba2   O24   S    
O16   P3    S    
C30   H12   S    
Ba2   O25   S    
C7    C17   A    
C38   O19   S    
C18   C27   A    
O2    P5    D    
C4    C16   S    
C19   H43   S    
C1    H2    S    
C31   O13   S    
O1    P1    D    
O10   P6    S    
Ba1   O5    S    
C3    C5    A    
Ba2   O28   S    
O8    P8    D    
C6    C7    A    
C38   O18   S    
C18   C26   A    
O14   P6    S    
C22   P2    S    
Ba1   O28   S    
C37   H37   S    
C10   C15   A    
Ba1   P2    S    
C23   H8    S    
C36   H15   S    
C31   H34   S    
C37   H17   S    
C31   C32   S    
C15   H24   S    
C2    P1    S    
C17   H26   S    
Ba1   O25   S    
C14   P8    S    
C34   H9    S    
O7    P7    S    
C1    C12   S    
Ba1   O15   S    
O27   P4    S    
Ba1   O1    S    
C38   C39   S    
C6    H22   S    
C33   O12   S    
C16   H31   S    
O24   P4    D    
C19   C21   A    
C40   H25   S    
C28   H46   S    
C28   O22   S    
Ba2   O29   S    
O23   P3    S    
C2    C8    A    
C2    C3    A    
C9    C10   A    
O28   P7    S    
O17   P3    D    
C21   P3    S    
C20   C25   A    
O4    P1    S    
H44   O22   S    
C12   H33   S    
C4    H20   S    
C11   C13   A    
C32   H47   S    
O29   P5    S    
O5    P2    S    
O26   P8    S    
C28   C30   S    
C9    C11   A    
O3    P5    S    
C31   H35   S    
O25   P4    S    
Ba1   O4    S    
C37   H18   S    
Ba2   O4    S    
C30   H1    S    
O13   P1    S    
C32   H45   S    
C12   H36   S    
C23   H7    S    
C4    O23   S    
C23   C34   S    
Ba2   P4    S    
C12   O14   S    
Ba2   O6    S    
C27   C29   A    
C19   C22   A    
H38   O18   S    
C25   C26   A    
C20   C21   A    
C5    P6    S    
C35   H4    S    
C35   H3    S    
Ba1   O10   S    
C26   P7    S    
H40   O20   S    
C30   H23   S    
O9    P8    S    
