data_mof_unit_43143.cif
_audit_creation_date              2012-10-26T19:57:52-0400
_audit_creation_method            fapswitch 2.2
_symmetry_space_group_name_H-M    P1
_symmetry_Int_Tables_number       1
_space_group_crystal_system       triclinic
_cell_length_a                    7.544877
_cell_length_b                    8.685032
_cell_length_c                    12.984789
_cell_angle_alpha                 86.679838
_cell_angle_beta                  77.479688
_cell_angle_gamma                 101.91435
_cell_volume                      808.024076894

loop_
_atom_site_label
_atom_site_type_symbol
_atom_type_description
_atom_site_fract_x
_atom_site_fract_y
_atom_site_fract_z
_atom_type_partial_charge
C1    C     C_R   0.454360 0.200541 0.506008 0.612734
C2    C     C_R   0.736999 0.578829 0.109901 -0.002173
C3    C     C_R   0.596766 0.538329 0.855988 -0.138327
C4    C     C_R   0.403234 0.461671 0.144012 -0.138327
C5    C     C_R   0.586109 0.530852 0.964116 0.026074
C6    C     C_R   0.413891 0.469148 0.035884 0.026074
C7    C     C_2   0.433879 0.034304 0.525947 0.168064
C8    C     C_2   0.566121 0.965696 0.474053 0.168064
C9    C     C_3   0.913761 0.644219 0.144539 -0.371372
C10   C     C_3   0.086239 0.355780 0.855461 -0.371372
C11   C     C_3   0.922924 0.303153 0.578781 -0.107574
C12   C     C_R   0.545640 0.799459 0.493991 0.612734
C13   C     C_3   0.077076 0.696846 0.421218 -0.107574
C14   C     C_R   0.462890 0.492516 0.702005 0.553431
C15   C     C_R   0.537110 0.507484 0.297995 0.553431
C16   C     C_R   0.562213 0.515883 0.182457 0.029332
C17   C     C_R   0.437787 0.484117 0.817543 0.029332
C18   C     C_R   0.253984 0.415232 0.998948 -0.109031
C19   C     C_R   0.746016 0.584767 0.001052 -0.109030
C20   C     C_R   0.263001 0.421170 0.890098 -0.002173
Cl1   Cl    Cl    0.253048 0.938214 0.636185 -0.655576
Cl2   Cl    Cl    0.746952 0.061786 0.363814 -0.655576
Cu1   Cu    Cu3+1 0.686350 0.517570 0.488220 0.991464
Cu2   Cu    Cu3+1 0.313650 0.482430 0.511780 0.991465
H1    H     H_    0.269523 0.412762 0.198470 0.143853
H2    H     H_    0.107634 0.260659 0.803714 0.166141
H3    H     H_    0.997019 0.254013 0.633083 0.121460
H4    H     H_    0.788598 0.310085 0.629726 0.135359
H5    H     H_    0.908516 0.220242 0.517956 0.186766
H6    H     H_    0.002981 0.745987 0.366916 0.121459
H7    H     H_    0.091484 0.779758 0.482044 0.186766
H8    H     H_    0.211402 0.689915 0.370273 0.135359
H9    H     H_    0.730477 0.587238 0.801530 0.143853
H10   H     H_    0.122040 0.367486 0.055292 0.125807
H11   H     H_    0.877960 0.632513 0.944708 0.125807
H12   H     H_    0.031844 0.696526 0.075995 0.127346
H13   H     H_    0.892367 0.739340 0.196285 0.166141
H14   H     H_    0.955859 0.548293 0.187071 0.158374
H15   H     H_    0.968157 0.303471 0.924005 0.127346
H16   H     H_    0.044141 0.451705 0.812929 0.158373
N1    N     N_2   0.033570 0.455950 0.529530 -0.146831
N2    N     N_2   0.966430 0.544050 0.470470 -0.146831
O1    O     O_R   0.621060 0.286250 0.492350 -0.501129
O2    O     O_R   0.378940 0.713750 0.507650 -0.501129
O3    O     O_R   0.306310 0.256580 0.512240 -0.489730
O4    O     O_R   0.693690 0.743420 0.487760 -0.489730
O5    O     O_R   0.631800 0.512400 0.642670 -0.527823
O6    O     O_R   0.368200 0.487600 0.357330 -0.527823
O7    O     O_R   0.317060 0.482730 0.662570 -0.496639
O8    O     O_R   0.682940 0.517270 0.337430 -0.496639

loop_
_geom_bond_atom_site_label_1
_geom_bond_atom_site_label_2
_ccdc_geom_bond_type
C4    C16   A    
C9    H12   S    
C8    Cl2   S    
Cu1   Cu2   S    
C3    C17   A    
C14   O5    A    
C5    C19   A    
C2    C16   A    
N1    N2    D    
C13   H8    S    
C11   H3    S    
C8    C12   S    
C10   H2    S    
C9    H13   S    
C4    H1    S    
C7    C8    D    
C12   O2    A    
Cu1   O4    S    
C19   H11   S    
C7    Cl1   S    
Cu2   N1    S    
C18   H10   S    
C14   C17   S    
C1    O3    A    
Cu1   N2    S    
C11   H4    S    
C6    C18   A    
Cu2   O3    S    
C15   O6    A    
C10   H16   S    
C13   N2    S    
C13   H7    S    
C11   N1    S    
C18   C20   A    
C5    C6    A    
Cu2   O2    S    
C14   O7    A    
Cu1   O5    S    
C3    H9    S    
C15   C16   S    
Cu2   O6    S    
C13   H6    S    
C17   C20   A    
Cu1   O1    S    
C11   H5    S    
C4    C6    A    
C15   O8    A    
Cu2   O7    S    
C9    H14   S    
Cu1   O8    S    
C2    C19   A    
C1    C7    S    
C2    C9    S    
C1    O1    A    
C10   C20   S    
C10   H15   S    
C3    C5    A    
C12   O4    A    
