data_mof_unit_47759.cif
_audit_creation_date              2012-12-11T15:43:15-0500
_audit_creation_method            fapswitch 2.2
_symmetry_space_group_name_H-M    P1
_symmetry_Int_Tables_number       1
_space_group_crystal_system       triclinic
_cell_length_a                    19.435875
_cell_length_b                    10.863724
_cell_length_c                    18.645232
_cell_angle_alpha                 90.051282
_cell_angle_beta                  88.935919
_cell_angle_gamma                 89.961706
_cell_volume                      3936.1844042

loop_
_atom_site_label
_atom_site_type_symbol
_atom_type_description
_atom_site_fract_x
_atom_site_fract_y
_atom_site_fract_z
_atom_type_partial_charge
C1    C     C_R   0.729938 0.376636 0.146118 0.540076
C2    C     C_R   0.288689 0.326720 0.860626 0.570319
C3    C     C_R   0.211608 0.827124 0.139289 0.569460
C4    C     C_R   0.787912 0.828283 0.860806 0.567314
C5    C     C_R   0.523162 0.386693 0.920141 -0.097185
C6    C     C_R   0.505915 0.397908 0.068705 -0.090072
C7    C     C_R   0.010917 0.892505 0.924853 -0.114917
C8    C     C_R   0.992410 0.893929 0.073476 -0.119725
C9    C     C_R   0.006016 0.004116 0.961784 -0.158704
C10   C     C_R   0.995101 0.004781 0.035656 -0.161628
C11   C     C_R   0.524862 0.499904 0.955167 -0.137136
C12   C     C_R   0.514737 0.505746 0.029046 -0.144380
C13   C     C_R   0.778169 0.838705 0.938186 0.014406
C14   C     C_R   0.219379 0.835322 0.061349 0.007977
C15   C     C_R   0.281184 0.333317 0.938777 0.009982
C16   C     C_R   0.747044 0.409414 0.073419 0.016553
C17   C     C_R   0.716259 0.808203 0.973209 0.016855
C18   C     C_R   0.275931 0.787509 0.022703 0.028851
C19   C     C_R   0.221202 0.295982 0.975416 0.029153
C20   C     C_R   0.783537 0.324460 0.030686 0.044252
C21   C     C_R   0.706080 0.836440 0.045242 0.006196
C22   C     C_R   0.286335 0.818336 0.950872 0.023995
C23   C     C_R   0.210623 0.326627 0.047064 0.022879
C24   C     C_R   0.784234 0.334788 0.956852 0.011836
C25   C     C_R   0.822891 0.907069 0.051802 -0.155059
C26   C     C_R   0.177339 0.922477 0.951068 -0.152441
C27   C     C_R   0.325495 0.407674 0.051832 -0.153921
C28   C     C_R   0.700316 0.497805 0.966946 -0.137791
C29   C     C_R   0.832858 0.879211 0.979581 -0.154356
C30   C     C_R   0.167583 0.893454 0.022882 -0.150896
C31   C     C_R   0.335776 0.378262 0.979519 -0.154407
C32   C     C_R   0.703916 0.494375 0.040363 -0.143028
C33   C     C_3   0.644575 0.844621 0.954970 -0.272096
C34   C     C_3   0.350967 0.795472 0.037827 -0.269358
C35   C     C_3   0.147494 0.317913 0.958115 -0.270064
C36   C     C_3   0.858195 0.291726 0.031407 -0.278954
C37   C     C_3   0.633543 0.875147 0.033612 -0.262513
C38   C     C_3   0.362046 0.830240 0.959645 -0.274365
C39   C     C_3   0.136210 0.352483 0.036288 -0.269897
C40   C     C_3   0.858634 0.302521 0.950240 -0.276861
C41   C     C_R   0.757564 0.896068 0.083773 0.012743
C42   C     C_R   0.239941 0.895883 0.915948 0.012717
C43   C     C_R   0.259984 0.394073 0.084259 0.015111
C44   C     C_R   0.745109 0.425752 0.924028 0.018706
C45   C     C_R   0.531521 0.156459 0.146777 0.536935
C46   C     C_R   0.469716 0.155563 0.852186 0.535491
C47   C     C_R   0.031032 0.656053 0.147196 0.528452
C48   C     C_R   0.969252 0.655913 0.852580 0.538779
C49   C     C_R   0.449986 0.160613 0.563626 0.009212
C50   C     C_R   0.492455 0.167076 0.419766 0.000883
C51   C     C_R   0.949993 0.660618 0.563623 0.009201
C52   C     C_R   0.992437 0.667086 0.419754 -0.000005
C53   C     C_R   0.444999 0.054870 0.521526 0.022724
C54   C     C_R   0.472153 0.058792 0.453310 0.020526
C55   C     C_R   0.945003 0.554878 0.521524 0.022612
C56   C     C_R   0.972128 0.558803 0.453296 0.020228
C57   C     C_R   0.487859 0.276839 0.458487 -0.172945
C58   C     C_R   0.471023 0.272229 0.531473 -0.167136
C59   C     C_R   0.987843 0.776849 0.458477 -0.173164
C60   C     C_R   0.971013 0.772239 0.531465 -0.167025
C61   C     C_3   0.479167 0.931967 0.532900 -0.247893
C62   C     C_3   0.513822 0.945684 0.461753 -0.239303
C63   C     C_3   0.979189 0.431987 0.532882 -0.247884
C64   C     C_3   0.013778 0.445666 0.461697 -0.239129
C65   C     C_R   0.747844 0.946694 0.585154 0.004285
C66   C     C_R   0.254158 0.946861 0.413609 -0.002818
C67   C     C_R   0.247838 0.446711 0.585158 0.004411
C68   C     C_R   0.754151 0.446921 0.413589 -0.001814
C69   C     C_R   0.791058 0.026825 0.546769 -0.023277
C70   C     C_R   0.209768 0.026221 0.451869 -0.021765
C71   C     C_R   0.291062 0.526822 0.546768 -0.023090
C72   C     C_R   0.709759 0.526269 0.451854 -0.022457
C73   C     C_R   0.788427 0.029352 0.473248 0.040664
C74   C     C_R   0.213135 0.034776 0.525338 0.032263
C75   C     C_R   0.288435 0.529330 0.473245 0.040164
C76   C     C_R   0.713138 0.534830 0.525324 0.032290
C77   C     C_R   0.689268 0.898220 0.475925 -0.144648
C78   C     C_R   0.309835 0.898461 0.524399 -0.125197
C79   C     C_R   0.189264 0.398232 0.475930 -0.144503
C80   C     C_R   0.809861 0.398561 0.524358 -0.125379
C81   C     C_R   0.687354 0.907865 0.552066 0.232305
C82   C     C_R   0.313758 0.904205 0.448139 0.246393
C83   C     C_R   0.187348 0.407882 0.552070 0.232186
C84   C     C_R   0.813770 0.404326 0.448093 0.247788
C85   C     C_3   0.867164 0.046111 0.545261 -0.270641
C86   C     C_3   0.132868 0.038809 0.454322 -0.270091
C87   C     C_3   0.367175 0.546040 0.545255 -0.270421
C88   C     C_3   0.632858 0.538827 0.454320 -0.270361
C89   C     C_R   0.741856 0.967191 0.148318 0.546511
C90   C     C_R   0.257846 0.966897 0.851657 0.541823
C91   C     C_R   0.242280 0.466709 0.148312 0.538879
C92   C     C_R   0.758146 0.469516 0.852142 0.544852
C93   C     C_3   0.864365 0.042830 0.464302 -0.261232
C94   C     C_3   0.137137 0.048235 0.534881 -0.258517
C95   C     C_3   0.364379 0.542714 0.464299 -0.261387
C96   C     C_3   0.637139 0.548259 0.534879 -0.258123
C97   C     C_R   0.742314 0.956483 0.435394 -0.029158
C98   C     C_R   0.258387 0.961476 0.563787 -0.035734
C99   C     C_R   0.242312 0.456481 0.435395 -0.029477
C100  C     C_R   0.758407 0.461546 0.563763 -0.035845
C101  C     C_R   0.729364 0.381820 0.350888 0.542874
C102  C     C_R   0.271331 0.381019 0.648428 0.544719
C103  C     C_R   0.229371 0.881821 0.350884 0.552172
C104  C     C_R   0.771330 0.881021 0.648430 0.544680
C105  C     C_R   0.531717 0.157592 0.353346 0.538387
C106  C     C_R   0.435232 0.152660 0.639554 0.568185
C107  C     C_R   0.031709 0.657595 0.353341 0.539452
C108  C     C_R   0.935236 0.652661 0.639552 0.568543
C109  C     C_R   0.739108 0.977514 0.357512 0.546863
C110  C     C_R   0.261268 0.979677 0.641918 0.541095
C111  C     C_R   0.239107 0.477516 0.357513 0.549819
C112  C     C_R   0.761278 0.479713 0.641904 0.541296
C113  C     C_R   0.499840 0.163226 0.923640 -0.002882
C114  C     C_R   0.504378 0.168060 0.074014 0.000588
C115  C     C_R   0.998144 0.665069 0.924576 0.002465
C116  C     C_R   0.002733 0.665856 0.074953 0.002896
C117  C     C_R   0.510269 0.276984 0.958786 0.018496
C118  C     C_R   0.507085 0.281058 0.034891 0.034476
C119  C     C_R   0.003325 0.779080 0.961441 0.023123
C120  C     C_R   0.999614 0.779705 0.037547 0.027092
C121  C     C_R   0.496137 0.057400 0.037123 -0.173273
C122  C     C_R   0.498127 0.054457 0.963624 -0.169088
C123  C     C_R   0.998999 0.555536 0.036732 -0.168887
C124  C     C_R   0.000017 0.555026 0.963261 -0.164311
Cr1   Cr    Cr6+3 0.772010 0.169670 0.250090 0.988814
Cr2   Cr    Cr6+3 0.227990 0.169670 0.749910 0.993501
Cr3   Cr    Cr6+3 0.272010 0.669670 0.250090 0.983762
Cr4   Cr    Cr6+3 0.727990 0.669670 0.749910 0.993107
Cr5   Cr    Cr6+3 0.615000 0.323260 0.249260 0.996034
Cr6   Cr    Cr6+3 0.385000 0.323260 0.750740 0.986176
Cr7   Cr    Cr6+3 0.115000 0.823260 0.249260 0.988606
Cr8   Cr    Cr6+3 0.885000 0.823260 0.750740 0.984267
Cr9   Cr    Cr6+3 0.616710 0.010760 0.250840 0.993390
Cr10  Cr    Cr6+3 0.383290 0.010760 0.749160 0.977344
Cr11  Cr    Cr6+3 0.116710 0.510760 0.250840 0.989596
Cr12  Cr    Cr6+3 0.883290 0.510760 0.749160 0.975407
H1    H     H_    0.493040 0.970063 0.065024 0.133336
H2    H     H_    0.494397 0.965195 0.938112 0.136045
H3    H     H_    0.999963 0.467143 0.063499 0.130294
H4    H     H_    0.999035 0.466325 0.936801 0.130076
H5    H     H_    0.504300 0.362804 0.434877 0.116956
H6    H     H_    0.481114 0.352457 0.563629 0.125156
H7    H     H_    0.004284 0.862814 0.434866 0.117158
H8    H     H_    0.981097 0.852471 0.563620 0.125153
H9    H     H_    0.946927 0.349194 0.533382 0.140559
H10   H     H_    0.067874 0.473074 0.466091 0.156903
H11   H     H_    0.446889 0.849202 0.533331 0.140785
H12   H     H_    0.567901 0.973143 0.466216 0.156937
H13   H     H_    0.514188 0.930650 0.576540 0.190913
H14   H     H_    0.503225 0.869713 0.423981 0.164710
H15   H     H_    0.014261 0.430757 0.576477 0.190950
H16   H     H_    0.003114 0.369709 0.423935 0.164960
H17   H     H_    0.650298 0.846071 0.448674 0.122600
H18   H     H_    0.344115 0.841489 0.553926 0.121090
H19   H     H_    0.150301 0.346064 0.448680 0.122884
H20   H     H_    0.844144 0.341585 0.553874 0.120907
H21   H     H_    0.895475 0.968918 0.567933 0.165796
H22   H     H_    0.105811 0.954241 0.437819 0.163748
H23   H     H_    0.395465 0.468835 0.567940 0.165807
H24   H     H_    0.605811 0.454247 0.437821 0.164316
H25   H     H_    0.881818 0.137405 0.566911 0.128494
H26   H     H_    0.114986 0.125081 0.428631 0.132477
H27   H     H_    0.381856 0.637331 0.566887 0.128663
H28   H     H_    0.614962 0.625091 0.428630 0.131415
H29   H     H_    0.879905 0.130321 0.438763 0.208309
H30   H     H_    0.122012 0.139949 0.555852 0.204848
H31   H     H_    0.379959 0.630162 0.438741 0.208255
H32   H     H_    0.622006 0.639969 0.555850 0.204831
H33   H     H_    0.888430 0.959591 0.440073 0.133218
H34   H     H_    0.113119 0.968925 0.563547 0.133498
H35   H     H_    0.388409 0.459429 0.440089 0.133450
H36   H     H_    0.613136 0.468942 0.563549 0.133490
H37   H     H_    0.532603 0.385853 0.862803 0.134332
H38   H     H_    0.494815 0.408516 0.125313 0.129390
H39   H     H_    0.021646 0.896397 0.867823 0.136482
H40   H     H_    0.981904 0.899196 0.130499 0.132959
H41   H     H_    0.010327 0.090216 0.932882 0.105992
H42   H     H_    0.989689 0.091383 0.063966 0.106704
H43   H     H_    0.533130 0.583508 0.924711 0.099004
H44   H     H_    0.513847 0.594228 0.055814 0.096635
H45   H     H_    0.863651 0.951827 0.080123 0.142412
H46   H     H_    0.139583 0.980539 0.926255 0.148586
H47   H     H_    0.366396 0.454292 0.079474 0.136456
H48   H     H_    0.666827 0.566597 0.944524 0.148172
H49   H     H_    0.881181 0.900932 0.954255 0.165890
H50   H     H_    0.122798 0.929107 0.050205 0.169856
H51   H     H_    0.384233 0.401922 0.953987 0.158581
H52   H     H_    0.670871 0.555866 0.071279 0.142860
H53   H     H_    0.120792 0.231556 0.942924 0.132993
H54   H     H_    0.866619 0.196028 0.050396 0.149054
H55   H     H_    0.613141 0.765497 0.936999 0.119391
H56   H     H_    0.373175 0.704272 0.051418 0.139766
H57   H     H_    0.642732 0.926872 0.919559 0.150273
H58   H     H_    0.363585 0.871198 0.075541 0.144392
H59   H     H_    0.140224 0.396535 0.920831 0.146678
H60   H     H_    0.889653 0.362856 0.058295 0.125010
H61   H     H_    0.626262 0.975128 0.043580 0.170500
H62   H     H_    0.378924 0.926850 0.952277 0.159872
H63   H     H_    0.124284 0.451525 0.044111 0.161989
H64   H     H_    0.890533 0.379860 0.929863 0.166070
H65   H     H_    0.595945 0.813410 0.061204 0.126438
H66   H     H_    0.391465 0.760162 0.928236 0.137866
H67   H     H_    0.102248 0.287153 0.066086 0.134566
H68   H     H_    0.867084 0.212950 0.922537 0.144267
O1    O     O_R   0.787520 0.042810 0.170440 -0.533483
O2    O     O_R   0.212480 0.042810 0.829560 -0.535751
O3    O     O_R   0.287520 0.542810 0.170440 -0.538796
O4    O     O_R   0.712480 0.542810 0.829560 -0.537967
O5    O     O_R   0.556610 0.252880 0.323980 -0.506273
O6    O     O_R   0.443390 0.252880 0.676020 -0.511352
O7    O     O_R   0.056610 0.752880 0.323980 -0.505115
O8    O     O_R   0.943390 0.752880 0.676020 -0.510856
O9    O     O_R   0.545950 0.051210 0.330860 -0.538709
O10   O     O_R   0.454050 0.051210 0.669140 -0.545312
O11   O     O_R   0.045950 0.551210 0.330860 -0.537177
O12   O     O_R   0.954050 0.551210 0.669140 -0.545080
O13   O     O_R   0.681390 0.959480 0.325510 -0.508040
O14   O     O_R   0.318610 0.959480 0.674490 -0.518693
O15   O     O_R   0.181390 0.459480 0.325510 -0.504418
O16   O     O_R   0.818610 0.459480 0.674490 -0.518740
O17   O     O_3   0.667900 0.167900 0.250060 -0.241398
O18   O     O_3   0.332100 0.167900 0.749940 -0.287060
O19   O     O_3   0.167900 0.667900 0.250060 -0.263938
O20   O     O_3   0.832100 0.667900 0.749940 -0.285676
O21   O     O_R   0.765640 0.292100 0.175020 -0.509245
O22   O     O_R   0.234360 0.292100 0.824980 -0.511678
O23   O     O_R   0.265640 0.792100 0.175020 -0.513100
O24   O     O_R   0.734360 0.792100 0.824980 -0.512479
O25   O     O_R   0.670190 0.408840 0.168540 -0.523027
O26   O     O_R   0.329810 0.408840 0.831460 -0.518966
O27   O     O_R   0.170190 0.908840 0.168540 -0.523819
O28   O     O_R   0.829810 0.908840 0.831460 -0.522956
O29   O     O_R   0.556620 0.251410 0.175160 -0.506656
O30   O     O_R   0.443380 0.251410 0.824840 -0.519080
O31   O     O_R   0.056620 0.751410 0.175160 -0.525311
O32   O     O_R   0.943380 0.751410 0.824840 -0.518934
O33   O     O_R   0.545960 0.049620 0.170320 -0.532861
O34   O     O_R   0.454040 0.049620 0.829680 -0.534835
O35   O     O_R   0.045960 0.549620 0.170320 -0.532177
O36   O     O_R   0.954040 0.549620 0.829680 -0.536645
O37   O     O_R   0.681390 0.958010 0.176690 -0.498877
O38   O     O_R   0.318610 0.958010 0.823310 -0.497785
O39   O     O_R   0.181390 0.458010 0.176690 -0.498540
O40   O     O_R   0.818610 0.458010 0.823310 -0.500903
O41   O     O_R   0.787510 0.044390 0.330970 -0.517340
O42   O     O_R   0.212490 0.044390 0.669030 -0.504004
O43   O     O_R   0.287510 0.544390 0.330970 -0.516611
O44   O     O_R   0.712490 0.544390 0.669030 -0.503561
O45   O     O_R   0.765630 0.293570 0.323840 -0.479434
O46   O     O_R   0.234370 0.293570 0.676160 -0.465246
O47   O     O_R   0.265630 0.793570 0.323840 -0.476072
O48   O     O_R   0.734370 0.793570 0.676160 -0.465055
O49   O     O_R   0.670190 0.410420 0.329080 -0.534116
O50   O     O_R   0.329810 0.410420 0.670920 -0.539344
O51   O     O_R   0.170190 0.910420 0.329080 -0.527795
O52   O     O_R   0.829810 0.910420 0.670920 -0.539535
O53   O     O_3   0.632041 0.861730 0.592206 -0.585085
C125  C     C_3   0.615539 0.938719 0.652714 0.007585
H69   H     H_    0.588431 0.023379 0.635597 0.136191
H70   H     H_    0.659682 0.974871 0.682731 0.125725
C126  C     C_3   0.572011 0.866172 0.706937 -0.331610
H71   H     H_    0.602444 0.788396 0.728421 0.160067
H72   H     H_    0.556344 0.926940 0.752276 0.127800
H73   H     H_    0.525241 0.828172 0.681917 0.138386
O54   O     O_3   0.368112 0.844519 0.411885 -0.586013
C127  C     C_3   0.387784 0.897563 0.344037 0.027803
H74   H     H_    0.426086 0.969284 0.349362 0.146287
H75   H     H_    0.347423 0.947053 0.314670 0.121506
C128  C     C_3   0.420428 0.799129 0.295825 -0.336567
H76   H     H_    0.384929 0.720674 0.288416 0.193096
H77   H     H_    0.433522 0.839062 0.242466 0.090845
H78   H     H_    0.468262 0.763608 0.319984 0.107846
O55   O     O_3   0.132040 0.361708 0.592204 -0.585222
C129  C     C_3   0.115535 0.438641 0.652736 0.007917
H79   H     H_    0.088468 0.523366 0.635645 0.136251
H80   H     H_    0.159676 0.474696 0.682796 0.126361
C130  C     C_3   0.071951 0.366060 0.706897 -0.331695
H81   H     H_    0.102300 0.288020 0.728240 0.159862
H82   H     H_    0.056410 0.426730 0.752340 0.127797
H83   H     H_    0.025092 0.328380 0.681862 0.138080
O56   O     O_3   0.868124 0.344708 0.411797 -0.585037
C131  C     C_3   0.887742 0.397830 0.343947 0.027349
H84   H     H_    0.925991 0.469645 0.349280 0.146775
H85   H     H_    0.847339 0.447229 0.314588 0.114027
C132  C     C_3   0.920441 0.299503 0.295700 -0.338301
H86   H     H_    0.884886 0.221192 0.288045 0.192162
H87   H     H_    0.933740 0.339641 0.242436 0.089340
H88   H     H_    0.968165 0.263720 0.319972 0.110020

loop_
_geom_bond_atom_site_label_1
_geom_bond_atom_site_label_2
_ccdc_geom_bond_type
Cr2   O42   S    
C73   C93   S    
Cr4   O20   S    
C75   C95   S    
C131  H84   S    
C111  O15   A    
C64   H16   S    
C4    O28   A    
C79   C99   A    
C16   C20   A    
Cr7   O51   S    
C22   C38   S    
C23   C43   A    
C129  H79   S    
Cr11  O39   S    
Cr3   O3    S    
C89   O1    A    
C113  C122  A    
C70   C74   A    
C96   H32   S    
C44   C92   S    
C34   H58   S    
C59   C60   A    
Cr10  O34   S    
Cr2   O22   S    
C47   O31   A    
C25   C29   A    
C47   C116  S    
C27   C31   A    
C7    C119  A    
C28   C32   A    
C68   C101  S    
C25   C41   A    
Cr12  O40   S    
C6    H38   S    
Cr7   O31   S    
C28   C44   A    
C17   C21   A    
Cr4   O44   S    
C101  O49   A    
C66   C82   A    
C78   C82   A    
C68   C72   A    
Cr8   O32   S    
Cr6   O50   S    
C128  H77   S    
C11   H43   S    
Cr5   O5    S    
C9    H41   S    
C2    O22   A    
C62   H14   S    
C64   H10   S    
C50   C57   A    
C66   C103  S    
C49   C106  S    
C76   C100  A    
Cr11  O19   S    
C84   O56   S    
C33   H55   S    
C103  O47   A    
C34   H56   S    
C132  H87   S    
C19   C35   S    
C94   H34   S    
C66   C70   A    
Cr1   O45   S    
C49   C53   A    
Cr1   O1    S    
C87   H23   S    
C82   O54   S    
C51   C55   A    
C88   H24   S    
C43   C91   S    
Cr8   O52   S    
C79   H19   S    
C107  O11   A    
C8    C10   A    
C38   H66   S    
Cr5   O29   S    
Cr4   O4    S    
C61   H13   S    
C76   C96   S    
C106  O6    A    
C41   C89   S    
C67   C83   A    
C104  O48   A    
C116  C123  A    
C27   H47   S    
C123  C124  A    
C74   C98   A    
C53   C54   A    
C36   H54   S    
C46   O30   A    
C126  H71   S    
C123  H3    S    
C97   C109  S    
O53   C125  S    
C121  H1    S    
C77   H17   S    
C85   C93   S    
C45   C114  S    
C40   H68   S    
Cr10  O18   S    
C87   C95   S    
C50   C105  S    
C38   H62   S    
C77   C97   A    
C9    C10   A    
C109  O41   A    
C62   H12   S    
C130  H81   S    
Cr9   O33   S    
C108  O8    A    
C45   O33   A    
C106  O10   A    
C21   C41   A    
C3    O27   A    
C88   H28   S    
C116  C120  A    
C42   C90   S    
C36   H60   S    
C18   C34   S    
Cr12  O20   S    
Cr4   O24   S    
C99   C111  S    
C75   C99   A    
C112  O16   A    
C114  C118  A    
C127  H75   S    
C113  C117  A    
C12   H44   S    
Cr5   O49   S    
C26   C30   A    
C115  C119  A    
C90   O38   A    
Cr7   O7    S    
C47   O35   A    
C31   H51   S    
C69   C85   S    
C26   C42   A    
Cr7   O27   S    
C39   H63   S    
C46   C113  S    
C18   C22   A    
C5    H37   S    
C101  O45   A    
C127  C128  S    
C95   H31   S    
C126  H73   S    
C91   O3    A    
C8    H40   S    
C15   C31   A    
Cr1   O17   S    
C16   C32   A    
C131  H85   S    
C13   C17   A    
C125  H69   S    
C28   H48   S    
C117  C118  A    
C57   C58   A    
C29   H49   S    
C129  H80   S    
C61   C62   S    
C109  O13   A    
C2    O26   A    
C63   C64   S    
C131  C132  S    
C111  O43   A    
C130  H83   S    
Cr7   O19   S    
C51   C60   A    
C83   O55   S    
C63   H9    S    
C55   C56   A    
C88   C96   S    
C98   C110  S    
C39   H67   S    
C129  C130  S    
C85   H25   S    
C74   C94   S    
Cr1   O41   S    
C80   C84   A    
C94   H30   S    
C15   C19   A    
C93   H33   S    
C50   C54   A    
C85   H21   S    
C13   C29   A    
C45   O29   A    
C5    C11   A    
C6    C12   A    
C107  O7    A    
Cr6   O26   S    
C105  O5    A    
C7    C9    A    
Cr10  O38   S    
C90   O2    A    
C114  C121  A    
C52   C107  S    
Cr9   O17   S    
C69   C73   A    
C35   H59   S    
C33   H57   S    
C35   H53   S    
C102  O46   A    
C128  H76   S    
Cr3   O23   S    
C17   C33   S    
Cr1   O21   S    
C48   O36   A    
C68   C84   A    
Cr6   O18   S    
C122  H2    S    
C78   H18   S    
C54   C62   S    
Cr10  O14   S    
Cr6   O30   S    
C33   C37   S    
C102  O50   A    
C5    C117  A    
C35   C39   S    
C132  H86   S    
C58   H6    S    
C65   C81   A    
C77   C81   A    
C1    C16   S    
C2    C15   S    
C63   H15   S    
C121  C122  A    
C108  O12   A    
C3    C14   S    
C71   C87   S    
C100  C112  S    
C24   C44   A    
Cr3   O43   S    
C3    O23   A    
C1    O21   A    
C103  O51   A    
C115  C124  A    
Cr8   O20   S    
C124  H4    S    
C119  C120  A    
Cr12  O16   S    
C40   H64   S    
Cr10  O10   S    
C57   H5    S    
Cr2   O46   S    
C61   H11   S    
C60   H8    S    
C79   C83   A    
Cr2   O2    S    
C65   C69   A    
C67   C71   A    
C4    O24   A    
C20   C36   S    
C27   C43   A    
C21   C37   S    
C128  H78   S    
C37   H65   S    
C95   H35   S    
C87   H27   S    
C14   C18   A    
C19   C23   A    
Cr8   O8    S    
C72   C76   A    
C73   C97   A    
Cr4   O48   S    
C30   H50   S    
C132  H88   S    
Cr5   O25   S    
C4    C13   S    
C86   C94   S    
Cr9   O37   S    
Cr11  O11   S    
C20   C24   A    
C51   C108  S    
C7    H39   S    
C78   C98   A    
C86   H26   S    
C37   H61   S    
O54   C127  S    
Cr3   O19   S    
C110  O42   A    
C93   H29   S    
C80   C100  A    
C53   C61   S    
C14   C30   A    
Cr8   O28   S    
C72   C88   S    
C25   H45   S    
C80   H20   S    
C105  O9    A    
C32   H52   S    
C10   H42   S    
C36   C40   S    
Cr5   O17   S    
C126  H72   S    
O56   C131  S    
Cr9   O13   S    
C49   C58   A    
C55   C63   S    
C125  H70   S    
C92   O4    A    
C52   C59   A    
Cr11  O15   S    
C56   C64   S    
O55   C129  S    
C86   H22   S    
C48   O32   A    
C48   C115  S    
C91   O39   A    
C130  H82   S    
C89   O37   A    
Cr6   O6    S    
C125  C126  S    
C70   C86   S    
C26   H46   S    
C8    C120  A    
C112  O44   A    
C34   C38   S    
C11   C12   A    
Cr2   O18   S    
C81   O53   S    
C104  O52   A    
Cr9   O9    S    
Cr12  O36   S    
C71   C75   A    
C92   O40   A    
C22   C42   A    
C23   C39   S    
C24   C40   S    
Cr11  O35   S    
Cr3   O47   S    
C46   O34   A    
C110  O14   A    
C127  H74   S    
C59   H7    S    
C1    O25   A    
C96   H36   S    
C65   C104  S    
C6    C118  A    
C52   C56   A    
C67   C102  S    
Cr12  O12   S    
