data_mof_unit_16974.cif
_audit_creation_date              2012-12-10T19:44:58-0500
_audit_creation_method            fapswitch 2.2
_symmetry_space_group_name_H-M    P1
_symmetry_Int_Tables_number       1
_space_group_crystal_system       triclinic
_cell_length_a                    15.090051
_cell_length_b                    10.809728
_cell_length_c                    13.679198
_cell_angle_alpha                 89.828032
_cell_angle_beta                  89.857037
_cell_angle_gamma                 89.432713
_cell_volume                      2231.21564214

loop_
_atom_site_label
_atom_site_type_symbol
_atom_type_description
_atom_site_fract_x
_atom_site_fract_y
_atom_site_fract_z
_atom_type_partial_charge
C1    C     C_R   0.497506 0.262190 0.499988 0.816524
C2    C     C_R   0.502496 0.737810 0.500012 0.816518
C3    C     C_R   0.046887 0.392148 0.657631 0.377795
C4    C     C_R   0.953109 0.607869 0.342386 0.377806
C5    C     C_R   0.294926 0.261752 0.279799 -0.203627
C6    C     C_R   0.705010 0.738260 0.720294 -0.203656
C7    C     C_R   0.336620 0.198942 0.356622 -0.155344
C8    C     C_R   0.663344 0.801043 0.643443 -0.155293
C9    C     C_R   0.411021 0.123215 0.338658 0.052276
C10   C     C_R   0.588949 0.876792 0.661363 0.052272
C11   C     C_R   0.441116 0.107818 0.242168 -0.253945
C12   C     C_R   0.558835 0.892242 0.757837 -0.253996
C13   C     C_R   0.398918 0.169805 0.164903 0.364081
C14   C     C_R   0.601009 0.830288 0.835131 0.364092
C15   C     C_R   0.326005 0.248078 0.183950 0.380291
C16   C     C_R   0.673914 0.751987 0.816128 0.380278
C17   C     C_R   0.465007 0.934069 0.421638 -0.185980
C18   C     C_R   0.534999 0.065933 0.578358 -0.186006
C19   C     C_R   0.504785 0.871678 0.500119 -0.075671
C20   C     C_R   0.495220 0.128323 0.499879 -0.075682
C21   C     C_R   0.541406 0.937854 0.579066 0.046229
C22   C     C_R   0.458595 0.062147 0.420934 0.046213
C23   C     C_R   0.328794 0.499797 0.500142 0.844145
C24   C     C_R   0.671206 0.500203 0.499858 0.844145
C25   C     C_R   0.560225 0.428433 0.793319 0.057344
C26   C     C_R   0.439774 0.571564 0.206681 0.057355
C27   C     C_R   0.439722 0.571546 0.793251 0.067483
C28   C     C_R   0.560275 0.428451 0.206749 0.067481
C29   C     C_R   0.438068 0.572946 0.896353 -0.005330
C30   C     C_R   0.561927 0.427046 0.103647 -0.005283
C31   C     C_R   0.499945 0.499926 0.948172 0.125955
C32   C     C_R   0.500050 0.500067 0.051827 0.125958
C33   C     C_R   0.561762 0.426834 0.896379 0.004835
C34   C     C_R   0.438234 0.573159 0.103620 0.004816
C35   C     C_R   0.376441 0.645507 0.948636 -0.076316
C36   C     C_R   0.623552 0.354480 0.051364 -0.076302
C37   C     C_R   0.376543 0.645653 0.051377 -0.059440
C38   C     C_R   0.623450 0.354335 0.948623 -0.059463
C39   C     C_R   0.813587 0.575693 0.433775 0.373847
C40   C     C_R   0.186411 0.424320 0.566235 0.373825
C41   C     C_R   0.767976 0.499497 0.499606 -0.229021
C42   C     C_R   0.232023 0.500508 0.500396 -0.229043
C43   C     C_R   0.814499 0.422805 0.565157 -0.086919
C44   C     C_R   0.185501 0.577203 0.434848 -0.086924
C45   C     C_R   0.906889 0.436127 0.574765 -0.047847
C46   C     C_R   0.093109 0.563888 0.425244 -0.047855
C47   C     C_R   0.953311 0.499808 0.499888 -0.064684
C48   C     C_R   0.046687 0.500206 0.500120 -0.064682
C49   C     C_R   0.906246 0.562768 0.424622 -0.090160
C50   C     C_R   0.093752 0.437246 0.575390 -0.090161
C51   C     C_R   0.954019 0.390878 0.657138 0.304959
C52   C     C_R   0.045976 0.609145 0.342877 0.304982
Cu1   Cu    Cu3+1 0.500010 0.499980 0.597420 0.998096
Cu2   Cu    Cu3+1 0.499990 0.500020 0.402580 0.998103
H1    H     H_    0.435894 0.882626 0.362031 0.177561
H2    H     H_    0.564107 0.117377 0.637967 0.177561
H3    H     H_    0.607036 0.372529 0.752430 0.146863
H4    H     H_    0.392963 0.627469 0.247569 0.146871
H5    H     H_    0.393000 0.627747 0.752252 0.139448
H6    H     H_    0.606998 0.372250 0.247748 0.139446
H7    H     H_    0.328331 0.702372 0.910097 0.167284
H8    H     H_    0.671661 0.297613 0.089902 0.167276
H9    H     H_    0.328389 0.702425 0.089952 0.178827
H10   H     H_    0.671602 0.297559 0.910047 0.178816
H11   H     H_    0.238624 0.321626 0.295015 0.197999
H12   H     H_    0.761309 0.678368 0.705114 0.198025
H13   H     H_    0.311954 0.210936 0.430362 0.182564
H14   H     H_    0.688027 0.789014 0.569717 0.182542
H15   H     H_    0.498215 0.049237 0.227273 0.204569
H16   H     H_    0.501742 0.950844 0.772699 0.204572
N1    N     N_R   0.499960 0.499900 0.743810 -0.196210
N2    N     N_R   0.500040 0.500100 0.256190 -0.196217
O1    O     O_R   0.500000 0.319630 0.582270 -0.564908
O2    O     O_R   0.500000 0.680370 0.417730 -0.564902
O3    O     O_R   0.499990 0.319660 0.417730 -0.592472
O4    O     O_R   0.500010 0.680340 0.582270 -0.592476
O5    O     O_R   0.370260 0.499960 0.582280 -0.538360
O6    O     O_R   0.629740 0.500040 0.417720 -0.538363
O7    O     O_R   0.370250 0.499990 0.417740 -0.600061
O8    O     O_R   0.629750 0.500010 0.582260 -0.600068
Cl1   Cl    Cl    0.754962 0.699921 0.377185 -0.524356
Cl2   Cl    Cl    0.245036 0.300097 0.622838 -0.524375
C53   C     C_1   0.768372 0.321083 0.611787 0.359185
N3    N     N_1   0.731562 0.239464 0.648145 -0.272015
C54   C     C_1   0.231632 0.678913 0.388214 0.359214
N4    N     N_1   0.268447 0.760522 0.351850 -0.272021
Cl3   Cl    Cl    0.898801 0.350668 0.767467 -0.456346
Cl4   Cl    Cl    0.101187 0.649384 0.232557 -0.456314
Cl5   Cl    Cl    0.101369 0.357808 0.769494 -0.340898
Cl6   Cl    Cl    0.898623 0.642198 0.230534 -0.340926
Cl7   Cl    Cl    0.272547 0.329911 0.089329 -0.448976
Cl8   Cl    Cl    0.727340 0.670190 0.910786 -0.449024
Cl9   Cl    Cl    0.438841 0.148179 0.045201 -0.499195
Cl10  Cl    Cl    0.561069 0.851996 0.954813 -0.499208

loop_
_geom_bond_atom_site_label_1
_geom_bond_atom_site_label_2
_ccdc_geom_bond_type
C27   C29   A    
C18   C21   A    
C26   N2    A    
C27   N1    A    
C39   C41   A    
Cu1   Cu2   S    
C23   C42   S    
C25   H3    S    
C4    C52   A    
C53   N3    T    
C35   C37   A    
C9    C22   S    
C45   C51   A    
C34   C37   A    
C46   C52   A    
C43   C53   S    
C45   C47   A    
C24   O8    A    
Cu2   O2    S    
C26   C34   A    
C31   C32   A    
C31   C33   A    
C25   N1    A    
C17   H1    S    
C4    Cl6   S    
C2    O2    A    
C18   H2    S    
C48   C50   A    
C24   C41   S    
C41   C43   A    
C28   N2    A    
C42   C44   A    
C36   H8    S    
C37   H9    S    
C3    C50   A    
C44   C46   A    
C38   H10   S    
C28   H6    S    
C10   C21   S    
C46   C48   A    
C1    O3    A    
C40   Cl2   S    
C52   Cl4   S    
Cu1   O8    S    
C39   Cl1   S    
C47   C49   A    
C51   Cl3   S    
C5    C7    A    
C3    C51   A    
C6    C8    A    
C54   N4    T    
C7    H13   S    
C13   Cl9   S    
C32   C34   A    
Cu1   O5    S    
C26   H4    S    
C15   Cl7   S    
C47   C48   A    
C5    H11   S    
C35   H7    S    
C23   O5    A    
C9    C11   A    
C10   C12   A    
C24   O6    A    
C39   C49   A    
C20   C22   A    
C16   Cl8   S    
C13   C15   A    
C14   C16   A    
Cu1   O4    S    
C44   C54   S    
Cu1   N1    S    
C2    O4    A    
Cu2   O7    S    
C7    C9    A    
C12   H16   S    
C1    C20   S    
C19   C21   A    
C2    C19   S    
C8    C10   A    
Cu1   O1    S    
C33   C38   A    
C12   C14   A    
C40   C42   A    
C11   H15   S    
C8    H14   S    
C29   C35   A    
C17   C22   A    
C30   C36   A    
C4    C49   A    
C3    Cl5   S    
C1    O1    A    
C36   C38   A    
C43   C45   A    
C27   H5    S    
C30   C32   A    
C11   C13   A    
C40   C50   A    
C28   C30   A    
C17   C19   A    
C18   C20   A    
C5    C15   A    
C6    C16   A    
Cu2   O3    S    
C6    H12   S    
Cu2   N2    S    
C29   C31   A    
C23   O7    A    
C14   Cl10  S    
C25   C33   A    
Cu2   O6    S    
