data_mof_unit_29557.cif
_audit_creation_date              2013-03-05T16:03:53-0500
_audit_creation_method            fapswitch 2.2
_symmetry_space_group_name_H-M    P1
_symmetry_Int_Tables_number       1
_space_group_crystal_system       triclinic
_cell_length_a                    11.044564
_cell_length_b                    10.761203
_cell_length_c                    9.550664
_cell_angle_alpha                 90.63656
_cell_angle_beta                  102.98619
_cell_angle_gamma                 90.522957
_cell_volume                      1105.94452692

loop_
_atom_site_label
_atom_site_type_symbol
_atom_site_description
_atom_site_fract_x
_atom_site_fract_y
_atom_site_fract_z
_atom_type_partial_charge
O1    O     O_R   0.499990 0.319660 0.618740 -0.577593
O2    O     O_R   0.500010 0.680340 0.381260 -0.577186
O3    O     O_R   0.499990 0.319630 0.381170 -0.548538
O4    O     O_R   0.500010 0.680370 0.618830 -0.548072
C1    C     C_R   0.501451 0.262655 0.499489 0.885734
C2    C     C_R   0.498220 0.737337 0.500316 0.886636
O5    O     O_R   0.320690 0.500020 0.575130 -0.598833
O6    O     O_R   0.679310 0.499980 0.424870 -0.598305
O7    O     O_R   0.320680 0.499990 0.337560 -0.543139
O8    O     O_R   0.679320 0.500010 0.662440 -0.541024
C3    C     C_R   0.262689 0.499813 0.441538 0.896956
C4    C     C_R   0.737307 0.499874 0.558436 0.890224
Cu1   Cu    Cu3+1 0.500000 0.500020 0.640660 1.038503
Cu2   Cu    Cu3+1 0.500000 0.499980 0.359340 1.029825
C5    C     C_R   0.420263 0.424009 0.051570 0.417266
C6    C     C_R   0.579869 0.575857 0.948485 0.426372
C7    C     C_R   0.420598 0.424666 0.903227 -0.130721
C8    C     C_R   0.579465 0.575271 0.096810 -0.135474
H1    H     H_    0.882069 0.498756 0.372664 0.190524
H2    H     H_    0.117829 0.498495 0.627105 0.194360
C9    C     C_2   0.127455 0.499423 0.408454 -0.263805
C10   C     C_2   0.872528 0.499371 0.591404 -0.247542
C11   C     C_2   0.067381 0.498830 0.515301 -0.124432
C12   C     C_2   0.932541 0.498890 0.484476 -0.135873
H3    H     H_    0.923203 0.499535 0.703048 0.184835
H4    H     H_    0.076835 0.499840 0.296802 0.183587
H5    H     H_    0.357151 0.364312 0.829282 0.209866
H6    H     H_    0.642934 0.635609 0.170782 0.208005
C13   C     C_R   0.608523 0.064186 0.481382 -0.011382
C14   C     C_R   0.391327 0.935831 0.517489 -0.000151
C15   C     C_R   0.606185 0.934025 0.484697 0.325841
C16   C     C_R   0.393920 0.065905 0.515104 0.330311
C17   C     C_R   0.498367 0.871340 0.502058 -0.188417
C18   C     C_R   0.501577 0.128655 0.497495 -0.194025
N1    N     N_R   0.500030 0.500030 0.852080 -0.253603
N2    N     N_R   0.499970 0.499970 0.147920 -0.255997
N3    N     N_R   0.335718 0.342291 0.099011 0.155473
O9    O     O_R   0.219393 0.372819 0.077605 -0.338300
O10   O     O_R   0.365049 0.226101 0.119725 -0.324162
N4    N     N_R   0.664696 0.657305 0.901146 0.154869
O11   O     O_R   0.780984 0.626555 0.922950 -0.341064
O12   O     O_R   0.635627 0.773536 0.880243 -0.318981
C19   C     C_3   0.727214 0.133151 0.470854 -0.343551
C20   C     C_3   0.731668 0.158693 0.314991 -0.670271
H7    H     H_    0.729008 0.070608 0.253039 0.291114
H8    H     H_    0.652401 0.216390 0.261714 0.261393
H9    H     H_    0.819156 0.209409 0.312439 0.238337
H10   H     H_    0.736624 0.222404 0.531937 0.166048
H11   H     H_    0.810465 0.079264 0.521845 0.252938
C21   C     C_3   0.272267 0.866904 0.526496 -0.368753
C22   C     C_3   0.195109 0.834387 0.376819 -0.736362
H12   H     H_    0.169698 0.920290 0.314076 0.295475
H13   H     H_    0.247879 0.772793 0.318606 0.239083
H14   H     H_    0.108458 0.785265 0.386116 0.257495
H15   H     H_    0.292524 0.780908 0.589954 0.204688
H16   H     H_    0.214643 0.923033 0.584073 0.266700
N5    N     N_R   0.714772 0.864640 0.476187 0.105490
O13   O     O_R   0.774583 0.804776 0.587672 -0.329324
O14   O     O_R   0.746428 0.851022 0.353803 -0.361345
N6    N     N_R   0.285812 0.135153 0.525590 0.105450
O15   O     O_R   0.223116 0.192874 0.414013 -0.330984
O16   O     O_R   0.258576 0.152016 0.649998 -0.356186

loop_
_geom_bond_atom_site_label_1
_geom_bond_atom_site_label_2
_geom_bond_distance
_ccdc_geom_bond_type
O5    Cu1   1.938205 S    
C14   C16   1.400332 A    
C19   C20   1.528278 S    
C15   C17   1.406093 A    
N3    O9    1.300569 A    
H1    C12   1.087893 S    
C20   H9    1.110584 S    
C21   H16   1.108688 S    
C19   H10   1.110006 S    
C21   H15   1.108634 S    
C2    C17   1.441921 S    
O6    C4    1.292437 A    
C11   C12   1.451723 S    
C22   H14   1.110492 S    
C1    C18   1.441926 S    
C15   N5    1.435702 S    
N4    O12   1.300565 A    
C21   C22   1.525814 S    
C14   C21   1.523533 S    
C13   C15   1.401525 A    
O8    Cu1   1.944361 S    
Cu1   Cu2   2.686788 S    
C13   C19   1.523961 S    
N6    O16   1.300785 A    
O5    C3    1.292611 A    
O7    C3    1.297027 A    
N5    O13   1.300766 A    
O2    C2    1.290095 A    
O3    Cu2   1.954253 S    
O8    C4    1.297194 A    
C6    N4    1.426371 S    
O1    C1    1.290984 A    
O4    C2    1.289558 A    
N4    O11   1.300582 A    
C9    H4    1.087156 S    
C20   H8    1.107964 S    
Cu1   N1    2.019126 S    
C9    C11   1.336399 D    
C6    N1    1.377104 A    
Cu2   N2    2.019126 S    
O2    Cu2   1.949830 S    
C10   C12   1.336578 D    
N5    O14   1.300281 A    
O1    Cu1   1.949830 S    
C16   N6    1.435023 S    
C22   H12   1.110798 S    
C7    H5    1.081997 S    
C4    C10   1.455478 S    
C5    N2    1.376958 A    
N3    O10   1.300588 A    
C8    H6    1.082138 S    
C20   H7    1.108453 S    
C6    C8    1.417700 A    
O4    Cu1   1.954253 S    
C5    C7    1.417704 A    
O7    Cu2   1.944362 S    
C19   H11   1.110694 S    
O6    Cu2   1.938204 S    
C7    N1    1.361769 A    
C14   C17   1.411379 A    
C22   H13   1.110232 S    
H2    C11   1.087840 S    
C8    N2    1.361685 A    
C13   C18   1.412248 A    
C3    C9    1.455485 S    
C5    N3    1.426371 S    
N6    O15   1.300701 A    
O3    C1    1.288613 A    
C10   H3    1.087168 S    
C16   C18   1.405633 A    
