data_mof_unit_59648.cif
_audit_creation_date              2012-12-10T17:34:23-0500
_audit_creation_method            fapswitch 2.2
_symmetry_space_group_name_H-M    P1
_symmetry_Int_Tables_number       1
_space_group_crystal_system       triclinic
_cell_length_a                    12.358771
_cell_length_b                    13.204345
_cell_length_c                    14.344124
_cell_angle_alpha                 78.585171
_cell_angle_beta                  100.614559
_cell_angle_gamma                 116.241722
_cell_volume                      2045.5448487

loop_
_atom_site_label
_atom_site_type_symbol
_atom_type_description
_atom_site_fract_x
_atom_site_fract_y
_atom_site_fract_z
_atom_type_partial_charge
C1    C     C_R   0.855139 0.286774 0.510080 0.743344
C2    C     C_1   0.999937 0.499750 0.228948 -0.180361
C3    C     C_R   0.280411 0.013345 0.539865 0.408424
C4    C     C_R   0.230377 0.834113 0.485436 -0.169965
C5    C     C_R   0.811375 0.114628 0.441553 -0.176829
C6    C     C_R   0.725966 0.022460 0.396933 -0.159200
C7    C     C_R   0.603518 0.981241 0.408092 -0.188472
C8    C     C_R   0.564794 0.023421 0.472861 0.103429
C9    C     C_R   0.652588 0.118204 0.517395 0.102383
C10   C     C_R   0.440907 0.979001 0.491031 -0.067313
C11   C     C_R   0.405170 0.043712 0.537023 -0.000764
C12   C     C_R   0.999968 0.500042 0.668643 0.767717
C13   C     C_R   0.494743 0.130684 0.586416 -0.198407
C14   C     C_R   0.616595 0.162995 0.580596 -0.193142
C15   C     C_R   0.352797 0.869456 0.471403 0.335567
C16   C     C_R   0.194510 0.908951 0.513561 -0.267453
C17   C     C_R   0.774599 0.167645 0.496907 -0.095303
C18   C     C_R   0.365871 0.366182 0.673495 -0.019852
C19   C     C_R   0.759061 0.642265 0.372557 0.635480
C20   C     C_R   0.662293 0.674010 0.344039 -0.356559
C21   C     C_R   0.561568 0.624449 0.394328 -0.241630
C22   C     C_R   0.556378 0.543606 0.475439 0.019448
C23   C     C_R   0.145476 0.713225 0.486838 0.875177
C24   C     C_R   0.657114 0.514147 0.502598 0.216637
C25   C     C_R   0.455022 0.490306 0.530443 -0.049809
C26   C     C_R   0.463726 0.420248 0.617678 0.112184
C27   C     C_R   0.566566 0.398105 0.644284 -0.299538
C28   C     C_R   0.656368 0.438171 0.585030 -0.159467
C29   C     C_R   0.345124 0.503193 0.502657 -0.008849
C30   C     C_R   0.251984 0.361196 0.630190 0.253255
C31   C     C_R   0.000080 0.500074 0.331330 0.825000
C32   C     C_1   0.999543 0.499583 0.771049 -0.202896
C33   C     C_1   0.999339 0.499273 0.856526 -0.010822
C34   C     C_1   0.999309 0.499152 0.957275 0.001898
C35   C     C_1   0.999437 0.499232 0.042751 0.003134
C36   C     C_1   0.999705 0.499479 0.143491 -0.005687
Cu1   Cu    Cu3+1 0.098280 0.475420 0.520190 0.944130
Cu2   Cu    Cu3+1 0.901720 0.524580 0.479810 0.975299
H1    H     H_    0.100198 0.882903 0.522292 0.195958
H2    H     H_    0.576197 0.342657 0.708364 0.154453
H3    H     H_    0.334309 0.560948 0.441157 0.168313
H4    H     H_    0.490844 0.653297 0.369549 0.174628
H5    H     H_    0.665239 0.737950 0.282970 0.143512
H6    H     H_    0.723559 0.406426 0.606172 0.192901
H7    H     H_    0.471275 0.169700 0.634232 0.151658
H8    H     H_    0.904366 0.151247 0.425039 0.154304
H9    H     H_    0.540647 0.919342 0.362467 0.188429
H10   H     H_    0.753851 0.987158 0.348690 0.146219
H11   H     H_    0.683201 0.224170 0.625312 0.120028
N1    N     N_R   0.246290 0.438200 0.550780 -0.197088
N2    N     N_R   0.754310 0.561180 0.449760 -0.215351
O1    O     O_R   0.972510 0.318130 0.525390 -0.595226
O2    O     O_R   0.806530 0.359650 0.491290 -0.582171
O3    O     O_R   0.083010 0.479240 0.641000 -0.565595
O4    O     O_R   0.917030 0.520750 0.606900 -0.583110
O5    O     O_R   0.193470 0.640350 0.508710 -0.530282
O6    O     O_R   0.027490 0.681870 0.474610 -0.545040
O7    O     O_R   0.082970 0.479250 0.393100 -0.569703
O8    O     O_R   0.916990 0.520760 0.359000 -0.505331
C37   C     C_3   0.380657 0.310426 0.776484 -0.431128
C38   C     C_3   0.465699 0.399757 0.842152 -0.334479
C39   C     C_3   0.482737 0.343954 0.944268 -0.835976
H12   H     H_    0.394117 0.297040 0.974112 0.255350
H13   H     H_    0.523872 0.283927 0.945529 0.254246
H14   H     H_    0.544092 0.410484 0.990015 0.247455
H15   H     H_    0.556212 0.448988 0.815874 0.230836
H16   H     H_    0.426285 0.460671 0.842974 0.223274
H17   H     H_    0.293638 0.266045 0.807886 0.216464
H18   H     H_    0.412632 0.243468 0.778720 0.196078
O9    O     O_3   0.860783 0.693679 0.324269 -0.701839
H19   H     H_    0.850504 0.750389 0.270934 0.290564
O10   O     O_3   0.238879 0.081050 0.570656 -0.759180
H20   H     H_    0.297678 0.161608 0.558242 0.315654
O11   O     O_3   0.385563 0.790387 0.449695 -0.753536
H21   H     H_    0.456845 0.791558 0.495363 0.323169
C40   C     C_3   0.141531 0.251023 0.655828 -0.345842
C41   C     C_3   0.072296 0.255477 0.733067 -0.325420
C42   C     C_3   0.015799 0.139972 0.794031 -0.889618
H22   H     H_    0.087404 0.113965 0.833952 0.256578
H23   H     H_    0.963561 0.145685 0.846493 0.248239
H24   H     H_    0.953117 0.074245 0.747929 0.268484
H25   H     H_    0.133393 0.320039 0.780717 0.218876
H26   H     H_    0.996668 0.278129 0.699530 0.236743
H27   H     H_    0.081568 0.218449 0.591283 0.218087
H28   H     H_    0.172425 0.181939 0.681397 0.205228

loop_
_geom_bond_atom_site_label_1
_geom_bond_atom_site_label_2
_ccdc_geom_bond_type
C19   C20   A    
C18   C26   A    
C40   H27   S    
C7    C8    A    
C41   C42   S    
C26   C27   A    
C39   H12   S    
C6    H10   S    
C37   H18   S    
C31   O7    A    
C4    C23   S    
C10   C15   A    
C5    C6    A    
C42   H23   S    
C14   H11   S    
C5    C17   A    
C41   H26   S    
C34   C35   T    
C31   O8    A    
C1    O2    A    
C39   H13   S    
Cu1   O5    S    
C38   H15   S    
Cu2   O4    S    
C35   C36   S    
C8    C9    A    
C22   C25   A    
O9    H19   S    
C18   C30   A    
Cu1   O7    S    
C24   N2    A    
C30   N1    A    
C13   C14   A    
C12   C32   S    
C29   N1    A    
C25   C29   A    
O11   H21   S    
C23   O5    A    
C40   C41   S    
Cu1   O1    S    
C42   H22   S    
Cu2   N2    S    
C25   C26   A    
C28   H6    S    
Cu2   O8    S    
C37   C38   S    
C7    H9    S    
C4    C16   A    
C9    C14   A    
Cu1   Cu2   S    
Cu2   O6    S    
C30   C40   S    
C38   H16   S    
C27   H2    S    
C33   C34   S    
Cu1   O3    S    
C9    C17   A    
C22   C24   A    
C20   H5    S    
C2    C36   T    
C23   O6    A    
C39   H14   S    
C29   H3    S    
C24   C28   A    
O10   H20   S    
C6    C7    A    
C5    H8    S    
C1    C17   S    
C32   C33   T    
C4    C15   A    
C3    O10   S    
C13   H7    S    
Cu1   N1    S    
C11   C13   A    
C42   H24   S    
Cu2   O2    S    
C41   H25   S    
C38   C39   S    
C1    O1    A    
C18   C37   S    
C12   O4    A    
C3    C11   A    
C10   C11   A    
C16   H1    S    
C21   H4    S    
C19   N2    A    
C15   O11   S    
C20   C21   A    
C37   H17   S    
C8    C10   A    
C27   C28   A    
C2    C31   S    
C19   O9    S    
C21   C22   A    
C40   H28   S    
C12   O3    A    
C3    C16   A    
