data_mof_unit_21092.cif
_audit_creation_date              2012-10-26T18:44:10-0400
_audit_creation_method            fapswitch 2.2
_symmetry_space_group_name_H-M    P1
_symmetry_Int_Tables_number       1
_space_group_crystal_system       triclinic
_cell_length_a                    19.325773
_cell_length_b                    9.08241
_cell_length_c                    7.776391
_cell_angle_alpha                 90.001396
_cell_angle_beta                  89.956085
_cell_angle_gamma                 90.001941
_cell_volume                      1364.94747058

loop_
_atom_site_label
_atom_site_type_symbol
_atom_type_description
_atom_site_fract_x
_atom_site_fract_y
_atom_site_fract_z
_atom_type_partial_charge
C1    C     C_R   0.499996 0.219994 0.499999 0.530142
C2    C     C_R   0.252676 0.555397 0.365410 0.266948
C3    C     C_R   0.183352 0.414860 0.639173 0.224570
C4    C     C_R   0.816630 0.414680 0.360873 0.224533
C5    C     C_R   0.818960 0.535686 0.643338 0.222822
C6    C     C_R   0.181042 0.535688 0.356611 0.222793
C7    C     C_R   0.145606 0.468908 0.496030 -0.073867
C8    C     C_R   0.854386 0.468822 0.503958 -0.073818
C9    C     C_R   0.290772 0.492246 0.501473 -0.094904
C10   C     C_R   0.709224 0.492201 0.498523 -0.094832
C11   C     C_R   0.930171 0.467240 0.502345 0.303299
C12   C     C_R   0.499995 0.780016 0.500002 0.526431
C13   C     C_R   0.069821 0.467282 0.497605 0.303296
C14   C     C_3   0.308714 0.224357 0.759999 0.039715
C15   C     C_3   0.354701 0.176670 0.909556 -0.239143
C16   C     C_3   0.374222 0.014267 0.896512 -0.481354
C17   C     C_3   0.691289 0.224080 0.240236 0.039683
C18   C     C_3   0.645323 0.176236 0.090703 -0.239259
C19   C     C_3   0.625825 0.013829 0.103909 -0.481227
C20   C     C_3   0.696439 0.776396 0.701572 0.033283
C21   C     C_3   0.753634 0.888616 0.739644 -0.240470
C22   C     C_3   0.736763 0.038121 0.660651 -0.490352
C23   C     C_R   0.367003 0.498542 0.500351 0.550099
C24   C     C_3   0.303662 0.776252 0.298178 0.033436
C25   C     C_3   0.246407 0.888498 0.260675 -0.240487
C26   C     C_3   0.263398 0.037944 0.339691 -0.490231
C27   C     C_R   0.632996 0.498543 0.499648 0.550222
C28   C     C_1   0.499991 0.065407 0.500001 -0.090038
C29   C     C_1   0.499990 0.934626 0.500006 -0.095815
C30   C     C_R   0.255698 0.422116 0.638041 0.251354
C31   C     C_R   0.744284 0.421957 0.362016 0.251345
C32   C     C_R   0.747329 0.555410 0.634534 0.266992
Cu1   Cu    Cu3+1 0.500000 0.500000 0.669080 1.023283
Cu2   Cu    Cu3+1 0.500000 0.500000 0.330920 1.023262
H1    H     H_    0.337728 0.206244 0.637763 0.102762
H2    H     H_    0.597330 0.243598 0.089906 0.201465
H3    H     H_    0.673178 0.195735 0.967940 0.184029
H4    H     H_    0.672919 0.943913 0.102804 0.158038
H5    H     H_    0.592634 0.982961 0.993139 0.153780
H6    H     H_    0.596729 0.992958 0.224397 0.162122
H7    H     H_    0.648679 0.811314 0.769785 0.156464
H8    H     H_    0.683501 0.778245 0.561682 0.098765
H9    H     H_    0.759866 0.900514 0.880904 0.189560
H10   H     H_    0.803522 0.849911 0.685102 0.216224
H11   H     H_    0.739144 0.030017 0.518530 0.136962
H12   H     H_    0.260895 0.155885 0.760540 0.163174
H13   H     H_    0.775124 0.121246 0.703846 0.179410
H14   H     H_    0.684176 0.074839 0.698875 0.136956
H15   H     H_    0.351331 0.811195 0.229546 0.156479
H16   H     H_    0.316810 0.778040 0.437967 0.098831
H17   H     H_    0.239984 0.900500 0.119454 0.189639
H18   H     H_    0.196584 0.849765 0.315613 0.215977
H19   H     H_    0.261303 0.029672 0.481874 0.136811
H20   H     H_    0.224919 0.121086 0.297062 0.179299
H21   H     H_    0.315917 0.074746 0.300868 0.137046
H22   H     H_    0.102145 0.377100 0.784332 0.346970
H23   H     H_    0.402685 0.244070 0.910246 0.201498
H24   H     H_    0.897839 0.376706 0.215786 0.346967
H25   H     H_    0.898832 0.542124 0.797537 0.345018
H26   H     H_    0.101177 0.542062 0.202385 0.345019
H27   H     H_    0.326855 0.196258 0.032313 0.184067
H28   H     H_    0.327140 0.944314 0.897836 0.158016
H29   H     H_    0.407462 0.983541 0.007239 0.153686
H30   H     H_    0.403276 0.993298 0.775985 0.162152
H31   H     H_    0.662278 0.206010 0.362486 0.102767
H32   H     H_    0.739124 0.155664 0.239756 0.163166
N1    N     N_1   0.500000 0.500000 0.076820 -0.079173
N2    N     N_1   0.500000 0.500000 0.923180 -0.079197
N3    N     N_R   0.034369 0.596044 0.498595 -0.195250
N4    N     N_R   0.965564 0.338219 0.501130 -0.208648
N5    N     N_R   0.965609 0.596024 0.501162 -0.195206
N6    N     N_R   0.034442 0.338240 0.499017 -0.208591
O1    O     O_R   0.500000 0.288390 0.642760 -0.516288
O2    O     O_3   0.708342 0.373994 0.218740 -0.479442
O3    O     O_3   0.714863 0.634827 0.763794 -0.482772
O4    O     O_3   0.285149 0.634696 0.236058 -0.482675
O5    O     O_3   0.152337 0.356615 0.784576 -0.636553
O6    O     O_3   0.847635 0.356331 0.215511 -0.636656
O7    O     O_3   0.852249 0.586616 0.789141 -0.628871
O8    O     O_3   0.147762 0.586553 0.210769 -0.628729
O9    O     O_R   0.500000 0.711610 0.357240 -0.504118
O10   O     O_R   0.500000 0.711610 0.642760 -0.504079
O11   O     O_R   0.500000 0.288390 0.357240 -0.516271
O12   O     O_R   0.400140 0.500000 0.642830 -0.460758
O13   O     O_R   0.599860 0.500000 0.357170 -0.460706
O14   O     O_R   0.599860 0.500000 0.642830 -0.470709
O15   O     O_R   0.400140 0.500000 0.357170 -0.470770
O16   O     O_3   0.291625 0.374262 0.781386 -0.479372

loop_
_geom_bond_atom_site_label_1
_geom_bond_atom_site_label_2
_ccdc_geom_bond_type
C10   C27   S    
C22   H14   S    
C12   C29   S    
C27   O14   A    
C4    C8    A    
C26   H21   S    
C32   O3    S    
C20   H7    S    
C11   N4    A    
C14   H12   S    
C17   H32   S    
C28   C29   T    
C18   H3    S    
C3    C7    A    
C11   N5    A    
C15   C16   S    
C27   O13   A    
C18   C19   S    
N3    N5    A    
C21   H9    S    
C10   C31   A    
C1    C28   S    
Cu2   O9    S    
C5    O7    S    
Cu1   O10   S    
C5    C32   A    
C22   H13   S    
C23   O15   A    
C21   C22   S    
C15   H23   S    
C2    C6    A    
C16   H28   S    
C26   H20   S    
Cu1   Cu2   S    
C24   H16   S    
C23   O12   A    
N1    N2    T    
C24   C25   S    
H25   O7    S    
C14   H1    S    
C24   O4    S    
C31   O2    S    
C25   C26   S    
H22   O5    S    
C20   O3    S    
Cu2   O13   S    
C3    C30   A    
Cu1   O14   S    
C25   H17   S    
C4    O6    S    
C19   H4    S    
C21   H10   S    
C6    O8    S    
C17   C18   S    
C15   H27   S    
C12   O10   A    
C19   H5    S    
C9    C30   A    
Cu1   O1    S    
C16   H29   S    
C17   O2    S    
Cu2   O11   S    
C30   O16   S    
C3    O5    S    
C26   H19   S    
C2    O4    S    
C24   H15   S    
H26   O8    S    
C9    C23   S    
Cu2   N1    S    
C5    C8    A    
C20   H8    S    
C6    C7    A    
C13   N6    A    
C1    O11   A    
C17   H31   S    
C1    O1    A    
C25   H18   S    
C14   O16   S    
C13   N3    A    
C8    C11   S    
C12   O9    A    
Cu2   O15   S    
Cu1   O12   S    
C4    C31   A    
C19   H6    S    
H24   O6    S    
C10   C32   A    
C7    C13   S    
C22   H11   S    
C20   C21   S    
C14   C15   S    
N4    N6    A    
C16   H30   S    
C2    C9    A    
C18   H2    S    
Cu1   N2    S    
