data_mof_unit_19533.cif
_audit_creation_date              2012-12-11T15:23:37-0500
_audit_creation_method            fapswitch 2.2
_symmetry_space_group_name_H-M    P1
_symmetry_Int_Tables_number       1
_space_group_crystal_system       triclinic
_cell_length_a                    6.938705
_cell_length_b                    17.442434
_cell_length_c                    19.416503
_cell_angle_alpha                 109.41435
_cell_angle_beta                  90.1423
_cell_angle_gamma                 89.915045
_cell_volume                      2216.31245251

loop_
_atom_site_label
_atom_site_type_symbol
_atom_type_description
_atom_site_fract_x
_atom_site_fract_y
_atom_site_fract_z
_atom_type_partial_charge
O1    O     O_R   0.505810 0.439670 0.562310 -0.556840
O2    O     O_R   0.169070 0.404920 0.411210 -0.528240
O3    O     O_R   0.005550 0.560330 0.437690 -0.507026
C1    C     C_R   0.339066 0.381642 0.383049 0.828294
O4    O     O_R   0.175650 0.430000 0.560110 -0.549160
O5    O     O_R   0.012170 0.585580 0.587650 -0.532324
C2    C     C_R   0.344870 0.416956 0.583444 0.657787
O6    O     O_R   0.499180 0.414420 0.412350 -0.532201
O7    O     O_3   0.341430 0.551020 0.508860 -0.347722
V1    V     V_3+5 0.063930 0.490540 0.498360 1.539198
O8    O     O_R   0.682850 0.595080 0.588790 -0.546045
C3    C     C_R   0.851960 0.619146 0.616161 0.701808
O9    O     O_R   0.676280 0.570000 0.439890 -0.543658
C4    C     C_R   0.844303 0.585211 0.418412 0.773944
V2    V     V_3+5 0.564760 0.509460 0.501640 1.524150
O10   O     O_3   0.837130 0.448980 0.491140 -0.382241
C5    C     C_R   0.801223 0.890327 0.193383 -0.057703
C6    C     C_R   0.918628 0.864513 0.130323 -0.133265
C7    C     C_R   0.025766 0.791244 0.115174 -0.011813
C8    C     C_R   0.029227 0.749778 0.167105 -0.018046
C9    C     C_R   0.885177 0.768492 0.222034 0.049177
C10   C     C_R   0.758362 0.834580 0.230496 0.029153
C11   C     C_R   0.168251 0.688781 0.165074 -0.073848
C12   C     C_R   0.143226 0.640478 0.209256 -0.020436
C13   C     C_R   0.995113 0.655656 0.261009 0.041005
C14   C     C_R   0.868981 0.721670 0.269131 -0.014833
C15   C     C_R   0.726959 0.740976 0.324377 0.052107
C16   C     C_R   0.576282 0.794894 0.321291 0.332015
C17   C     C_R   0.590728 0.841366 0.274228 -0.108646
C18   C     C_R   0.975129 0.607431 0.306273 0.392640
C19   C     C_R   0.851288 0.632655 0.367306 -0.218957
C20   C     C_R   0.736193 0.703225 0.379063 -0.093002
H1    H     H_    0.249701 0.594151 0.206397 0.225549
C21   C     C_3   0.713585 0.781502 0.773247 0.343396
C22   C     C_3   0.802763 0.778764 0.699814 -0.153378
C23   C     C_3   0.865459 0.689882 0.686086 -0.230816
C24   C     C_3   0.774683 0.692194 0.759608 -0.141982
C25   C     C_3   0.968477 0.723441 0.798454 -0.149350
C26   C     C_3   0.058686 0.720570 0.725216 -0.068508
C27   C     C_3   0.995974 0.809570 0.739003 0.441925
C28   C     C_3   0.906395 0.812224 0.812524 -0.215366
H2    H     H_    0.680465 0.645988 0.769565 0.190107
C29   C     C_3   0.473543 0.233054 0.304920 -0.210348
C30   C     C_3   0.311171 0.182864 0.255782 0.394017
H3    H     H_    0.543962 0.218185 0.350314 0.180997
C31   C     C_3   0.413429 0.188962 0.187402 -0.225446
C32   C     C_3   0.576416 0.239412 0.235807 -0.246541
C33   C     C_3   0.460535 0.317878 0.243969 0.450713
C34   C     C_3   0.298902 0.267298 0.195530 0.379185
C35   C     C_3   0.194602 0.261143 0.263986 -0.236749
C36   C     C_3   0.358025 0.311461 0.312234 -0.219192
H4    H     H_    0.732347 0.230539 0.223473 0.183509
H5    H     H_    0.038518 0.270031 0.275985 0.173020
C37   C     C_R   0.292399 0.116874 0.812745 -0.112038
C38   C     C_R   0.416949 0.139439 0.873197 -0.106613
C39   C     C_R   0.531348 0.210670 0.887087 -0.052301
C40   C     C_R   0.548311 0.247441 0.831552 -0.000441
C41   C     C_R   0.409943 0.228085 0.774724 0.030480
C42   C     C_R   0.281362 0.162753 0.765741 0.120427
C43   C     C_R   0.701774 0.300984 0.829558 -0.074146
C44   C     C_R   0.688388 0.348378 0.782429 -0.047446
C45   C     C_R   0.524568 0.340347 0.736022 0.029555
C46   C     C_R   0.397674 0.274519 0.727268 0.044584
C47   C     C_R   0.255757 0.255611 0.671647 0.091669
C48   C     C_R   0.131080 0.189840 0.662969 -0.187833
C49   C     C_R   0.144249 0.143666 0.709363 -0.089321
C50   C     C_R   0.487608 0.394021 0.695580 -0.066746
C51   C     C_R   0.358691 0.370301 0.635266 -0.134245
C52   C     C_R   0.242467 0.301589 0.624599 -0.203503
H6    H     H_    0.199730 0.064410 0.803400 0.173180
H7    H     H_    0.139373 0.284518 0.580012 0.133293
H8    H     H_    0.022469 0.174258 0.620362 0.151854
H9    H     H_    0.045378 0.093444 0.701666 0.177402
O11   O     O_R   0.271890 0.085690 0.087580 -0.533066
O12   O     O_R   0.595690 0.070020 0.939870 -0.524486
O13   O     O_R   0.758900 0.914390 0.912370 -0.518637
C53   C     C_R   0.426269 0.087024 0.919942 0.808581
O14   O     O_R   0.602020 0.095100 0.088770 -0.541667
O15   O     O_R   0.765280 0.939660 0.062330 -0.565272
C54   C     C_R   0.432073 0.118487 0.116821 0.818770
O16   O     O_R   0.265520 0.060430 0.937620 -0.539630
O17   O     O_3   0.429560 0.949050 0.991100 -0.345128
V3    V     V_3+5 0.707160 0.009450 0.001650 1.624587
O18   O     O_R   0.094540 0.929890 0.060190 -0.495178
C55   C     C_R   0.926491 0.913830 0.080816 0.708055
O19   O     O_R   0.088200 0.904800 0.911290 -0.520158
C56   C     C_R   0.919294 0.881670 0.883291 0.776330
V4    V     V_3+5 0.206300 0.990390 0.998440 1.688884
O20   O     O_3   0.934030 0.050940 0.008900 -0.372919
C57   C     C_2   0.747972 0.978169 0.225729 0.561812
H10   H     H_    0.743738 0.017648 0.192938 0.030739
O21   O     O_2   0.718363 0.008856 0.291161 -0.497225
Cl1   Cl    Cl    0.484711 0.822311 0.807821 -0.633157
C58   C     C_2   0.065065 0.690690 0.851648 0.447245
H11   H     H_    0.206093 0.713158 0.872973 0.117722
O22   O     O_2   0.987820 0.637682 0.869902 -0.476421
C59   C     C_2   0.251307 0.684124 0.698562 0.535669
H12   H     H_    0.324824 0.647114 0.725600 0.001900
O23   O     O_2   0.323088 0.693705 0.644811 -0.517842
Cl2   Cl    Cl    0.139760 0.887505 0.724450 -0.548424
Cl3   Cl    Cl    0.211632 0.092525 0.264551 -0.621353
Cl4   Cl    Cl    0.562964 0.407847 0.235232 -0.475791
Cl5   Cl    Cl    0.182372 0.291136 0.123294 -0.487164
C60   C     C_2   0.108587 0.750501 0.041547 0.311510
H13   H     H_    0.078054 0.686624 0.013932 0.129134
O24   O     O_2   0.221911 0.784940 0.013863 -0.515336
C61   C     C_2   0.600820 0.256422 0.962804 0.538265
H14   H     H_    0.657751 0.317395 0.975407 0.083382
O25   O     O_2   0.586541 0.229569 0.013103 -0.508407
C62   C     C_2   0.888387 0.297171 0.866825 0.337204
H15   H     H_    0.979127 0.350128 0.888457 0.149848
O26   O     O_2   0.944029 0.233414 0.873157 -0.531276
C63   C     C_2   0.857922 0.395485 0.771613 0.461261
H16   H     H_    0.899721 0.391388 0.716662 0.011947
O27   O     O_2   0.944431 0.442429 0.823261 -0.479486
C64   C     C_2   0.551550 0.480268 0.724279 0.368733
H17   H     H_    0.583279 0.514118 0.688065 0.026828
O28   O     O_2   0.559678 0.515872 0.790045 -0.481485
C65   C     C_2   0.354051 0.680787 0.125096 0.402733
H18   H     H_    0.412603 0.731831 0.111992 0.107151
O29   O     O_2   0.446781 0.617678 0.108051 -0.486741
Cl6   Cl    Cl    0.101425 0.513794 0.285209 -0.546176
C66   C     C_2   0.654920 0.744961 0.453020 0.575360
H19   H     H_    0.601663 0.711229 0.486708 0.011861
O30   O     O_2   0.653698 0.819100 0.478438 -0.453596
Cl7   Cl    Cl    0.351751 0.792142 0.364412 -0.639837
C67   C     C_2   0.419156 0.888652 0.265014 0.495504
H20   H     H_    0.322571 0.916028 0.310407 0.154772
O31   O     O_2   0.380603 0.895351 0.205878 -0.533390
C68   C     C_2   0.705203 0.810930 0.646185 0.559294
H21   H     H_    0.573038 0.783489 0.619861 0.110034
O32   O     O_2   0.772710 0.868563 0.632197 -0.453691

loop_
_geom_bond_atom_site_label_1
_geom_bond_atom_site_label_2
_ccdc_geom_bond_type
C31   C54   S    
C9    C14   A    
C10   C17   A    
C21   C24   S    
O2    C1    A    
C7    C8    A    
C21   Cl1   S    
C4    C19   S    
C1    O6    A    
C29   C36   S    
C60   O24   D    
C59   H12   S    
C57   H10   S    
C66   H19   S    
C39   C40   A    
C31   C34   S    
C16   C17   A    
C14   C15   A    
C45   C46   A    
C45   C50   A    
C23   C24   S    
C6    C7    A    
C42   C49   A    
C11   C65   S    
C18   C19   A    
C38   C53   S    
O19   V4    S    
C66   O30   D    
V2    O10   S    
C41   C46   A    
C64   H17   S    
C21   C22   S    
C24   H2    S    
C52   H7    S    
C62   H15   S    
C2    C51   S    
C31   C32   S    
O8    V2    S    
O14   V3    S    
C33   C36   S    
C18   Cl6   S    
C16   Cl7   S    
C51   C52   A    
C11   C12   A    
O1    V2    S    
C3    C23   S    
O7    V1    S    
V4    O20   S    
O11   C54   A    
O9    C4    A    
C61   O25   D    
C20   C66   S    
C58   H11   S    
C21   C28   S    
C28   C56   S    
O13   V3    S    
C60   H13   S    
C59   O23   D    
C30   C31   S    
C5    C6    A    
C37   C42   A    
C65   O29   D    
V3    O20   S    
C35   H5    S    
C1    C36   S    
C50   C51   A    
C6    C55   S    
C43   C62   S    
C12   C13   A    
C25   C28   S    
C26   C27   S    
O4    C2    A    
O19   C56   A    
C40   C43   A    
C41   C42   A    
C49   H9    S    
C23   C26   S    
C43   C44   A    
C22   C23   S    
C68   O32   D    
C50   C64   S    
C67   O31   D    
C39   C61   S    
C34   Cl5   S    
C24   C25   S    
C12   H1    S    
O12   C53   A    
C7    C60   S    
C57   O21   D    
C32   C33   S    
C37   H6    S    
C8    C11   A    
C53   O16   A    
C61   H14   S    
C33   Cl4   S    
C25   C58   S    
C38   C39   A    
C35   C36   S    
C47   C52   A    
O18   C55   A    
C65   H18   S    
C58   O22   D    
C29   H3    S    
O13   C56   A    
O3    C4    A    
C27   C28   S    
C34   C35   S    
O6    V2    S    
C22   C68   S    
C17   C67   S    
C29   C30   S    
C44   C63   S    
C67   H20   S    
O2    V1    S    
O5    C3    A    
O15   C55   A    
C63   H16   S    
C30   C35   S    
C13   C18   A    
C37   C38   A    
C33   C34   S    
C15   C20   A    
O1    C2    A    
C19   C20   A    
C5    C57   S    
O18   V4    S    
O5    V1    S    
C30   Cl3   S    
C32   H4    S    
C48   H8    S    
C5    C10   A    
C27   Cl2   S    
C47   C48   A    
O9    V2    S    
C68   H21   S    
C13   C14   A    
O4    V1    S    
O3    V1    S    
V1    O10   S    
O15   V3    S    
O12   V3    S    
C40   C41   A    
C25   C26   S    
O17   V4    S    
C64   O28   D    
C22   C27   S    
O14   C54   A    
C48   C49   A    
O7    V2    S    
C44   C45   A    
C62   O26   D    
O16   V4    S    
C26   C59   S    
C46   C47   A    
C8    C9    A    
O17   V3    S    
C15   C16   A    
O11   V4    S    
C9    C10   A    
C29   C32   S    
O8    C3    A    
C63   O27   D    
