data_mof_unit_7820.cif
_audit_creation_date              2012-12-10T18:29:35-0500
_audit_creation_method            fapswitch 2.2
_symmetry_space_group_name_H-M    P1
_symmetry_Int_Tables_number       1
_space_group_crystal_system       triclinic
_cell_length_a                    11.53128
_cell_length_b                    14.791484
_cell_length_c                    15.368559
_cell_angle_alpha                 80.540087
_cell_angle_beta                  90.015923
_cell_angle_gamma                 103.51701
_cell_volume                      2512.07583074

loop_
_atom_site_label
_atom_site_type_symbol
_atom_type_description
_atom_site_fract_x
_atom_site_fract_y
_atom_site_fract_z
_atom_type_partial_charge
C1    C     C_R   0.476764 0.440543 0.662597 0.867622
C2    C     C_R   0.514471 0.559575 0.337412 0.866107
C3    C     C_R   0.438787 0.344171 0.939537 0.065391
C4    C     C_R   0.574088 0.649320 0.061733 0.053115
C5    C     C_R   0.491529 0.511464 0.954043 0.067735
C6    C     C_R   0.480937 0.486551 0.046185 0.071608
C7    C     C_R   0.463103 0.390731 0.084013 -0.196034
C8    C     C_R   0.553069 0.603780 0.916740 -0.193144
C9    C     C_R   0.446196 0.320931 0.031499 -0.211472
C10   C     C_R   0.597122 0.670697 0.969910 -0.222552
C11   C     C_R   0.698219 0.838031 0.630076 0.052082
C12   C     C_R   0.291569 0.147028 0.394419 0.062202
C13   C     C_R   0.661386 0.750611 0.603635 -0.014702
C14   C     C_R   0.340007 0.242038 0.397112 -0.010380
C15   C     C_R   0.497820 0.794084 0.530441 -0.082046
C16   C     C_R   0.489607 0.204933 0.491024 -0.055985
C17   C     C_R   0.524337 0.881413 0.560637 -0.060413
C18   C     C_R   0.437370 0.107357 0.501009 -0.058766
C19   C     C_R   0.634998 0.908946 0.601721 0.069944
C20   C     C_R   0.331410 0.076998 0.454690 0.030194
C21   C     C_R   0.448208 0.944350 0.543129 -0.004843
C22   C     C_R   0.492308 0.039542 0.550363 -0.020300
C23   C     C_R   0.717930 0.500385 0.500129 0.911290
C24   C     C_R   0.282072 0.499617 0.499923 0.883844
C25   C     C_R   0.592423 0.062800 0.603305 0.098142
C26   C     C_R   0.325528 0.914489 0.526099 0.125758
C27   C     C_R   0.674531 0.004568 0.613817 0.176294
C28   C     C_R   0.268322 0.980067 0.475453 0.148402
C29   C     C_1   0.838688 0.501037 0.500326 -0.193613
C30   C     C_1   0.161368 0.499061 0.499818 -0.194023
C31   C     C_1   0.940832 0.500623 0.500238 0.000907
C32   C     C_1   0.059274 0.499605 0.499974 -0.000354
C33   C     C_R   0.448520 0.402921 0.756446 -0.165619
C34   C     C_R   0.521652 0.598069 0.243303 -0.162477
C35   C     C_R   0.424236 0.275627 0.882752 0.171449
C36   C     C_R   0.621249 0.714692 0.118525 0.162959
C37   C     C_R   0.444168 0.308506 0.791417 -0.233862
C38   C     C_R   0.600492 0.684436 0.210232 -0.221642
C39   C     C_R   0.428206 0.463539 0.812782 0.090950
C40   C     C_R   0.458244 0.542840 0.185428 0.092691
C41   C     C_R   0.452634 0.440789 0.901986 0.057632
C42   C     C_R   0.503703 0.558514 0.098132 0.058466
H1    H     H_    0.443324 0.250044 0.064255 0.155875
H2    H     H_    0.649520 0.738628 0.938043 0.169990
H3    H     H_    0.645313 0.726842 0.256766 0.180389
H4    H     H_    0.452325 0.260462 0.747225 0.175255
H5    H     H_    0.474351 0.369846 0.153699 0.157332
H6    H     H_    0.578026 0.622369 0.847192 0.165174
H7    H     H_    0.572547 0.232803 0.519686 0.140913
H8    H     H_    0.422541 0.774950 0.489573 0.142296
H9    H     H_    0.302499 0.295815 0.359109 0.146296
H10   H     H_    0.707847 0.695823 0.625369 0.172436
N1    N     N_R   0.566020 0.731700 0.552730 -0.113288
N2    N     N_R   0.433980 0.268300 0.447270 -0.111983
O1    O     O_R   0.466720 0.383110 0.605620 -0.610922
O2    O     O_R   0.533280 0.616890 0.394380 -0.604279
O3    O     O_R   0.509090 0.531900 0.639510 -0.619738
O4    O     O_R   0.490910 0.468100 0.360490 -0.612076
O5    O     O_R   0.644370 0.425610 0.483050 -0.610884
O6    O     O_R   0.355630 0.574390 0.516950 -0.621938
O7    O     O_R   0.686740 0.574390 0.516930 -0.612339
O8    O     O_R   0.313260 0.425610 0.483070 -0.610212
Zn1   Zn    Zn3+2 0.471710 0.400660 0.477370 0.934613
Zn2   Zn    Zn3+2 0.528290 0.599340 0.522630 0.928852
C43   C     C_3   0.597680 0.135591 0.664042 -0.442929
C44   C     C_3   0.605594 0.094116 0.761171 -0.862152
H11   H     H_    0.526970 0.034782 0.782656 0.267011
H12   H     H_    0.688295 0.068799 0.773127 0.264625
H13   H     H_    0.607558 0.149887 0.801667 0.248685
H14   H     H_    0.673899 0.197372 0.644729 0.199838
H15   H     H_    0.514780 0.161614 0.660404 0.213333
C45   C     C_3   0.251074 0.825948 0.584688 -0.434422
C46   C     C_3   0.203156 0.851236 0.668061 -0.813756
H16   H     H_    0.278571 0.879672 0.708547 0.257395
H17   H     H_    0.149927 0.904864 0.651970 0.267317
H18   H     H_    0.145534 0.787012 0.707945 0.262919
H19   H     H_    0.176730 0.787922 0.549189 0.217619
H20   H     H_    0.302800 0.773278 0.608404 0.216167
C47   C     C_3   0.333112 0.481188 0.213080 -0.374512
C48   C     C_3   0.238604 0.508817 0.151217 -0.840074
H21   H     H_    0.148441 0.468882 0.178083 0.255388
H22   H     H_    0.243309 0.585460 0.145488 0.258789
H23   H     H_    0.250944 0.491885 0.084639 0.263469
H24   H     H_    0.328313 0.405152 0.217271 0.213081
H25   H     H_    0.305698 0.490020 0.279851 0.205492
C49   C     C_3   0.359984 0.539637 0.781072 -0.358691
C50   C     C_3   0.253479 0.534236 0.842705 -0.865463
H26   H     H_    0.199301 0.582804 0.811407 0.251981
H27   H     H_    0.196198 0.461363 0.855388 0.265453
H28   H     H_    0.283488 0.555881 0.906348 0.264133
H29   H     H_    0.418617 0.611628 0.771250 0.210386
H30   H     H_    0.321518 0.529770 0.716042 0.216762
C51   C     C_3   0.395867 0.169855 0.917034 -0.424024
C52   C     C_3   0.305173 0.112702 0.861941 -0.834785
H31   H     H_    0.225176 0.142498 0.852931 0.270270
H32   H     H_    0.344734 0.111574 0.796472 0.252785
H33   H     H_    0.276614 0.038541 0.896509 0.253472
H34   H     H_    0.479309 0.144697 0.919225 0.204316
H35   H     H_    0.355211 0.153042 0.984712 0.219013
C53   C     C_3   0.698315 0.812142 0.080854 -0.409455
C54   C     C_3   0.742350 0.877456 0.147678 -0.849462
H36   H     H_    0.665762 0.888127 0.185273 0.260873
H37   H     H_    0.803970 0.848176 0.193607 0.257937
H38   H     H_    0.792193 0.947275 0.112065 0.261619
H39   H     H_    0.777882 0.803493 0.045269 0.218873
H40   H     H_    0.645642 0.848721 0.032475 0.210980
C55   C     C_3   0.805699 0.052067 0.622334 -0.376839
C56   C     C_3   0.884420 0.042685 0.545697 -0.842023
H41   H     H_    0.885097 0.968117 0.544607 0.274240
H42   H     H_    0.851946 0.072747 0.481880 0.262682
H43   H     H_    0.977663 0.082097 0.552475 0.252462
H44   H     H_    0.818197 0.128959 0.620275 0.205841
H45   H     H_    0.839493 0.027321 0.686757 0.236224
C57   C     C_3   0.137676 0.947252 0.454004 -0.388021
C58   C     C_3   0.123241 0.887750 0.380286 -0.802449
H46   H     H_    0.182452 0.924561 0.322075 0.284455
H47   H     H_    0.145900 0.819068 0.402857 0.236436
H48   H     H_    0.029221 0.873877 0.359865 0.255789
H49   H     H_    0.083271 0.905529 0.512683 0.214816
H50   H     H_    0.094943 0.006936 0.437337 0.232532
I1    I     I_    0.829820 0.839558 0.727689 -0.518884
I2    I     I_    0.181508 0.127319 0.284099 -0.471836

loop_
_geom_bond_atom_site_label_1
_geom_bond_atom_site_label_2
_ccdc_geom_bond_type
C44   H12   S    
C21   C26   A    
C4    C36   A    
C54   H36   S    
C26   C45   S    
C55   H44   S    
C50   H26   S    
C57   C58   S    
C1    C33   S    
C39   C41   A    
C23   O5    A    
C11   C19   A    
C53   H39   S    
C45   H19   S    
C34   C40   A    
C15   N1    A    
C35   C37   A    
C49   H29   S    
C5    C6    A    
N1    Zn2   S    
C44   H13   S    
N2    Zn1   S    
C43   H14   S    
C56   H41   S    
C15   C17   A    
C46   H16   S    
C15   H8    S    
C55   H45   S    
C38   H3    S    
C45   H20   S    
C31   C32   S    
C58   H47   S    
C22   C25   A    
O1    Zn1   S    
C55   C56   S    
O2    Zn2   S    
C3    C35   A    
C19   C27   A    
C51   H35   S    
C57   H49   S    
C2    C34   S    
C40   C42   A    
C44   H11   S    
C54   H37   S    
C34   C38   A    
C21   C22   A    
C46   H17   S    
C11   I1    S    
C48   H23   S    
C13   N1    A    
C35   C51   S    
C9    H1    S    
C10   H2    S    
C25   C43   S    
C16   H7    S    
C48   H22   S    
C49   C50   S    
C48   H21   S    
C20   C28   A    
C52   H33   S    
C43   H15   S    
C33   C37   A    
C7    H5    S    
O7    Zn2   S    
C8    H6    S    
O8    Zn1   S    
C3    C9    A    
C1    O3    A    
C13   H10   S    
C14   H9    S    
C27   C55   S    
C24   O6    A    
C58   H48   S    
C12   C20   A    
C40   C47   S    
C36   C53   S    
C51   C52   S    
C33   C39   A    
C52   H32   S    
C28   C57   S    
C16   C18   A    
C14   N2    A    
C12   C14   A    
C54   H38   S    
C50   H27   S    
C46   H18   S    
C4    C10   A    
C23   C29   S    
C47   H25   S    
O3    Zn2   S    
O4    Zn1   S    
C7    C9    A    
C5    C41   A    
C3    C41   A    
C24   O8    A    
C18   C22   A    
C26   C28   A    
C45   C46   S    
C5    C8    A    
C2    O4    A    
C6    C7    A    
C53   H40   S    
C25   C27   A    
O5    Zn1   S    
C56   H43   S    
O6    Zn2   S    
C16   N2    A    
C36   C38   A    
C1    O1    A    
C29   C31   T    
C49   H30   S    
C30   C32   T    
C11   C13   A    
C47   H24   S    
C4    C42   A    
C53   C54   S    
C17   C19   A    
C56   H42   S    
C18   C20   A    
C52   H31   S    
C24   C30   S    
C47   C48   S    
C23   O7    A    
C12   I2    S    
C8    C10   A    
C43   C44   S    
C6    C42   A    
C50   H28   S    
C2    O2    A    
C39   C49   S    
C37   H4    S    
C51   H34   S    
C57   H50   S    
C58   H46   S    
C17   C21   A    
