data_mof_unit_30379.cif
_audit_creation_date              2013-03-05T16:10:19-0500
_audit_creation_method            fapswitch 2.2
_symmetry_space_group_name_H-M    P1
_symmetry_Int_Tables_number       1
_space_group_crystal_system       triclinic
_cell_length_a                    8.184775
_cell_length_b                    15.137498
_cell_length_c                    18.775929
_cell_angle_alpha                 102.240011
_cell_angle_beta                  91.187071
_cell_angle_gamma                 99.050178
_cell_volume                      2241.57341358

loop_
_atom_site_label
_atom_site_type_symbol
_atom_site_description
_atom_site_fract_x
_atom_site_fract_y
_atom_site_fract_z
_atom_type_partial_charge
P1    P     P_3+3 0.039430 0.410940 0.333230 0.501165
O1    O     O_2   0.871960 0.437280 0.322960 -0.346471
O2    O     O_3   0.121410 0.444460 0.412450 -0.369975
O3    O     O_3   0.661450 0.607570 0.372550 -0.394533
O4    O     O_2   0.775931 0.543414 0.245822 -0.358815
O5    O     O_3   0.976028 0.291594 0.308099 -0.617046
O6    O     O_3   0.712501 0.709790 0.262778 -0.491071
H1    H     H_    0.737947 0.773547 0.372821 0.136527
C1    C     C_3   0.725199 0.871196 0.306221 -0.734272
H2    H     H_    0.862067 0.886639 0.305089 0.283107
H3    H     H_    0.669287 0.874942 0.252820 0.292041
P2    P     P_3+3 0.676770 0.715000 0.563590 0.542930
P3    P     P_3+3 0.128304 0.774096 0.414969 0.489680
O7    O     O_2   0.852310 0.726980 0.542430 -0.322344
O8    O     O_3   0.084010 0.657370 0.410280 -0.375192
O9    O     O_2   0.993826 0.819113 0.458700 -0.377463
O10   O     O_3   0.692157 0.742182 0.659222 -0.506999
O11   O     O_3   0.096040 0.791397 0.326791 -0.522479
C2    C     C_3   0.157273 0.723430 0.276211 0.231320
H4    H     H_    0.067201 0.658473 0.266129 0.112072
H5    H     H_    0.276982 0.709372 0.296019 -0.044725
C3    C     C_3   0.184507 0.754729 0.204359 0.503146
C4    C     C_3   0.140412 0.758299 0.733418 0.101062
H6    H     H_    0.025826 0.776001 0.711971 0.172633
H7    H     H_    0.109790 0.722226 0.778174 0.050788
C5    C     C_3   0.258693 0.847184 0.765111 -0.025554
H8    H     H_    0.372422 0.831434 0.789714 0.119709
H9    H     H_    0.295755 0.883078 0.720557 0.164367
Ba1   Ba    Ba6+2 0.853520 0.540910 0.466490 1.650980
C6    C     C_3   0.099721 0.241182 0.318363 0.650578
H10   H     H_    0.220814 0.285435 0.334595 0.107994
C7    C     C_3   0.112142 0.167625 0.249074 -0.125829
H11   H     H_    0.994795 0.117535 0.237570 0.161953
H12   H     H_    0.211764 0.128694 0.258851 0.158119
C8    C     C_3   0.711567 0.665863 0.687402 0.437705
H13   H     H_    0.831997 0.645514 0.672630 0.029946
H14   H     H_    0.612029 0.606978 0.666646 0.143340
C9    C     C_3   0.704784 0.692413 0.770119 -0.955662
H15   H     H_    0.805623 0.750033 0.793489 0.280239
H16   H     H_    0.717583 0.633759 0.795089 0.210154
H17   H     H_    0.584258 0.714322 0.784426 0.259833
P4    P     P_3+3 0.150290 0.589140 0.666780 0.507016
O12   O     O_2   0.317750 0.562750 0.677090 -0.359879
O13   O     O_3   0.068300 0.555620 0.587560 -0.352781
O14   O     O_3   0.528270 0.392500 0.627460 -0.397128
O15   O     O_3   0.214818 0.707246 0.675361 -0.523688
P5    P     P_3+3 0.067129 0.226188 0.588017 0.510597
O16   O     O_3   0.609290 0.386840 0.459690 -0.371710
O17   O     O_3   0.105700 0.342700 0.589730 -0.335358
O18   O     O_2   0.199736 0.183026 0.541692 -0.348584
O19   O     O_3   0.119985 0.214178 0.675814 -0.524156
Ba2   Ba    Ba6+2 0.336320 0.459170 0.533520 1.633047
P6    P     P_3+3 0.644948 0.600460 0.279288 0.491621
C10   C     C_3   0.672336 0.776224 0.321287 0.414128
H18   H     H_    0.537337 0.766223 0.328279 0.014207
H19   H     H_    0.683956 0.923617 0.349731 0.196633
O20   O     O_3   0.580430 0.613240 0.540320 -0.407613
C11   C     C_3   0.603718 0.258844 0.297517 0.828810
H20   H     H_    0.711482 0.295166 0.332959 0.117985
C12   C     C_3   0.646871 0.173754 0.247110 -0.786512
H21   H     H_    0.535008 0.133569 0.214162 0.288546
H22   H     H_    0.741506 0.193477 0.209486 0.266639
H23   H     H_    0.696030 0.129843 0.280028 0.218798
P7    P     P_3+3 0.517398 0.270372 0.431531 0.446655
O21   O     O_2   0.337390 0.273050 0.457610 -0.301584
O22   O     O_3   0.471215 0.232079 0.337583 -0.639882
H24   H     H_    0.252462 0.706706 0.168323 -0.008876
C13   C     C_3   0.984153 0.223389 0.719451 0.136840
H25   H     H_    0.943319 0.290561 0.721281 0.082710
H26   H     H_    0.880656 0.166303 0.698110 0.079521
C14   C     C_3   0.036188 0.218194 0.796938 -0.012875
H27   H     H_    0.106061 0.285577 0.826298 0.116159
H28   H     H_    0.119521 0.166340 0.794431 0.187969
P8    P     P_3+3 0.544520 0.401331 0.721253 0.459148
C15   C     C_3   0.529222 0.226845 0.681113 0.524004
H29   H     H_    0.663618 0.243148 0.673308 -0.048339
O23   O     O_2   0.411831 0.457454 0.754566 -0.381831
O24   O     O_3   0.480355 0.292045 0.738212 -0.490570
H30   H     H_    0.459058 0.224388 0.629364 0.134990
H31   H     H_    0.531558 0.080615 0.654038 0.200030
C16   C     C_3   0.492495 0.132339 0.698744 -0.860918
H32   H     H_    0.357661 0.113259 0.704734 0.280583
H33   H     H_    0.560866 0.131837 0.750243 0.296655
C17   C     C_R   0.987138 0.462568 0.048278 0.047317
C18   C     C_R   0.891440 0.414602 0.094166 -0.123651
C19   C     C_R   0.756653 0.436909 0.954039 -0.120885
C20   C     C_R   0.924629 0.468151 0.978039 0.064901
C21   C     C_R   0.700164 0.435354 0.883366 -0.065715
C22   C     C_R   0.807943 0.465669 0.833333 -0.024557
C23   C     C_R   0.972732 0.506938 0.857872 0.018669
C24   C     C_R   0.031582 0.508116 0.930546 0.041991
C25   C     C_R   0.755722 0.456141 0.759519 0.149444
C26   C     C_R   0.866456 0.488861 0.711562 -0.483391
C27   C     C_R   0.023187 0.539167 0.735873 0.172318
C28   C     C_R   0.078080 0.547576 0.810027 -0.015001
C29   C     C_R   0.152722 0.502748 0.072609 0.072328
C30   C     C_R   0.213068 0.500865 0.144461 0.010553
C31   C     C_R   0.108731 0.458185 0.191595 -0.043272
C32   C     C_R   0.951555 0.411933 0.163428 0.067063
H34   H     H_    0.826517 0.479250 0.654762 0.166826
H35   H     H_    0.570893 0.408476 0.868354 0.174569
H36   H     H_    0.872154 0.372255 0.194307 0.190725
C33   C     C_R   0.234534 0.595287 0.838126 -0.077240
C34   C     C_R   0.293100 0.595498 0.908275 -0.152322
C35   C     C_R   0.196742 0.549097 0.955012 0.050070
C36   C     C_R   0.258642 0.544730 0.025722 0.049740
C37   C     C_R   0.425383 0.578586 0.050549 -0.183817
C38   C     C_R   0.378194 0.541320 0.168880 -0.051152
C39   C     C_R   0.483012 0.577212 0.120298 -0.112967
C40   C     C_R   0.433850 0.545168 0.241310 0.211113
C41   C     C_R   0.326191 0.507848 0.288358 -0.389900
C42   C     C_R   0.165680 0.462661 0.264924 0.191512
H37   H     H_    0.315452 0.632663 0.806149 0.139904
H38   H     H_    0.611775 0.604813 0.135331 0.218257
H39   H     H_    0.369904 0.511730 0.343886 0.177304
H40   H     H_    0.664366 0.413358 0.988903 0.136779
H41   H     H_    0.769615 0.375966 0.077451 0.156528
H42   H     H_    0.414973 0.634231 0.924460 0.134630
H43   H     H_    0.516695 0.605828 0.016967 0.149782
C43   C     C_R   0.857714 0.173581 0.545642 0.224307
C44   C     C_R   0.790740 0.080609 0.540079 -0.076338
C45   C     C_R   0.649228 0.894327 0.535020 -0.207021
C46   C     C_R   0.800808 0.936586 0.576084 0.416649
C47   C     C_R   0.872753 0.025157 0.573500 -0.267565
C48   C     C_R   0.578681 0.799433 0.525938 0.235506
H44   H     H_    0.990081 0.052069 0.603696 0.195537
C49   C     C_R   0.424390 0.766522 0.488260 -0.435693
C50   C     C_R   0.615945 0.192950 0.476180 0.155323
C51   C     C_R   0.548470 0.099906 0.469816 -0.026476
C52   C     C_R   0.634651 0.043700 0.503307 0.035319
C53   C     C_R   0.396733 0.061809 0.431439 -0.078796
C54   C     C_R   0.326728 0.971871 0.428701 -0.104056
C55   C     C_R   0.408145 0.914972 0.462127 -0.017925
C56   C     C_R   0.564795 0.950533 0.499702 -0.011437
C57   C     C_R   0.336924 0.823391 0.458350 0.205281
C58   C     C_R   0.767777 0.228838 0.514921 -0.376379
H45   H     H_    0.207475 0.948313 0.399694 0.197016
H46   H     H_    0.328348 0.100931 0.403560 0.203621
H47   H     H_    0.369638 0.695456 0.483347 0.180015
H48   H     H_    0.819685 0.300097 0.518718 0.173516
N1    N     N_R   0.179602 0.906398 0.820745 0.269465
O25   O     O_R   0.154466 0.986074 0.811526 -0.305615
O26   O     O_R   0.139520 0.881376 0.881093 -0.325972
Cl1   Cl    Cl    0.031729 0.180137 0.386368 -0.690144
N2    N     N_R   0.145910 0.206381 0.185054 0.270884
O27   O     O_R   0.024757 0.228720 0.150648 -0.379037
O28   O     O_R   0.280128 0.194164 0.151113 -0.292361
Cl2   Cl    Cl    0.543184 0.334112 0.244717 -0.637959
N3    N     N_R   0.891657 0.192723 0.836886 0.245089
O29   O     O_R   0.873312 0.116766 0.859967 -0.264300
O30   O     O_R   0.781029 0.246047 0.850274 -0.407341
N4    N     N_R   0.875307 0.899039 0.629697 0.245941
O31   O     O_R   0.822327 0.916001 0.695280 -0.349633
O32   O     O_R   0.028029 0.885862 0.622598 -0.402455
N5    N     N_R   0.025757 0.754602 0.167038 0.265515
O33   O     O_R   0.976914 0.830833 0.161719 -0.285890
O34   O     O_R   0.935208 0.677014 0.135550 -0.428646
Cl3   Cl    Cl    0.312102 0.865476 0.220738 -0.600366

loop_
_geom_bond_atom_site_label_1
_geom_bond_atom_site_label_2
_geom_bond_distance
_ccdc_geom_bond_type
P6    C40   1.853430 S    
C6    C7    1.539328 S    
C26   C27   1.398174 A    
C20   C24   1.421944 A    
P2    Ba1   3.410702 S    
N5    O34   1.300697 A    
C37   C39   1.388167 A    
C24   C35   1.418740 A    
C41   C42   1.397551 A    
C17   C20   1.428660 A    
C44   C52   1.412917 A    
C58   H48   1.082178 S    
C50   C51   1.408619 A    
N1    O26   1.301257 A    
C16   H32   1.110235 S    
C23   C28   1.424230 A    
P5    O17   1.735425 S    
C51   C53   1.398423 A    
C5    H8    1.111498 S    
C49   H47   1.082192 S    
P3    O11   1.751267 S    
C12   H23   1.110749 S    
O4    P6    1.542380 D    
C33   H37   1.077888 S    
C49   C57   1.396839 A    
O11   C2    1.406866 S    
N3    O30   1.299213 A    
P1    C42   1.884591 S    
N2    O27   1.298664 A    
C6    H10   1.102725 S    
O3    P6    1.732567 S    
C11   Cl2   1.778385 S    
O12   Ba2   2.836886 S    
O16   P7    1.767658 S    
C36   C37   1.412364 A    
C11   C12   1.523024 S    
C30   C31   1.424803 A    
C6    Cl1   1.778179 S    
C38   C39   1.399706 A    
C19   H40   1.077450 S    
P1    O1    1.506179 D    
P4    O15   1.754578 S    
C4    C5    1.525953 S    
P8    C25   1.854012 S    
O2    Ba1   2.905146 S    
C40   C41   1.401153 A    
C45   C56   1.430517 A    
C44   C47   1.389999 A    
N2    O28   1.300024 A    
C46   N4    1.426307 S    
C30   C38   1.416594 A    
C11   O22   1.389619 S    
C2    H4    1.110593 S    
C13   H25   1.113269 S    
P7    C50   1.847392 S    
P8    O23   1.544522 D    
P2    O10   1.752243 S    
C4    H6    1.105768 S    
C5    N1    1.458495 S    
C1    H2    1.109383 S    
O3    Ba1   2.781978 S    
O13   Ba2   2.906044 S    
C4    O15   1.405265 S    
P3    C57   1.849233 S    
C52   C56   1.422935 A    
P4    O13   1.565803 S    
C37   H43   1.076576 S    
C34   C35   1.414627 A    
C16   H33   1.109150 S    
C28   C33   1.399718 A    
O8    Ba1   2.757855 S    
P5    O18   1.543593 D    
C34   H42   1.076574 S    
C3    N5    1.462943 S    
C9    H15   1.109382 S    
C31   C42   1.428785 A    
Ba1   O16   2.801424 S    
P1    O5    1.757620 S    
C46   C47   1.388183 A    
C2    C3    1.531162 S    
C17   C18   1.413274 A    
C9    H17   1.109688 S    
H1    C10   1.108264 S    
C14   H28   1.112496 S    
C19   C20   1.412909 A    
C15   C16   1.521881 S    
P5    O19   1.749271 S    
P2    C48   1.860188 S    
C3    Cl3   1.792469 S    
O14   Ba2   2.781471 S    
C54   H45   1.078245 S    
O14   P8    1.738319 S    
P1    O2    1.565777 S    
C8    H13   1.101827 S    
C7    H12   1.112071 S    
C15   H29   1.108606 S    
C18   C32   1.391741 A    
C48   C49   1.399653 A    
O17   Ba2   2.758577 S    
C29   C30   1.434537 A    
C8    C9    1.524021 S    
P1    Ba1   3.385084 S    
C1    H19   1.109891 S    
C21   C22   1.400359 A    
C22   C25   1.412648 A    
C18   H41   1.077273 S    
C1    H3    1.109590 S    
C26   H34   1.081750 S    
C39   H38   1.078919 S    
P2    O20   1.582309 S    
P5    C43   1.857538 S    
O5    C6    1.393470 S    
Ba1   O20   2.893303 S    
P3    O8    1.729863 S    
Ba1   O13   2.793562 S    
C55   C56   1.419776 A    
C11   H20   1.091369 S    
P4    O12   1.506556 D    
O6    P6    1.754292 S    
O7    Ba1   2.876290 S    
C53   C54   1.381353 A    
C17   C29   1.418655 A    
N5    O33   1.301423 A    
C43   C44   1.408792 A    
C47   H44   1.079828 S    
C51   C52   1.419202 A    
C29   C36   1.423362 A    
C10   H18   1.105824 S    
C8    H14   1.105102 S    
P4    C27   1.887289 S    
C21   H35   1.080762 S    
N4    O32   1.301583 A    
H31   C16   1.109524 S    
O2    Ba2   2.794198 S    
C45   C46   1.429843 A    
C7    N2    1.458496 S    
C35   C36   1.429544 A    
C5    H9    1.112835 S    
C7    H11   1.112168 S    
C45   C48   1.434237 A    
C50   C58   1.396841 A    
P2    O7    1.492390 D    
C14   H27   1.111921 S    
C53   H46   1.077774 S    
N1    O25   1.300793 A    
P7    O21   1.566003 D    
C12   H22   1.107910 S    
C9    H16   1.105825 S    
C23   C24   1.433179 A    
C14   N3    1.458268 S    
C13   C14   1.528945 S    
C25   C26   1.399742 A    
C38   C40   1.411638 A    
C54   C55   1.404367 A    
C19   C21   1.390347 A    
O19   C13   1.401710 S    
C4    H7    1.107876 S    
C27   C28   1.427434 A    
C15   O24   1.405958 S    
C3    H24   1.108992 S    
Ba2   O20   2.800853 S    
O16   Ba2   2.892471 S    
C32   H36   1.076902 S    
O1    Ba1   2.836360 S    
N4    O31   1.301283 A    
C13   H26   1.110720 S    
C31   C32   1.398679 A    
P8    O24   1.752403 S    
P3    O9    1.544729 D    
P4    Ba2   3.385632 S    
C33   C34   1.391458 A    
C55   C57   1.403239 A    
C12   H21   1.110306 S    
C41   H39   1.081847 S    
C1    C10   1.521792 S    
O10   C8    1.397604 S    
O6    C10   1.405970 S    
C43   C58   1.398187 A    
C22   C23   1.417337 A    
N3    O29   1.300787 A    
C15   H30   1.109103 S    
Ba2   O21   2.876596 S    
P7    O22   1.749389 S    
C2    H5    1.107991 S    
Ba1   Ba2   4.552212 S    
