data_mof_unit_36434.cif
_audit_creation_date              2012-12-10T19:00:47-0500
_audit_creation_method            fapswitch 2.2
_symmetry_space_group_name_H-M    P1
_symmetry_Int_Tables_number       1
_space_group_crystal_system       triclinic
_cell_length_a                    15.100847
_cell_length_b                    10.76862
_cell_length_c                    9.623084
_cell_angle_alpha                 89.70962
_cell_angle_beta                  88.814099
_cell_angle_gamma                 92.291972
_cell_volume                      1563.24651318

loop_
_atom_site_label
_atom_site_type_symbol
_atom_type_description
_atom_site_fract_x
_atom_site_fract_y
_atom_site_fract_z
_atom_type_partial_charge
C1    C     C_R   0.498846 0.262713 0.500297 0.789871
C2    C     C_R   0.911422 0.539162 0.367945 -0.067402
C3    C     C_R   0.947696 0.421212 0.727595 -0.178859
C4    C     C_R   0.039659 0.424797 0.731606 -0.193437
C5    C     C_R   0.090009 0.464203 0.614812 0.127188
C6    C     C_R   0.047563 0.499743 0.491422 0.044220
C7    C     C_R   0.098381 0.535620 0.371998 0.052152
C8    C     C_R   0.056422 0.562846 0.245770 0.077022
C9    C     C_R   0.962667 0.562750 0.243397 -0.013494
C10   C     C_R   0.182285 0.466663 0.619089 -0.203633
C11   C     C_R   0.232579 0.503200 0.501625 -0.057554
C12   C     C_R   0.329039 0.501001 0.501162 0.819970
C13   C     C_R   0.190883 0.538780 0.380378 -0.173476
C14   C     C_R   0.446509 0.059713 0.594910 0.108912
C15   C     C_R   0.500304 0.129408 0.501158 -0.039379
C16   C     C_R   0.559368 0.068813 0.412368 -0.135315
C17   C     C_R   0.560014 0.939240 0.412094 -0.148455
C18   C     C_R   0.501095 0.870235 0.499775 -0.019018
C19   C     C_R   0.446090 0.931795 0.592349 0.002438
C20   C     C_3   0.348095 0.916660 0.624735 -0.105074
C21   C     C_3   0.348301 0.060395 0.626419 -0.182068
C22   C     C_R   0.553869 0.581520 0.070941 0.330948
C23   C     C_R   0.500183 0.737066 0.499665 0.833009
C24   C     C_R   0.449757 0.414728 0.077269 0.038672
C25   C     C_R   0.448096 0.415830 0.928811 0.202155
C26   C     C_R   0.554862 0.580567 0.924066 0.194843
C27   C     C_3   0.554005 0.719200 0.917683 -0.277454
C28   C     C_3   0.552400 0.719991 0.075517 -0.513151
C29   C     C_R   0.671405 0.503812 0.498322 0.797660
C30   C     C_R   0.818349 0.554197 0.376839 -0.024830
C31   C     C_R   0.768972 0.506215 0.493410 -0.144842
C32   C     C_R   0.812877 0.459252 0.607356 -0.211226
C33   C     C_R   0.904878 0.460130 0.608245 0.113225
C34   C     C_R   0.954574 0.499345 0.488640 0.049007
Cu1   Cu    Cu3+1 0.500000 0.499980 0.640670 0.978950
Cu2   Cu    Cu3+1 0.500000 0.500020 0.359330 1.009429
H1    H     H_    0.605289 0.893114 0.342643 0.143712
H2    H     H_    0.333319 0.098962 0.730417 0.207930
H3    H     H_    0.492232 0.753531 0.873267 0.191981
H4    H     H_    0.612752 0.762640 0.122556 0.215165
H5    H     H_    0.775238 0.424311 0.697551 0.183937
H6    H     H_    0.489136 0.753367 0.119915 0.219527
H7    H     H_    0.909869 0.388769 0.818340 0.199794
H8    H     H_    0.071429 0.396015 0.825816 0.155468
H9    H     H_    0.214807 0.438207 0.712806 0.157589
H10   H     H_    0.231964 0.569322 0.292510 0.207120
H11   H     H_    0.603981 0.121508 0.342564 0.164961
N1    N     N_R   0.500570 0.500930 0.147930 -0.258569
N2    N     N_R   0.500570 0.500890 0.852020 -0.207742
O1    O     O_R   0.500000 0.319640 0.618810 -0.587513
O2    O     O_R   0.500010 0.319680 0.381230 -0.565221
O3    O     O_R   0.370250 0.499950 0.618800 -0.586353
O4    O     O_R   0.370260 0.499990 0.381220 -0.559150
O5    O     O_R   0.499990 0.680320 0.618770 -0.591071
O6    O     O_R   0.500000 0.680360 0.381190 -0.574007
O7    O     O_R   0.629740 0.500010 0.618780 -0.570930
O8    O     O_R   0.629750 0.500050 0.381200 -0.554647
C35   C     C_2   0.776250 0.641524 0.281541 0.853648
O9    O     O_2   0.733663 0.602085 0.183538 -0.543812
O10   O     O_R   0.788211 0.769335 0.302286 -0.749873
H12   H     H_    0.758418 0.820117 0.229034 0.333623
C36   C     C_2   0.291041 0.856377 0.512543 0.859950
O11   O     O_2   0.323962 0.819186 0.404113 -0.621880
O12   O     O_R   0.199145 0.846152 0.533841 -0.723576
H13   H     H_    0.167461 0.806402 0.452477 0.338791
C37   C     C_2   0.332390 0.857003 0.766912 0.821965
O13   O     O_2   0.292910 0.755858 0.778190 -0.568754
O14   O     O_R   0.364914 0.916373 0.885574 -0.764976
H14   H     H_    0.350838 0.867065 0.973879 0.343749
C38   C     C_3   0.295924 0.124550 0.512968 -0.813393
H15   H     H_    0.223855 0.104790 0.530456 0.265927
H16   H     H_    0.308367 0.226615 0.518359 0.208521
H17   H     H_    0.315536 0.092787 0.407457 0.272045
C39   C     C_2   0.392476 0.321560 0.153434 0.910056
O15   O     O_2   0.418000 0.216225 0.169713 -0.589019
O16   O     O_R   0.305448 0.349207 0.189701 -0.785689
H18   H     H_    0.271522 0.276574 0.235970 0.326174
C40   C     C_3   0.384746 0.322220 0.862712 -0.751031
H19   H     H_    0.316931 0.331647 0.907219 0.201049
H20   H     H_    0.376589 0.329703 0.751479 0.262297
H21   H     H_    0.407003 0.227344 0.885057 0.233503
C41   C     C_2   0.637476 0.776900 0.852788 0.932124
O17   O     O_2   0.632506 0.862628 0.769969 -0.590516
O18   O     O_R   0.720174 0.732883 0.886867 -0.733451
H22   H     H_    0.770684 0.779194 0.835365 0.333625
C42   C     C_3   0.112494 0.585139 0.113648 -0.779446
H23   H     H_    0.155510 0.505225 0.095738 0.239355
H24   H     H_    0.074507 0.594781 0.017579 0.250924
H25   H     H_    0.154311 0.671617 0.124257 0.247971
C43   C     C_2   0.919204 0.571191 0.107359 0.868501
O19   O     O_2   0.877653 0.480753 0.062602 -0.582769
O20   O     O_R   0.925940 0.681997 0.030872 -0.728707
H26   H     H_    0.896304 0.674283 0.937632 0.350114

loop_
_geom_bond_atom_site_label_1
_geom_bond_atom_site_label_2
_ccdc_geom_bond_type
C8    C9    A    
C37   O14   S    
C24   C25   A    
C22   N1    A    
C19   C20   S    
C7    C8    A    
C3    H7    S    
C26   C27   S    
C39   O16   S    
C14   C21   S    
C20   C37   S    
C13   H10   S    
C40   H20   S    
C3    C33   A    
C35   O10   S    
C15   C16   A    
C18   C19   A    
C36   O12   S    
Cu2   O4    S    
C21   H2    S    
Cu1   Cu2   S    
C27   H3    S    
C16   C17   A    
Cu1   N2    S    
C32   H5    S    
C38   H15   S    
C1    C15   S    
C1    O1    A    
C8    C42   S    
C12   O4    A    
C2    C34   A    
C37   O13   D    
C22   C28   S    
Cu1   O5    S    
Cu1   O1    S    
C16   H11   S    
C12   O3    A    
C17   C18   A    
C39   O15   D    
C18   C23   S    
C24   N1    A    
O18   H22   S    
Cu2   O8    S    
C26   N2    A    
C42   H23   S    
O14   H14   S    
C4    H8    S    
C35   O9    D    
C38   H17   S    
C25   C40   S    
O10   H12   S    
C36   O11   D    
C43   O20   S    
C31   C32   A    
C30   C31   A    
C10   H9    S    
C33   C34   A    
C17   H1    S    
O16   H18   S    
C1    O2    A    
Cu2   O2    S    
C29   O8    A    
C41   O18   S    
C3    C4    A    
Cu1   O3    S    
C23   O5    A    
Cu1   O7    S    
C40   H19   S    
C14   C19   A    
C27   C41   S    
C4    C5    A    
C42   H25   S    
C9    C43   S    
C11   C12   S    
C23   O6    A    
C6    C7    A    
C29   O7    A    
C21   C38   S    
C2    C30   A    
C32   C33   A    
C5    C10   A    
C29   C31   S    
Cu2   O6    S    
O12   H13   S    
C11   C13   A    
C40   H21   S    
C24   C39   S    
C43   O19   D    
C5    C6    A    
C30   C35   S    
C28   H6    S    
O20   H26   S    
Cu2   N1    S    
C42   H24   S    
C20   C36   S    
C25   N2    A    
C10   C11   A    
C6    C34   A    
C7    C13   A    
C20   C21   S    
C41   O17   D    
C22   C26   A    
C27   C28   S    
C28   H4    S    
C14   C15   A    
C38   H16   S    
C2    C9    A    
