data_mof_unit_8576.cif
_audit_creation_date              2012-10-26T17:43:22-0400
_audit_creation_method            fapswitch 2.2
_symmetry_space_group_name_H-M    P1
_symmetry_Int_Tables_number       1
_space_group_crystal_system       triclinic
_cell_length_a                    18.330304
_cell_length_b                    18.330254
_cell_length_c                    21.759738
_cell_angle_alpha                 89.964071
_cell_angle_beta                  89.964861
_cell_angle_gamma                 90.028346
_cell_volume                      7311.24928962

loop_
_atom_site_label
_atom_site_type_symbol
_atom_type_description
_atom_site_fract_x
_atom_site_fract_y
_atom_site_fract_z
_atom_type_partial_charge
C1    C     C_R   0.999985 0.360062 0.999966 0.547011
C2    C     C_1   0.282531 0.999913 0.999929 -0.081532
C3    C     C_R   0.742948 0.195257 0.888691 -0.103079
C4    C     C_R   0.705780 0.247006 0.853412 -0.108413
C5    C     C_R   0.744717 0.298005 0.818533 -0.082563
C6    C     C_R   0.297508 0.178950 0.818007 0.023357
C7    C     C_R   0.245839 0.142318 0.854637 -0.103450
C8    C     C_R   0.195778 0.181731 0.889982 -0.110675
C9    C     C_R   0.196866 0.257931 0.889205 -0.110488
C10   C     C_R   0.248274 0.294848 0.853315 -0.111110
C11   C     C_R   0.298692 0.255666 0.818110 -0.082245
C12   C     C_R   0.178629 0.702930 0.817623 0.023225
C13   C     C_1   0.000038 0.717470 0.000034 -0.078687
C14   C     C_R   0.141703 0.754882 0.853658 -0.103723
C15   C     C_R   0.180836 0.805594 0.888550 -0.109447
C16   C     C_R   0.257043 0.804871 0.887907 -0.103136
C17   C     C_R   0.294247 0.753125 0.852670 -0.108565
C18   C     C_R   0.255346 0.702051 0.817934 -0.082759
C19   C     C_R   0.702857 0.821578 0.817853 0.023239
C20   C     C_R   0.754839 0.858528 0.853839 -0.103792
C21   C     C_R   0.805499 0.819418 0.888804 -0.109510
C22   C     C_R   0.804695 0.743211 0.888285 -0.103140
C23   C     C_R   0.752920 0.705983 0.853095 -0.108403
C24   C     C_1   0.717470 0.000039 0.000033 -0.078695
C25   C     C_R   0.701898 0.744861 0.818286 -0.082579
C26   C     C_R   0.821074 0.703004 0.182086 0.023222
C27   C     C_R   0.857962 0.754925 0.145899 -0.103837
C28   C     C_R   0.818793 0.805541 0.110925 -0.109491
C29   C     C_R   0.742587 0.804755 0.111636 -0.103123
C30   C     C_R   0.705419 0.753039 0.147026 -0.108465
C31   C     C_R   0.744356 0.702059 0.181845 -0.082628
C32   C     C_R   0.296609 0.821917 0.182395 0.023569
C33   C     C_R   0.244707 0.859065 0.146471 -0.104083
C34   C     C_R   0.193823 0.820141 0.111592 -0.109619
C35   C     C_1   0.499961 0.782530 0.499966 -0.078701
C36   C     C_R   0.194319 0.743931 0.112139 -0.103201
C37   C     C_R   0.246009 0.706510 0.147273 -0.108332
C38   C     C_R   0.297255 0.745199 0.181997 -0.082317
C39   C     C_R   0.170791 0.290397 0.184664 0.022639
C40   C     C_R   0.201299 0.302421 0.126144 -0.105839
C41   C     C_R   0.232189 0.244674 0.093188 -0.110252
C42   C     C_R   0.232974 0.174485 0.118227 -0.088623
C43   C     C_R   0.202668 0.161863 0.176195 -0.100805
C44   C     C_R   0.171429 0.219372 0.209224 -0.080197
C45   C     C_R   0.702610 0.178937 0.181900 0.023269
C46   C     C_1   0.782530 0.499962 0.499967 -0.078687
C47   C     C_R   0.754648 0.142149 0.145837 -0.103753
C48   C     C_R   0.805148 0.181413 0.110741 -0.108010
C49   C     C_R   0.804133 0.257617 0.111211 -0.101504
C50   C     C_R   0.752309 0.294685 0.146485 -0.108330
C51   C     C_R   0.701440 0.255650 0.181421 -0.082422
C52   C     C_R   0.321095 0.797359 0.318103 0.023265
C53   C     C_R   0.357890 0.745326 0.354167 -0.103760
C54   C     C_R   0.318633 0.694819 0.389261 -0.108015
C55   C     C_R   0.242429 0.695821 0.388789 -0.101507
C56   C     C_R   0.205354 0.747639 0.353513 -0.108322
C57   C     C_1   0.500091 0.217469 0.500076 -0.081588
C58   C     C_R   0.244382 0.798516 0.318579 -0.082420
C59   C     C_R   0.796907 0.678832 0.317903 0.023224
C60   C     C_R   0.744994 0.641937 0.354093 -0.103845
C61   C     C_R   0.694376 0.681099 0.389069 -0.109503
C62   C     C_R   0.695152 0.757305 0.388358 -0.103134
C63   C     C_R   0.746860 0.794480 0.352965 -0.108455
C64   C     C_R   0.797842 0.755550 0.318144 -0.082620
C65   C     C_R   0.678039 0.203425 0.317606 0.023572
C66   C     C_R   0.640879 0.255324 0.353523 -0.104093
C67   C     C_R   0.679791 0.306218 0.388402 -0.109639
C68   C     C_1   0.217465 0.500042 0.500063 -0.073716
C69   C     C_R   0.756001 0.305733 0.387862 -0.103206
C70   C     C_R   0.793434 0.254047 0.352734 -0.108321
C71   C     C_R   0.754757 0.202792 0.318010 -0.082315
C72   C     C_R   0.210100 0.329900 0.315393 0.022600
C73   C     C_R   0.281138 0.329650 0.290856 -0.080270
C74   C     C_R   0.338813 0.298791 0.323932 -0.100597
C75   C     C_R   0.326339 0.268470 0.381918 -0.088312
C76   C     C_R   0.256131 0.268856 0.406927 -0.110280
C77   C     C_R   0.198219 0.299366 0.373924 -0.105876
C78   C     C_R   0.321097 0.202528 0.681975 0.023368
C79   C     C_R   0.000020 0.499994 0.881188 0.533330
C80   C     C_R   0.357741 0.254177 0.645332 -0.103425
C81   C     C_R   0.318340 0.304238 0.609977 -0.110748
C82   C     C_R   0.242140 0.303175 0.610758 -0.110547
C83   C     C_R   0.205211 0.251789 0.646662 -0.111063
C84   C     C_R   0.244381 0.201368 0.681876 -0.082227
C85   C     C_R   0.797065 0.321375 0.682376 0.023226
C86   C     C_R   0.745115 0.358303 0.646340 -0.103726
C87   C     C_R   0.694402 0.319172 0.611448 -0.109440
C88   C     C_R   0.695121 0.242965 0.612092 -0.103131
C89   C     C_R   0.746866 0.205759 0.647330 -0.108564
C90   C     C_R   0.499992 0.000023 0.881188 0.531940
C91   C     C_R   0.797941 0.244658 0.682066 -0.082755
C92   C     C_R   0.678423 0.797143 0.682152 0.023239
C93   C     C_R   0.641477 0.745160 0.646165 -0.103791
C94   C     C_R   0.680590 0.694505 0.611198 -0.109505
C95   C     C_R   0.756796 0.695314 0.611718 -0.103138
C96   C     C_R   0.794021 0.747090 0.646909 -0.108404
C97   C     C_R   0.755140 0.798108 0.681720 -0.082576
C98   C     C_R   0.202956 0.678562 0.681882 0.023367
C99   C     C_R   0.254908 0.641674 0.645804 -0.104135
C100  C     C_R   0.305541 0.680842 0.610766 -0.109947
C101  C     C_R   0.999940 0.500227 0.118811 0.534212
C102  C     C_R   0.304741 0.757048 0.611304 -0.103078
C103  C     C_R   0.252996 0.794216 0.646585 -0.108412
C104  C     C_R   0.201999 0.755279 0.681467 -0.082562
C105  C     C_R   0.360059 0.999977 0.999968 0.545114
C106  C     C_R   0.500022 0.999983 0.118812 0.532206
C107  C     C_R   0.500016 0.999976 0.381188 0.532221
C108  C     C_R   0.999751 0.500062 0.381191 0.534187
C109  C     C_R   0.499978 0.000005 0.618812 0.531919
C110  C     C_R   0.000005 0.499980 0.618812 0.533328
C111  C     C_R   0.085243 0.605198 0.812498 -0.113703
C112  C     C_R   0.605216 0.914958 0.812593 -0.113529
C113  C     C_R   0.914895 0.394698 0.812730 -0.113478
C114  C     C_R   0.394870 0.085301 0.812641 -0.113921
C115  C     C_R   0.083997 0.394542 0.187591 -0.111075
C116  C     C_R   0.000014 0.639941 0.000010 0.546205
C117  C     C_R   0.605204 0.085233 0.187298 -0.112766
C118  C     C_R   0.914464 0.605374 0.187338 -0.113828
C119  C     C_R   0.394655 0.914963 0.187491 -0.114837
C120  C     C_R   0.585015 0.105359 0.312510 -0.114786
C121  C     C_R   0.105617 0.416252 0.312445 -0.111033
C122  C     C_R   0.414782 0.894781 0.312705 -0.112774
C123  C     C_R   0.894561 0.585469 0.312656 -0.113848
C124  C     C_R   0.585040 0.894780 0.687410 -0.113530
C125  C     C_R   0.105304 0.585102 0.687270 -0.113475
C126  C     C_R   0.414725 0.105146 0.687351 -0.113917
C127  C     C_R   0.639941 0.000014 0.000011 0.544814
C128  C     C_R   0.894800 0.414758 0.687501 -0.113703
C129  C     C_R   0.136630 0.648393 0.781514 -0.008977
C130  C     C_R   0.648355 0.863552 0.781683 -0.008952
C131  C     C_R   0.863471 0.351522 0.781872 -0.008875
C132  C     C_R   0.351682 0.136668 0.781718 -0.009125
C133  C     C_R   0.135161 0.351173 0.218641 -0.009389
C134  C     C_R   0.648225 0.136790 0.218150 -0.008735
C135  C     C_R   0.863114 0.648564 0.218279 -0.008849
C136  C     C_R   0.351334 0.863689 0.218481 -0.009454
C137  C     C_R   0.636281 0.148690 0.281520 -0.009452
C138  C     C_R   0.499986 0.860059 0.499989 0.544797
C139  C     C_R   0.149163 0.365237 0.281406 -0.009388
C140  C     C_R   0.363234 0.851749 0.281852 -0.008732
C141  C     C_R   0.851352 0.636799 0.281711 -0.008837
C142  C     C_R   0.636446 0.851642 0.718321 -0.008951
C143  C     C_R   0.148480 0.636525 0.718128 -0.008875
C144  C     C_R   0.363366 0.148348 0.718270 -0.009125
C145  C     C_R   0.851603 0.363373 0.718486 -0.008975
C146  C     C_R   0.139676 0.999957 0.999982 0.545721
C147  C     C_R   0.000010 0.860325 0.000015 0.538747
C148  C     C_R   0.860325 0.000010 0.000015 0.538259
C149  C     C_R   0.860059 0.499986 0.499990 0.546185
C150  C     C_R   0.999981 0.139676 0.999980 0.547416
C151  C     C_R   0.639675 0.499990 0.499985 0.538751
C152  C     C_R   0.500046 0.360324 0.500019 0.545627
C153  C     C_R   0.360324 0.500017 0.500019 0.547420
C154  C     C_R   0.499989 0.639675 0.499985 0.538258
C155  C     C_R   0.050168 0.544893 0.717839 -0.008866
C156  C     C_R   0.544881 0.949929 0.717903 -0.008956
C157  C     C_R   0.949950 0.454970 0.717951 -0.008945
C158  C     C_R   0.454993 0.050098 0.717887 -0.008874
C159  C     C_R   0.049824 0.455528 0.282086 -0.008396
C160  C     C_R   0.500023 0.139941 0.500034 0.545194
C161  C     C_R   0.544941 0.050115 0.282058 -0.009108
C162  C     C_R   0.949607 0.545228 0.282119 -0.009036
C163  C     C_R   0.455053 0.949877 0.282149 -0.008516
C164  C     C_R   0.550114 0.044953 0.217852 -0.008506
C165  C     C_R   0.044572 0.450249 0.217931 -0.008418
C166  C     C_R   0.449891 0.955048 0.217943 -0.009135
C167  C     C_R   0.954731 0.550348 0.217878 -0.009013
C168  C     C_R   0.550069 0.955118 0.782099 -0.008954
C169  C     C_R   0.045030 0.550049 0.782048 -0.008944
C170  C     C_R   0.449912 0.045020 0.782109 -0.008878
C171  C     C_R   0.139938 0.500015 0.500033 0.546972
C172  C     C_R   0.955105 0.449832 0.782161 -0.008868
C173  C     C_R   0.000047 0.499937 0.685762 -0.012730
C174  C     C_R   0.499931 1.000000 0.685762 -0.012769
C175  C     C_R   0.999712 0.500297 0.314243 -0.012632
C176  C     C_R   0.500038 0.999960 0.314238 -0.012294
C177  C     C_R   0.500039 0.999960 0.185762 -0.012313
C178  C     C_R   0.999713 0.500277 0.185762 -0.012661
C179  C     C_R   0.500001 0.000072 0.814237 -0.012776
C180  C     C_R   0.000062 0.499952 0.814238 -0.012730
C181  C     C_1   0.999958 0.217205 0.999938 -0.071803
C182  C     C_1   0.999956 0.282535 0.999934 -0.073696
C183  C     C_1   0.217202 0.999901 0.999934 -0.083214
C184  C     C_1   0.000031 0.782799 0.000041 -0.082535
C185  C     C_1   0.782799 0.000032 0.000040 -0.082469
C186  C     C_1   0.499968 0.717201 0.499959 -0.082479
C187  C     C_1   0.717201 0.499969 0.499959 -0.082546
C188  C     C_1   0.500105 0.282798 0.500069 -0.083531
C189  C     C_1   0.282795 0.500039 0.500060 -0.071784
C190  C     C_R   0.821434 0.297045 0.818117 0.023367
C191  C     C_R   0.858322 0.245090 0.854192 -0.104138
C192  C     C_R   0.819153 0.194455 0.889228 -0.109952
Cu1   Cu    Cu3+1 0.927460 0.500000 0.000000 0.912092
Cu2   Cu    Cu3+1 0.000000 1.000000 0.061780 0.902899
Cu3   Cu    Cu3+1 0.500000 0.500000 0.438220 0.902680
Cu4   Cu    Cu3+1 0.500000 0.500000 0.561780 0.892483
Cu5   Cu    Cu3+1 0.500000 0.072540 0.000000 0.915770
Cu6   Cu    Cu3+1 0.072540 0.500000 0.000000 0.896615
Cu7   Cu    Cu3+1 0.500000 0.927460 0.000000 0.911516
Cu8   Cu    Cu3+1 0.427460 0.000000 0.500000 0.915916
Cu9   Cu    Cu3+1 0.000000 0.572540 0.500000 0.912103
Cu10  Cu    Cu3+1 0.572540 0.000000 0.500000 0.911535
Cu11  Cu    Cu3+1 0.000000 0.427460 0.500000 0.896691
Cu12  Cu    Cu3+1 0.000000 0.000000 0.938220 0.892478
H1    H     H_    0.077447 0.615451 0.860970 0.143130
H2    H     H_    0.117600 0.426615 0.360309 0.139857
H3    H     H_    0.422613 0.884494 0.361171 0.142582
H4    H     H_    0.884435 0.577763 0.361171 0.142760
H5    H     H_    0.577189 0.884492 0.638955 0.142878
H6    H     H_    0.115543 0.577287 0.638794 0.142704
H7    H     H_    0.422429 0.115296 0.638844 0.142683
H8    H     H_    0.884548 0.422554 0.639028 0.143129
H9    H     H_    0.917394 0.243573 0.854951 0.111157
H10   H     H_    0.847880 0.154589 0.916804 0.134834
H11   H     H_    0.712717 0.155953 0.915773 0.129864
H12   H     H_    0.615505 0.922810 0.861048 0.142881
H13   H     H_    0.646738 0.247828 0.853316 0.114223
H14   H     H_    0.715088 0.338409 0.792179 0.115214
H15   H     H_    0.244153 0.083253 0.855646 0.111653
H16   H     H_    0.156163 0.153194 0.918011 0.137284
H17   H     H_    0.158052 0.288350 0.916577 0.127617
H18   H     H_    0.249314 0.353886 0.853024 0.113598
H19   H     H_    0.338897 0.285109 0.791333 0.115303
H20   H     H_    0.082630 0.756340 0.854494 0.111546
H21   H     H_    0.152080 0.845459 0.916093 0.135455
H22   H     H_    0.287246 0.844236 0.914877 0.129770
H23   H     H_    0.922709 0.384458 0.861206 0.142703
H24   H     H_    0.353290 0.752365 0.852491 0.114350
H25   H     H_    0.285005 0.661655 0.791605 0.115203
H26   H     H_    0.756358 0.917601 0.854583 0.111567
H27   H     H_    0.845386 0.848191 0.916312 0.135923
H28   H     H_    0.844018 0.713027 0.915313 0.129750
H29   H     H_    0.752097 0.646941 0.853012 0.114356
H30   H     H_    0.661474 0.715184 0.792001 0.115233
H31   H     H_    0.917034 0.756432 0.145008 0.111469
H32   H     H_    0.847520 0.845382 0.083264 0.135463
H33   H     H_    0.712356 0.844046 0.084602 0.129933
H34   H     H_    0.384715 0.077601 0.861147 0.142695
H35   H     H_    0.646377 0.752229 0.147258 0.114352
H36   H     H_    0.714725 0.661683 0.208291 0.115196
H37   H     H_    0.243422 0.918147 0.145713 0.107388
H38   H     H_    0.153998 0.849059 0.084130 0.135485
H39   H     H_    0.154822 0.713892 0.085177 0.129458
H40   H     H_    0.246590 0.647465 0.147380 0.113575
H41   H     H_    0.337603 0.715376 0.208247 0.115443
H42   H     H_    0.201314 0.356507 0.106072 0.112348
H43   H     H_    0.255441 0.254337 0.048165 0.116108
H44   H     H_    0.256897 0.129860 0.092660 0.122699
H45   H     H_    0.073676 0.382512 0.139731 0.139911
H46   H     H_    0.202945 0.107367 0.195382 0.108605
H47   H     H_    0.146951 0.208304 0.253569 0.112946
H48   H     H_    0.756322 0.083080 0.145122 0.111402
H49   H     H_    0.845070 0.152759 0.083166 0.134668
H50   H     H_    0.843328 0.287924 0.084077 0.130673
H51   H     H_    0.751321 0.353724 0.146529 0.114276
H52   H     H_    0.660962 0.285200 0.207756 0.114848
H53   H     H_    0.416959 0.743662 0.354884 0.111405
H54   H     H_    0.347292 0.654902 0.416838 0.134704
H55   H     H_    0.212127 0.656620 0.415921 0.130667
H56   H     H_    0.615496 0.077400 0.138832 0.142594
H57   H     H_    0.146315 0.748617 0.353467 0.114289
H58   H     H_    0.214826 0.838989 0.292242 0.114863
H59   H     H_    0.743495 0.582864 0.354985 0.111481
H60   H     H_    0.654542 0.652367 0.416733 0.135541
H61   H     H_    0.655860 0.787531 0.415394 0.129915
H62   H     H_    0.747663 0.853522 0.352734 0.114365
H63   H     H_    0.838213 0.785186 0.291697 0.115207
H64   H     H_    0.581797 0.256600 0.354276 0.107347
H65   H     H_    0.650864 0.346040 0.415858 0.135542
H66   H     H_    0.786031 0.345237 0.414824 0.129445
H67   H     H_    0.922179 0.615515 0.138827 0.142805
H68   H     H_    0.852479 0.253474 0.352632 0.113604
H69   H     H_    0.784589 0.162447 0.291764 0.115452
H70   H     H_    0.292085 0.354161 0.246505 0.112917
H71   H     H_    0.393321 0.298830 0.304771 0.108543
H72   H     H_    0.371089 0.244853 0.407525 0.122519
H73   H     H_    0.246585 0.245599 0.451966 0.116155
H74   H     H_    0.144128 0.299060 0.393979 0.112406
H75   H     H_    0.416805 0.255845 0.644319 0.111663
H76   H     H_    0.346886 0.343836 0.581936 0.137277
H77   H     H_    0.211729 0.341989 0.583379 0.127580
H78   H     H_    0.384408 0.922808 0.139021 0.142666
H79   H     H_    0.146173 0.250766 0.646957 0.113615
H80   H     H_    0.214927 0.161179 0.708662 0.115304
H81   H     H_    0.743659 0.417376 0.645503 0.111546
H82   H     H_    0.654537 0.347929 0.583904 0.135475
H83   H     H_    0.655756 0.212763 0.585122 0.129780
H84   H     H_    0.747623 0.146716 0.647509 0.114353
H85   H     H_    0.838336 0.214998 0.708396 0.115206
H86   H     H_    0.582404 0.743637 0.645420 0.111568
H87   H     H_    0.651819 0.654617 0.583689 0.135917
H88   H     H_    0.786984 0.655995 0.584688 0.129753
H89   H     H_    0.577169 0.115604 0.360980 0.142674
H90   H     H_    0.853063 0.747918 0.646992 0.114355
H91   H     H_    0.784814 0.838532 0.708006 0.115235
H92   H     H_    0.256424 0.582602 0.645045 0.111159
H93   H     H_    0.345404 0.652116 0.583188 0.134835
H94   H     H_    0.344043 0.787279 0.584220 0.129864
H95   H     H_    0.252175 0.853258 0.646683 0.114226
H96   H     H_    0.161597 0.784909 0.707822 0.115217
O1    O     O_R   0.938740 0.394190 0.000020 -0.509177
O2    O     O_R   0.894190 0.561260 0.500020 -0.509241
O3    O     O_R   0.561260 0.105810 0.500020 -0.509779
O4    O     O_R   0.105810 0.438740 0.500020 -0.515117
O5    O     O_R   0.438740 0.105810 0.499980 -0.507155
O6    O     O_R   0.894190 0.438740 0.499980 -0.509074
O7    O     O_R   0.561260 0.894190 0.499980 -0.509781
O8    O     O_R   0.105810 0.561260 0.499980 -0.509169
O9    O     O_R   0.938740 0.500000 0.909860 -0.513039
O10   O     O_R   0.500000 0.061260 0.909860 -0.514174
O11   O     O_R   0.061260 0.500000 0.909860 -0.513183
O12   O     O_R   0.394190 0.061260 0.000020 -0.507278
O13   O     O_R   0.500000 0.938740 0.909860 -0.513604
O14   O     O_R   0.938740 0.500000 0.090140 -0.512455
O15   O     O_R   0.500000 0.938740 0.090140 -0.513947
O16   O     O_R   0.061260 0.500000 0.090140 -0.516752
O17   O     O_R   0.500000 0.061260 0.090140 -0.510924
O18   O     O_R   0.438740 0.000000 0.409860 -0.510884
O19   O     O_R   0.000000 0.561260 0.409860 -0.512456
O20   O     O_R   0.561260 0.000000 0.409860 -0.513962
O21   O     O_R   0.000000 0.438740 0.409860 -0.516699
O22   O     O_R   0.438740 0.000000 0.590140 -0.514186
O23   O     O_R   0.061260 0.605810 0.000020 -0.509071
O24   O     O_R   1.000000 0.438740 0.590140 -0.513177
O25   O     O_R   0.561260 0.000000 0.590140 -0.513614
O26   O     O_R   0.000000 0.561260 0.590140 -0.513041
O27   O     O_R   0.105780 0.999970 0.947820 -0.512618
O28   O     O_R   0.999970 0.894220 0.947820 -0.512345
O29   O     O_R   0.894220 0.000030 0.947820 -0.512531
O30   O     O_R   0.000030 0.105780 0.947820 -0.515222
O31   O     O_R   0.105780 0.000030 0.052180 -0.506988
O32   O     O_R   0.999970 0.105780 0.052180 -0.498272
O33   O     O_R   0.894220 0.999970 0.052180 -0.513339
O34   O     O_R   0.605810 0.938740 0.000020 -0.509782
O35   O     O_R   0.000030 0.894220 0.052180 -0.513715
O36   O     O_R   0.605780 0.499970 0.447820 -0.513742
O37   O     O_R   0.499970 0.394220 0.447820 -0.507131
O38   O     O_R   0.394220 0.500030 0.447820 -0.498242
O39   O     O_R   0.500030 0.605780 0.447820 -0.513360
O40   O     O_R   0.605780 0.500030 0.552180 -0.512327
O41   O     O_R   0.499970 0.605780 0.552180 -0.512513
O42   O     O_R   0.394220 0.499970 0.552180 -0.515220
O43   O     O_R   0.500030 0.394220 0.552180 -0.512561
O44   O     O_R   0.938740 0.605810 0.999980 -0.509240
O45   O     O_R   0.394190 0.938740 0.999980 -0.509765
O46   O     O_R   0.061260 0.394190 0.999980 -0.515099
O47   O     O_R   0.605810 0.061260 0.999980 -0.510023
O48   O     O_R   0.438740 0.894190 0.500020 -0.510037

loop_
_geom_bond_atom_site_label_1
_geom_bond_atom_site_label_2
_ccdc_geom_bond_type
C132  C144  A    
C19   C20   A    
C136  C140  A    
C1    O1    A    
C16   H22   S    
C146  C183  S    
C153  O42   A    
C148  O29   A    
C62   H61   S    
Cu8   O22   S    
C17   H24   S    
Cu12  O30   S    
C128  C145  A    
C124  H5    S    
C3    H11   S    
Cu3   O38   S    
C73   C74   A    
C29   H33   S    
Cu5   Cu7   S    
Cu11  O6    S    
C50   H51   S    
C158  C174  A    
C72   C139  S    
C106  O15   A    
C24   C127  S    
C154  O39   A    
C115  C165  A    
C106  C177  S    
C65   C137  S    
C59   C60   A    
C37   H40   S    
C97   H91   S    
C21   C22   A    
Cu2   O35   S    
C60   H59   S    
C121  H2    S    
C51   H52   S    
C150  C181  S    
C45   C47   A    
C191  C192  A    
C6    C132  S    
C99   H92   S    
Cu12  O28   S    
C11   H19   S    
C6    C11   A    
C72   C73   A    
C38   H41   S    
Cu12  O27   S    
C24   C185  T    
C151  C187  S    
C75   C76   A    
C37   C38   A    
C90   O13   A    
C155  C169  A    
C13   C184  T    
C123  C141  A    
C166  C177  A    
C52   C58   A    
Cu11  O21   S    
C133  C139  A    
C54   H54   S    
C151  O40   A    
C91   H85   S    
C36   H39   S    
Cu7   O15   S    
C4    C5    A    
C64   H63   S    
C118  C135  A    
C6    C7    A    
C89   H84   S    
C119  C136  A    
Cu2   O32   S    
C56   H57   S    
C105  O12   A    
C68   C189  T    
C71   H69   S    
C2    C183  T    
C110  O24   A    
C69   C70   A    
C160  O3    A    
C10   H18   S    
Cu3   Cu4   S    
C167  C178  A    
C20   C21   A    
Cu8   Cu10  S    
C98   C99   A    
C146  O27   A    
Cu2   O33   S    
C22   C23   A    
C100  H93   S    
C128  H8    S    
C90   O10   A    
C31   H36   S    
C190  C191  A    
C33   H37   S    
Cu9   O26   S    
C7    C8    A    
C153  C189  S    
C85   C86   A    
C154  C186  S    
C42   H44   S    
C1    O46   A    
C93   H86   S    
C15   H21   S    
C36   C37   A    
C85   C145  S    
C126  H7    S    
C68   C171  S    
C78   C80   A    
C113  H23   S    
C107  C176  S    
C156  C168  A    
C108  C175  S    
C118  C167  A    
C128  C157  A    
Cu1   O14   S    
C101  C178  S    
C69   H66   S    
Cu5   O47   S    
C47   C48   A    
C80   H75   S    
Cu3   O39   S    
C146  O31   A    
C89   C91   A    
C9    C10   A    
C150  O32   A    
C114  H34   S    
C66   C67   A    
Cu9   Cu11  S    
C94   C95   A    
C148  O33   A    
Cu7   O13   S    
Cu8   O18   S    
C92   C97   A    
C113  C172  A    
Cu8   O48   S    
C171  O8    A    
C39   C40   A    
C161  C176  A    
C158  C170  A    
C162  C175  A    
C159  C165  A    
C77   H74   S    
C29   C30   A    
C78   C144  S    
C44   H47   S    
C83   C84   A    
C73   H70   S    
C104  H96   S    
Cu2   Cu12  S    
C17   C18   A    
C138  O48   A    
C88   C89   A    
Cu4   O41   S    
C28   H32   S    
C25   H30   S    
C149  O2    A    
C110  O26   A    
C3    C4    A    
C52   C53   A    
Cu9   O2    S    
C54   C55   A    
C169  C180  A    
C108  O21   A    
Cu9   O8    S    
C122  H3    S    
Cu10  O7    S    
C79   O9    A    
C102  H94   S    
C152  O37   A    
C39   C44   A    
C115  H45   S    
C170  C179  A    
C116  O44   A    
C121  C139  A    
C48   H49   S    
C122  C140  A    
C109  O22   A    
C3    C192  A    
C147  O35   A    
C49   H50   S    
C125  C143  A    
C35   C186  T    
C126  C144  A    
C56   C58   A    
C123  H4    S    
Cu3   O37   S    
C34   C36   A    
C112  H12   S    
C61   C62   A    
C130  C142  A    
C10   C11   A    
C150  O30   A    
C101  O14   A    
C23   H29   S    
C135  C141  A    
C46   C149  S    
C59   C141  S    
C49   C50   A    
Cu5   O17   S    
C14   C15   A    
C112  C130  A    
C116  O23   A    
C147  C184  S    
C87   C88   A    
C108  O19   A    
C41   C42   A    
C152  C188  S    
C134  C137  A    
C181  C182  T    
C103  H95   S    
C156  C174  A    
C26   C27   A    
C76   H73   S    
C154  O41   A    
C28   C29   A    
C30   C31   A    
C98   C143  S    
C160  O5    A    
Cu1   Cu6   S    
C74   H71   S    
Cu4   O43   S    
C111  C129  A    
C16   C17   A    
Cu10  O25   S    
C70   C71   A    
C46   C187  T    
C111  H1    S    
C109  O25   A    
Cu11  O24   S    
C172  C180  A    
C19   C130  S    
Cu11  O4    S    
Cu10  O3    S    
C58   H58   S    
C117  C134  A    
C94   H87   S    
C117  C164  A    
C53   H53   S    
C12   C129  S    
Cu5   O12   S    
Cu6   O11   S    
C163  C166  A    
C20   H26   S    
C88   H83   S    
C32   C136  S    
C117  H56   S    
C109  C174  S    
C115  C133  A    
C148  C185  S    
C53   C54   A    
C60   C61   A    
C111  C169  A    
C62   C63   A    
C151  O36   A    
C101  O16   A    
C5    H14   S    
C50   C51   A    
C59   C64   A    
Cu1   O9    S    
C147  O28   A    
Cu6   O46   S    
C107  O18   A    
C149  O6    A    
C57   C160  S    
C86   H81   S    
C42   C43   A    
Cu4   O40   S    
C161  C164  A    
C66   H64   S    
C39   C133  S    
C131  C190  S    
C86   C87   A    
C79   O11   A    
Cu6   O23   S    
C18   H25   S    
C120  H89   S    
C40   H42   S    
C1    C182  S    
C129  C143  A    
C168  C179  A    
Cu5   O10   S    
Cu7   O45   S    
C32   C33   A    
C127  O47   A    
C157  C172  A    
C191  H9    S    
C92   C93   A    
C52   C140  S    
C153  O38   A    
C63   H62   S    
C96   H90   S    
C13   C116  S    
C83   H79   S    
C67   H65   S    
C9    H17   S    
Cu1   O44   S    
C82   C83   A    
C103  C104  A    
C79   C180  S    
C120  C137  A    
Cu3   O36   S    
C157  C173  A    
C112  C168  A    
C93   C94   A    
C75   H72   S    
C34   H38   S    
C81   H76   S    
C95   C96   A    
C87   H82   S    
C30   H35   S    
C43   C44   A    
C81   C82   A    
C85   C91   A    
C84   H80   S    
C45   C134  S    
Cu9   O19   S    
Cu10  O20   S    
Cu2   O31   S    
C14   H20   S    
C5    C190  A    
C152  O43   A    
C35   C138  S    
C45   C51   A    
C15   C16   A    
C21   H27   S    
C57   C188  T    
C26   C135  S    
C106  O17   A    
Cu1   O1    S    
Cu7   O34   S    
C8    C9    A    
C131  C145  A    
C32   C38   A    
Cu4   O42   S    
C55   H55   S    
C27   H31   S    
C7    H15   S    
C155  C173  A    
C26   C31   A    
C107  O20   A    
C159  C175  A    
C41   H43   S    
C165  C178  A    
C124  C142  A    
C102  C103  A    
Cu8   O5    S    
C163  C176  A    
C192  H10   S    
C119  H78   S    
C126  C158  A    
C74   C75   A    
C76   C77   A    
Cu12  O29   S    
C123  C162  A    
C65   C71   A    
C122  C163  A    
C63   C64   A    
C67   C69   A    
C72   C77   A    
C8    H16   S    
C171  O4    A    
C70   H68   S    
C99   C100  A    
C96   C97   A    
C55   C56   A    
C100  C102  A    
C33   C34   A    
C95   H88   S    
C119  C166  A    
C47   H48   S    
C120  C161  A    
C138  O7    A    
C40   C41   A    
C12   C14   A    
C65   C66   A    
C124  C156  A    
C92   C142  S    
C118  H67   S    
C110  C173  S    
C114  C170  A    
C90   C179  S    
C48   C49   A    
C113  C131  A    
C114  C132  A    
C61   H60   S    
C80   C81   A    
C125  H6    S    
C2    C105  S    
Cu6   O16   S    
C43   H46   S    
C98   C104  A    
C127  O34   A    
C105  O45   A    
C23   C25   A    
C19   C25   A    
C162  C167  A    
C78   C84   A    
C22   H28   S    
C4    H13   S    
C121  C159  A    
C12   C18   A    
C27   C28   A    
C82   H77   S    
C164  C177  A    
C125  C155  A    
