data_mof_unit_17655.cif
_audit_creation_date              2013-03-05T15:47:36-0500
_audit_creation_method            fapswitch 2.2
_symmetry_space_group_name_H-M    P1
_symmetry_Int_Tables_number       1
_space_group_crystal_system       triclinic
_cell_length_a                    10.864238
_cell_length_b                    12.962198
_cell_length_c                    11.760323
_cell_angle_alpha                 101.181276
_cell_angle_beta                  95.734795
_cell_angle_gamma                 94.192988
_cell_volume                      1609.29921963

loop_
_atom_site_label
_atom_site_type_symbol
_atom_site_description
_atom_site_fract_x
_atom_site_fract_y
_atom_site_fract_z
_atom_type_partial_charge
O1    O     O_R   0.506570 0.354460 0.582000 -0.552142
O2    O     O_R   0.490940 0.341410 0.386200 -0.525075
C1    C     C_R   0.503270 0.298860 0.477563 0.859106
O3    O     O_R   0.327470 0.506530 0.597920 -0.567085
O4    O     O_R   0.311840 0.493480 0.402120 -0.502521
C2    C     C_R   0.263255 0.509985 0.498851 0.853631
Cu1   Cu    Cu3+1 0.509250 0.507730 0.615930 1.044564
Cu2   Cu    Cu3+1 0.490750 0.492270 0.384070 1.137213
O5    O     O_R   0.509060 0.658590 0.613800 -0.588154
O6    O     O_R   0.493430 0.645540 0.418000 -0.518273
O7    O     O_R   0.688160 0.506520 0.597880 -0.586112
O8    O     O_R   0.672530 0.493470 0.402080 -0.520178
C3    C     C_R   0.501666 0.701117 0.523094 0.876845
C4    C     C_R   0.738155 0.492946 0.501419 0.844045
C5    C     C_R   0.152092 0.623309 0.695650 -0.218570
H1    H     H_    0.239917 0.663075 0.684456 0.206001
C6    C     C_R   0.117372 0.634029 0.807413 0.239069
C7    C     C_R   0.004356 0.580831 0.823621 0.337111
C8    C     C_R   0.927567 0.517622 0.725690 0.264971
C9    C     C_R   0.957212 0.520905 0.610394 -0.124990
C10   C     C_R   0.079449 0.557632 0.599762 -0.032248
C11   C     C_R   0.129429 0.524615 0.494572 -0.153473
C12   C     C_R   0.049350 0.487094 0.390172 0.199148
C13   C     C_R   0.922954 0.462054 0.396428 0.258823
C14   C     C_R   0.874200 0.485206 0.504989 -0.167526
C15   C     C_R   0.507710 0.815849 0.539748 -0.288073
C16   C     C_R   0.503614 0.184221 0.465183 -0.139686
C17   C     C_R   0.413401 0.010848 0.366636 -0.194804
C18   C     C_R   0.456098 0.113826 0.361316 0.371206
C19   C     C_R   0.550112 0.143055 0.560492 -0.163598
C20   C     C_R   0.537896 0.034048 0.554528 -0.065004
C21   C     C_R   0.456132 0.969022 0.462990 -0.071841
C22   C     C_R   0.432197 0.861475 0.462886 0.271423
C23   C     C_R   0.600555 0.878898 0.621578 0.297028
C24   C     C_R   0.611263 0.989099 0.633557 0.352353
H2    H     H_    0.366441 0.960543 0.287810 0.210900
H3    H     H_    0.600108 0.195500 0.636820 0.216700
N1    N     N_R   0.523180 0.519350 0.790130 -0.238128
N2    N     N_R   0.476820 0.480650 0.209890 -0.276238
C25   C     C_R   0.391616 0.384995 0.016012 0.267033
C26   C     C_R   0.396945 0.400735 0.141614 0.544427
C27   C     C_R   0.545092 0.550998 0.160007 0.492896
C28   C     C_R   0.538629 0.539923 0.036319 -0.100279
C29   C     C_R   0.458380 0.459067 0.963573 -0.187421
C30   C     C_R   0.443558 0.456432 0.839777 0.529854
C31   C     C_R   0.602287 0.596418 0.861286 0.088000
C32   C     C_R   0.608899 0.609716 0.983494 -0.137064
H4    H     H_    0.658033 0.650022 0.822878 0.139393
H5    H     H_    0.669967 0.674568 0.036123 0.168183
N3    N     N_R   0.094086 0.482228 0.278119 0.174499
O9    O     O_R   0.059886 0.402243 0.192620 -0.300854
O10   O     O_R   0.154545 0.565245 0.256351 -0.250570
O11   O     O_3   0.716198 0.047724 0.696821 -0.552799
C33   C     C_3   0.696822 0.077522 0.814721 0.036106
H6    H     H_    0.687272 0.007197 0.855590 0.182948
H7    H     H_    0.612841 0.121045 0.823643 0.118016
C34   C     C_3   0.808783 0.150875 0.878624 -0.641935
H8    H     H_    0.824450 0.218215 0.834489 0.308092
H9    H     H_    0.793292 0.183001 0.969878 0.211841
H10   H     H_    0.893034 0.107226 0.878915 0.234987
O12   O     O_3   0.478529 0.136547 0.254901 -0.585264
C35   C     C_3   0.589842 0.091913 0.226499 0.136429
H11   H     H_    0.581688 0.004855 0.221653 0.164460
H12   H     H_    0.669613 0.128731 0.292416 0.191746
C36   C     C_3   0.619575 0.109099 0.108364 -0.794015
H13   H     H_    0.545275 0.067128 0.039910 0.231008
H14   H     H_    0.629624 0.194901 0.108260 0.272696
H15   H     H_    0.708399 0.075710 0.089927 0.209039
N4    N     N_R   0.330728 0.403978 0.772346 0.163270
O13   O     O_R   0.224643 0.430014 0.805509 -0.301388
O14   O     O_R   0.331487 0.318098 0.694470 -0.371337
O15   O     O_3   0.321906 0.298580 0.944740 -0.547924
C37   C     C_3   0.402216 0.222005 0.903985 0.035918
H16   H     H_    0.463413 0.204284 0.976984 0.111027
H17   H     H_    0.462768 0.249330 0.842982 0.174492
C38   C     C_3   0.325391 0.120388 0.840970 -0.686928
H18   H     H_    0.263995 0.135385 0.765789 0.289799
H19   H     H_    0.387686 0.059922 0.808267 0.185544
H20   H     H_    0.267228 0.089368 0.901577 0.229437
O16   O     O_3   0.317343 0.347652 0.202643 -0.524364
C39   C     C_3   0.258649 0.248251 0.144266 0.176644
H21   H     H_    0.185984 0.256723 0.074166 0.222382
H22   H     H_    0.327806 0.195435 0.110141 0.176837
C40   C     C_3   0.192693 0.196274 0.230325 -0.710810
H23   H     H_    0.171232 0.110344 0.194332 0.198306
H24   H     H_    0.251534 0.207736 0.315132 0.252427
H25   H     H_    0.104255 0.230901 0.246702 0.261467
N5    N     N_R   0.614517 0.642624 0.232693 0.128684
O17   O     O_R   0.725155 0.636363 0.282414 -0.385873
O18   O     O_R   0.578442 0.735590 0.229227 -0.359507
N6    N     N_R   0.204779 0.687908 0.904771 0.131024
O19   O     O_R   0.282718 0.765197 0.892881 -0.377998
O20   O     O_R   0.217222 0.652162 0.000944 -0.245947
O21   O     O_3   0.974806 0.582554 0.935654 -0.467124
C41   C     C_3   0.937917 0.683170 0.982083 0.048832
H26   H     H_    0.845073 0.692173 0.939495 0.101583
H27   H     H_    0.002428 0.749892 0.970027 0.148293
C42   C     C_3   0.932556 0.693534 0.112264 -0.530285
H28   H     H_    0.027824 0.698512 0.158030 0.294152
H29   H     H_    0.888998 0.766171 0.147197 0.176107
H30   H     H_    0.877156 0.623785 0.128439 0.299144
N7    N     N_R   0.839407 0.435120 0.743990 0.165430
O22   O     O_R   0.792775 0.441388 0.842484 -0.334381
O23   O     O_R   0.819026 0.346290 0.668150 -0.368166
N8    N     N_R   0.845255 0.405807 0.293747 0.164611
O24   O     O_R   0.786668 0.314943 0.294836 -0.397171
O25   O     O_R   0.826124 0.447607 0.202276 -0.293509
N9    N     N_R   0.329235 0.799199 0.388640 0.138541
O26   O     O_R   0.333367 0.771062 0.276851 -0.267545
O27   O     O_R   0.238078 0.759437 0.435333 -0.379172
O28   O     O_3   0.686428 0.833042 0.685894 -0.577661
C43   C     C_3   0.788385 0.812389 0.621660 0.141487
H31   H     H_    0.815066 0.876988 0.575729 0.177618
H32   H     H_    0.766176 0.737275 0.556095 0.142112
C44   C     C_3   0.900262 0.801108 0.704856 -0.794933
H33   H     H_    0.877073 0.737078 0.751370 0.204901
H34   H     H_    0.980138 0.781584 0.655343 0.225456
H35   H     H_    0.926194 0.876127 0.769622 0.258626

loop_
_geom_bond_atom_site_label_1
_geom_bond_atom_site_label_2
_geom_bond_distance
_ccdc_geom_bond_type
C13   C14   1.417892 A    
C16   C18   1.401435 A    
C37   H16   1.102976 S    
N5    O18   1.300886 A    
C41   H26   1.104905 S    
C6    N6    1.440846 S    
C40   H25   1.108246 S    
C26   O16   1.401798 S    
C43   H32   1.112676 S    
C39   H21   1.110250 S    
C41   C42   1.518053 S    
Cu1   Cu2   2.681115 S    
C32   H5    1.079121 S    
O11   C33   1.406593 S    
Cu1   O7    1.977114 S    
N8    O25   1.300681 A    
C17   C18   1.395881 A    
C40   H24   1.107552 S    
C7    C8    1.426800 A    
C19   C20   1.396891 A    
O7    C4    1.293276 A    
C34   H9    1.107458 S    
C24   O11   1.383919 S    
C9    C14   1.434282 A    
C5    H1    1.083025 S    
C2    C11   1.477093 S    
N9    O26   1.300628 A    
C5    C6    1.387467 A    
C23   C24   1.402926 A    
N4    O14   1.298262 A    
O5    C3    1.290599 A    
N1    C30   1.391674 A    
C35   H12   1.114254 S    
C33   H6    1.113011 S    
C15   C23   1.411348 A    
O28   C43   1.414718 S    
C36   H14   1.109810 S    
N3    O10   1.300782 A    
C12   C13   1.400253 A    
C38   H20   1.110395 S    
Cu2   N2    2.014111 S    
O12   C35   1.420164 S    
N5    O17   1.298267 A    
C44   H35   1.111261 S    
C18   O12   1.380471 S    
C10   C11   1.404006 A    
C16   C19   1.398022 A    
C23   O28   1.382116 S    
C37   H17   1.109823 S    
N7    O22   1.300685 A    
C22   N9    1.436910 S    
O3    Cu1   1.963664 S    
C43   H31   1.117223 S    
C39   H22   1.105978 S    
N3    O9    1.299490 A    
N2    C27   1.386114 A    
C31   H4    1.080952 S    
C33   H7    1.110486 S    
C30   N4    1.438234 S    
C17   C21   1.401223 A    
C38   H18   1.110052 S    
O3    C2    1.307093 A    
N6    O19   1.301596 A    
O15   C37   1.414892 S    
C34   H10   1.110769 S    
C44   H34   1.110011 S    
C19   H3    1.083894 S    
O1    C1    1.293570 A    
C28   C29   1.400016 A    
C35   H11   1.115329 S    
N6    O20   1.301548 A    
C15   C22   1.403553 A    
C20   C21   1.416302 A    
C5    C10   1.403859 A    
Cu2   O8    1.963663 S    
C36   H15   1.109973 S    
C6    C7    1.411861 A    
O21   C41   1.415521 S    
C40   H23   1.110690 S    
N7    O23   1.302027 A    
C17   H2    1.080389 S    
C25   C26   1.446084 A    
O8    C4    1.307869 A    
C36   H13   1.109830 S    
C42   H29   1.110506 S    
C7    O21   1.383343 S    
C37   C38   1.522443 S    
C20   C24   1.403028 A    
C3    C15   1.457594 S    
C27   N5    1.434078 S    
C27   C28   1.427781 A    
C39   C40   1.526588 S    
C29   C30   1.442131 A    
Cu1   O5    1.960637 S    
C31   C32   1.407802 A    
C25   O15   1.384106 S    
C35   C36   1.511072 S    
O1    Cu1   1.946506 S    
O2    Cu2   1.960636 S    
C38   H19   1.110376 S    
O16   C39   1.409748 S    
C12   N3    1.441174 S    
O6    C3    1.295254 A    
O4    Cu2   1.977114 S    
C41   H27   1.112695 S    
C42   H30   1.107175 S    
N8    O24   1.300141 A    
C21   C22   1.399017 A    
C8    C9    1.432374 A    
C1    C16   1.465037 S    
O2    C1    1.299412 A    
C34   H8    1.109922 S    
O4    C2    1.288647 A    
C8    N7    1.444991 S    
Cu1   N1    2.014345 S    
N9    O27   1.300680 A    
C4    C14   1.485701 S    
N4    O13   1.299999 A    
N1    C31   1.357703 A    
C25   C29   1.430210 A    
C9    C10   1.403458 A    
N2    C26   1.370232 A    
Cu2   O6    1.946506 S    
C42   H28   1.109295 S    
C11   C12   1.412069 A    
C13   N8    1.437766 S    
C28   C32   1.413854 A    
C43   C44   1.516520 S    
C44   H33   1.106611 S    
C33   C34   1.522969 S    
