data_mof_unit_14102.cif
_audit_creation_date              2012-12-10T17:11:03-0500
_audit_creation_method            fapswitch 2.2
_symmetry_space_group_name_H-M    P1
_symmetry_Int_Tables_number       1
_space_group_crystal_system       triclinic
_cell_length_a                    11.665338
_cell_length_b                    13.00364
_cell_length_c                    13.437855
_cell_angle_alpha                 91.991316
_cell_angle_beta                  76.504008
_cell_angle_gamma                 99.809901
_cell_volume                      1953.11648048

loop_
_atom_site_label
_atom_site_type_symbol
_atom_type_description
_atom_site_fract_x
_atom_site_fract_y
_atom_site_fract_z
_atom_type_partial_charge
C1    C     C_R   0.520803 0.700862 0.501641 0.803588
C2    C     C_R   0.447385 0.503723 0.976209 0.080409
C3    C     C_R   0.476054 0.535156 0.872200 0.045303
C4    C     C_R   0.535549 0.529792 0.034552 0.000017
C5    C     C_R   0.646101 0.594688 0.991353 0.120761
C6    C     C_R   0.666586 0.636358 0.892729 0.373048
C7    C     C_R   0.581122 0.607124 0.834685 -0.306251
C8    C     C_R   0.517186 0.492998 0.134982 -0.213347
C9    C     C_R   0.710919 0.584810 0.149657 -0.232467
C10   C     C_R   0.397339 0.495329 0.808575 -0.080079
C11   C     C_R   0.467094 0.185725 0.497779 -0.053969
C12   C     C_R   0.436581 0.499410 0.696144 0.788121
C13   C     C_R   0.532700 0.814242 0.502901 -0.051064
C14   C     C_R   0.651539 0.984553 0.512408 -0.210430
C15   C     C_R   0.640773 0.876469 0.511513 -0.197833
C16   C     C_R   0.435253 0.860791 0.495463 -0.261134
C17   C     C_R   0.445328 0.968799 0.496296 0.174796
C18   C     C_R   0.554349 0.031157 0.504758 0.174910
C19   C     C_R   0.564481 0.139175 0.505413 -0.263336
C20   C     C_R   0.358931 0.123474 0.489437 -0.195801
C21   C     C_R   0.348114 0.015391 0.488707 -0.210792
C22   C     C_R   0.947813 0.601991 0.590129 -0.326854
C23   C     C_R   0.479127 0.299129 0.498580 0.812295
C24   C     C_R   0.828645 0.591943 0.581599 0.105896
C25   C     C_R   0.855970 0.454984 0.461990 0.020105
C26   C     C_R   0.976850 0.462761 0.467404 0.070460
C27   C     C_R   0.023095 0.537077 0.532719 0.060782
C28   C     C_R   0.143817 0.544589 0.538453 0.025743
C29   C     C_R   0.171951 0.409108 0.417097 0.086968
C30   C     C_R   0.052480 0.398560 0.409197 -0.341911
C31   C     C_R   0.563822 0.505975 0.304150 0.801494
C32   C     C_R   0.733594 0.619451 0.049006 -0.135507
C33   C     C_R   0.601125 0.524020 0.193656 -0.044889
C34   C     C_R   0.283584 0.440015 0.852407 -0.183611
C35   C     C_R   0.250079 0.418935 0.956575 -0.149513
C36   C     C_R   0.331141 0.448194 0.017768 -0.158922
Cu1   Cu    Cu3+1 0.386470 0.492430 0.492410 0.938249
Cu2   Cu    Cu3+1 0.613530 0.507570 0.507590 0.938799
H1    H     H_    0.776693 0.609785 0.194444 0.158995
H2    H     H_    0.282733 0.158181 0.483414 0.156121
H3    H     H_    0.735563 0.031548 0.519012 0.136089
H4    H     H_    0.264063 0.968388 0.482187 0.136020
H5    H     H_    0.716961 0.841746 0.517540 0.154416
H6    H     H_    0.351453 0.813222 0.488908 0.152567
H7    H     H_    0.180295 0.601015 0.588871 0.120452
H8    H     H_    0.229649 0.359273 0.372084 0.118209
H9    H     H_    0.980838 0.660419 0.640675 0.152073
H10   H     H_    0.019662 0.340716 0.358052 0.135172
H11   H     H_    0.771811 0.643285 0.624592 0.108238
H12   H     H_    0.819361 0.398290 0.411866 0.119199
H13   H     H_    0.818541 0.668372 0.017649 0.188779
H14   H     H_    0.436988 0.441232 0.170939 0.136571
H15   H     H_    0.221391 0.410205 0.805542 0.156725
H16   H     H_    0.298644 0.428032 0.097604 0.122146
H17   H     H_    0.161789 0.376529 0.989708 0.140898
H18   H     H_    0.596168 0.643707 0.760780 0.147269
H19   H     H_    0.648311 0.186752 0.511876 0.152761
N1    N     N_R   0.215880 0.481050 0.481000 -0.178966
N2    N     N_R   0.784100 0.518950 0.519000 -0.181207
O1    O     O_R   0.419710 0.645650 0.494620 -0.587601
O2    O     O_R   0.611450 0.658430 0.507430 -0.599734
O3    O     O_R   0.357340 0.490460 0.641450 -0.583946
O4    O     O_R   0.549080 0.503250 0.654260 -0.575844
O5    O     O_R   0.388550 0.341570 0.492570 -0.593227
O6    O     O_R   0.580290 0.354350 0.505380 -0.586263
O7    O     O_R   0.450920 0.496750 0.345740 -0.584529
O8    O     O_R   0.642660 0.509540 0.358550 -0.584851
O9    O     O_3   0.770316 0.705881 0.854712 -0.753160
H20   H     H_    0.768922 0.730765 0.786201 0.312599

loop_
_geom_bond_atom_site_label_1
_geom_bond_atom_site_label_2
_ccdc_geom_bond_type
Cu1   O3    S    
C31   O7    A    
C2    C4    A    
C31   C33   S    
C32   H13   S    
C26   C30   A    
C29   C30   A    
C25   H12   S    
C2    C36   A    
C28   N1    A    
C12   O3    A    
C14   C18   A    
Cu1   N1    S    
C35   C36   A    
Cu2   O6    S    
C29   H8    S    
C4    C8    A    
Cu2   O2    S    
Cu1   O7    S    
C23   O6    A    
C6    O9    S    
C17   C18   A    
C25   C26   A    
C15   H5    S    
C28   H7    S    
C10   C34   A    
C3    C10   A    
C19   H19   S    
C31   O8    A    
C11   C19   A    
C26   C27   A    
C6    C7    A    
C10   C12   S    
C7    H18   S    
C9    C33   A    
C14   H3    S    
C24   H11   S    
C30   H10   S    
C23   O5    A    
Cu1   Cu2   S    
Cu2   O4    S    
C3    C7    A    
C22   C27   A    
C24   N2    A    
C13   C15   A    
C5    C6    A    
C20   H2    S    
C22   C24   A    
C11   C20   A    
C13   C16   A    
Cu1   O1    S    
C36   H16   S    
C35   H17   S    
Cu2   N2    S    
Cu2   O8    S    
C5    C32   A    
C9    H1    S    
Cu1   O5    S    
C1    C13   S    
C29   N1    A    
C34   H15   S    
C34   C35   A    
C1    O1    A    
C11   C23   S    
C27   C28   A    
C12   O4    A    
C8    H14   S    
C14   C15   A    
C18   C19   A    
C2    C3    A    
C8    C33   A    
C25   N2    A    
C9    C32   A    
C20   C21   A    
O9    H20   S    
C16   H6    S    
C22   H9    S    
C17   C21   A    
C21   H4    S    
C16   C17   A    
C4    C5    A    
C1    O2    A    
