data_mof_unit_8673.cif
_audit_creation_date              2012-12-11T20:57:35-0500
_audit_creation_method            fapswitch 2.2
_symmetry_space_group_name_H-M    P1
_symmetry_Int_Tables_number       1
_space_group_crystal_system       triclinic
_cell_length_a                    8.214224
_cell_length_b                    18.785371
_cell_length_c                    22.829957
_cell_angle_alpha                 99.619003
_cell_angle_beta                  89.749479
_cell_angle_gamma                 91.482548
_cell_volume                      3472.13649803

loop_
_atom_site_label
_atom_site_type_symbol
_atom_type_description
_atom_site_fract_x
_atom_site_fract_y
_atom_site_fract_z
_atom_type_partial_charge
Ba1   Ba    Ba6+2 0.157800 0.534120 0.474430 1.639316
Ba2   Ba    Ba6+2 0.652390 0.465870 0.525520 1.649131
C1    C     C_3   0.358077 0.704286 0.262163 -0.305304
C2    C     C_R   0.069999 0.904981 0.563034 -0.091213
C3    C     C_R   0.207479 0.048453 0.553633 -0.101057
C4    C     C_3   0.911615 0.726809 0.355191 0.348291
C5    C     C_R   0.053384 0.024095 0.529848 0.018674
C6    C     C_R   0.264045 0.118914 0.554136 -0.100304
C7    C     C_R   0.169956 0.168793 0.531081 -0.030736
C8    C     C_R   0.020290 0.144862 0.502878 0.002397
C9    C     C_R   0.962045 0.072183 0.501878 0.023598
C10   C     C_R   0.221540 0.241863 0.534909 -0.032338
C11   C     C_R   0.121845 0.290377 0.512902 -0.292043
C12   C     C_3   0.388951 0.685506 0.323298 0.320626
C13   C     C_R   0.981494 0.266988 0.480431 0.045139
C14   C     C_R   0.930993 0.193098 0.474370 -0.043665
C15   C     C_R   0.841221 0.929130 0.502906 0.024656
C16   C     C_3   0.927388 0.802242 0.339563 -0.364149
C17   C     C_R   0.782305 0.856592 0.502202 -0.000715
C18   C     C_R   0.873625 0.807885 0.529454 -0.037560
C19   C     C_R   0.012144 0.834654 0.562255 -0.026210
C20   C     C_R   0.795213 0.165580 0.440240 -0.024358
C21   C     C_R   0.736583 0.095401 0.439927 -0.088514
C22   C     C_R   0.813525 0.048180 0.472605 0.011055
C23   C     C_3   0.481052 0.687187 0.623534 0.314942
C24   C     C_R   0.750116 0.977194 0.474838 0.017654
C25   C     C_R   0.595695 0.953041 0.451258 -0.103694
C26   C     C_R   0.631610 0.832883 0.474576 -0.035555
C27   C     C_R   0.538292 0.882717 0.451112 -0.088694
C28   C     C_3   0.822250 0.374215 0.343154 0.293803
C29   C     C_R   0.578922 0.759986 0.471370 0.001226
C30   C     C_R   0.677763 0.711543 0.493789 -0.305651
C31   C     C_R   0.822702 0.734158 0.523413 0.032802
C32   C     C_R   0.643288 0.525336 0.335424 -0.302816
C33   C     C_R   0.370467 0.554097 0.945931 -0.025015
C34   C     C_3   0.478408 0.768649 0.642701 -0.387228
C35   C     C_R   0.320174 0.548318 0.886165 0.589331
C36   C     C_R   0.285241 0.419738 0.878777 0.585605
C37   C     C_R   0.331192 0.423924 0.938732 -0.018596
C38   C     C_R   0.375065 0.491468 0.972333 -0.053981
C39   C     C_R   0.416767 0.621047 0.979892 -0.074670
C40   C     C_3   0.817902 0.354269 0.275788 -0.360249
C41   C     C_R   0.467374 0.625689 0.038773 -0.075472
C42   C     C_R   0.471664 0.563633 0.065772 -0.017928
C43   C     C_R   0.424495 0.496326 0.032515 -0.053374
C44   C     C_R   0.336031 0.361834 0.965644 -0.076330
C45   C     C_3   0.860393 0.269624 0.647604 0.431403
C46   C     C_R   0.383289 0.366699 0.024877 -0.075798
C47   C     C_R   0.428010 0.433754 0.059000 -0.024973
C48   C     C_R   0.476424 0.439573 0.118934 0.589891
C49   C     C_R   0.521541 0.567526 0.125326 0.577055
C50   C     C_2   0.100456 0.439094 0.768013 -0.087890
C51   C     C_3   0.079047 0.419597 0.701451 -0.063235
C52   C     C_3   0.982439 0.618359 0.654153 0.293868
C53   C     C_1   0.305459 0.505008 0.692480 0.012691
C54   C     C_2   0.348148 0.507394 0.748694 -0.073288
C55   C     C_2   0.236701 0.475896 0.790429 0.215937
C56   C     C_3   0.839370 0.197884 0.669644 -0.363098
C57   C     C_R   0.710719 0.545352 0.236009 -0.092281
C58   C     C_R   0.750628 0.551711 0.296225 -0.022140
C59   C     C_R   0.500856 0.487861 0.314602 0.031565
C60   C     C_R   0.458517 0.482207 0.254349 -0.100151
C61   C     C_R   0.562280 0.511823 0.214444 0.201644
C62   C     C_2   0.181691 0.465534 0.666711 -0.272244
C63   C     C_3   0.997160 0.634588 0.721485 -0.359619
C64   C     C_3   0.320299 0.313775 0.393121 0.314720
C65   C     C_3   0.321362 0.232073 0.374897 -0.382530
C66   C     C_3   0.347708 0.268628 0.671682 0.290910
C67   C     C_3   0.395478 0.250823 0.731679 -0.313554
C68   C     C_R   0.990766 0.952863 0.531609 0.012408
H1    H     H_    0.308641 0.638682 0.328458 0.107481
H2    H     H_    0.194480 0.330541 0.403806 0.004239
H3    H     H_    0.399110 0.329034 0.432818 0.070491
H4    H     H_    0.242596 0.733591 0.261785 0.146854
H5    H     H_    0.239281 0.215098 0.336287 0.127659
H6    H     H_    0.279171 0.205149 0.412045 0.059713
H7    H     H_    0.446831 0.214549 0.362587 0.119974
H8    H     H_    0.518196 0.670522 0.326184 -0.038833
H9    H     H_    0.347113 0.653902 0.229230 0.122002
H10   H     H_    0.609301 0.671327 0.614978 0.015449
H11   H     H_    0.409081 0.673308 0.581913 0.057694
H12   H     H_    0.730057 0.308570 0.262351 0.140626
H13   H     H_    0.551631 0.784809 0.683767 0.131071
H14   H     H_    0.530680 0.795950 0.607104 0.054809
H15   H     H_    0.351118 0.786125 0.651284 0.120598
H16   H     H_    0.459688 0.738842 0.249547 0.127080
H17   H     H_    0.867295 0.841522 0.374103 0.076426
H18   H     H_    0.807117 0.264278 0.602403 0.080167
H19   H     H_    0.993383 0.280746 0.644581 -0.140903
H20   H     H_    0.708637 0.182101 0.671062 0.143382
H21   H     H_    0.903319 0.155212 0.639196 0.066658
H22   H     H_    0.892164 0.202261 0.714842 0.111826
H23   H     H_    0.779898 0.400839 0.255614 0.073540
H24   H     H_    0.243363 0.232374 0.654864 -0.018588
H25   H     H_    0.312399 0.325894 0.677856 0.021221
H26   H     H_    0.287718 0.255171 0.761389 0.127319
H27   H     H_    0.493125 0.288885 0.752077 0.161434
H28   H     H_    0.972683 0.727479 0.398635 0.078225
H29   H     H_    0.439377 0.194692 0.726373 0.096213
H30   H     H_    0.160613 0.346486 0.517232 0.067723
H31   H     H_    0.382481 0.133686 0.573459 0.101627
H32   H     H_    0.078835 0.801741 0.587853 0.095532
H33   H     H_    0.730699 0.197898 0.413525 0.098717
H34   H     H_    0.940839 0.338319 0.258769 0.128712
H35   H     H_    0.419343 0.868188 0.432158 0.116476
H36   H     H_    0.638322 0.655556 0.489955 0.078171
H37   H     H_    0.289780 0.013927 0.571578 0.071200
H38   H     H_    0.176751 0.920440 0.589820 0.059191
H39   H     H_    0.631581 0.079296 0.412316 0.061376
H40   H     H_    0.779927 0.713219 0.359098 -0.056053
H41   H     H_    0.513737 0.987803 0.433384 0.073632
H42   H     H_    0.384876 0.317586 0.043858 0.123769
H43   H     H_    0.303063 0.309092 0.940954 0.120761
H44   H     H_    0.502493 0.678286 0.063226 0.122193
H45   H     H_    0.098997 0.598213 0.634732 0.008052
H46   H     H_    0.795910 0.565382 0.205910 0.111970
H47   H     H_    0.414873 0.670169 0.960932 0.124006
H48   H     H_    0.464193 0.531924 0.764735 0.109068
H49   H     H_    0.016681 0.415761 0.796923 0.106049
H50   H     H_    0.346286 0.454234 0.238475 0.118491
H51   H     H_    0.676150 0.529808 0.381759 0.083205
H52   H     H_    0.057918 0.818378 0.337056 0.139386
H53   H     H_    0.170600 0.454713 0.618655 0.076459
H54   H     H_    0.868327 0.803407 0.296080 0.125330
H55   H     H_    0.698707 0.388379 0.359443 0.013994
H56   H     H_    0.886709 0.575944 0.642400 0.089384
H57   H     H_    0.907343 0.421157 0.355432 0.067059
H58   H     H_    0.100196 0.673347 0.734563 0.145211
H59   H     H_    0.018643 0.584228 0.739250 0.071329
H60   H     H_    0.882711 0.658198 0.741168 0.130196
N1    N     N_R   0.279225 0.481555 0.853017 -0.425889
N2    N     N_R   0.519273 0.506228 0.151981 -0.424775
O1    O     O_2   0.110690 0.676100 0.539200 -0.462585
O2    O     O_2   0.749751 0.465188 0.707423 -0.486362
O3    O     O_3   0.781113 0.324270 0.686492 -0.570040
O4    O     O_3   0.863220 0.586720 0.534720 -0.488610
O5    O     O_3   0.450900 0.461390 0.429220 -0.489599
O6    O     O_2   0.599830 0.538970 0.641850 -0.459442
O7    O     O_3   0.413977 0.653377 0.668874 -0.632120
O8    O     O_2   0.556898 0.243251 0.521573 -0.491755
O9    O     O_3   0.480504 0.257339 0.632842 -0.580611
O10   O     O_2   0.311704 0.602820 0.863755 -0.594821
O11   O     O_2   0.252736 0.360747 0.849215 -0.621387
O12   O     O_3   0.377238 0.345484 0.345511 -0.626038
O13   O     O_2   0.482644 0.385082 0.141470 -0.596953
O14   O     O_2   0.566460 0.625729 0.153510 -0.616511
O15   O     O_3   0.368310 0.629070 0.432760 -0.489443
O16   O     O_2   0.239020 0.756331 0.473723 -0.488293
O17   O     O_3   0.942638 0.681789 0.633468 -0.640521
O18   O     O_3   0.353163 0.745246 0.366574 -0.612560
O19   O     O_2   0.210480 0.460990 0.358130 -0.464852
O20   O     O_3   0.959520 0.592090 0.401630 -0.486112
O21   O     O_2   0.088532 0.544877 0.295209 -0.502069
O22   O     O_3   0.986452 0.677593 0.310639 -0.599632
O23   O     O_2   0.699610 0.323860 0.460780 -0.467789
O24   O     O_3   0.947090 0.413280 0.465240 -0.490602
O25   O     O_3   0.442000 0.370930 0.567190 -0.461419
O26   O     O_3   0.873728 0.314514 0.366598 -0.639489
O27   O     O_3   0.359410 0.538600 0.570730 -0.478687
O28   O     O_3   0.850780 0.407910 0.598320 -0.479057
P1    P     P_3+3 0.935930 0.665430 0.555670 0.975741
P2    P     P_3+3 0.382700 0.439650 0.365620 0.993610
P3    P     P_3+3 0.947058 0.590246 0.325083 0.941906
P4    P     P_3+3 0.874370 0.334570 0.444280 0.974720
P5    P     P_3+3 0.863850 0.407366 0.674606 0.972279
P6    P     P_3+3 0.384655 0.722856 0.436994 0.934812
P7    P     P_3+3 0.415760 0.559727 0.645570 0.959285
P8    P     P_3+3 0.423048 0.277493 0.563962 0.947501

loop_
_geom_bond_atom_site_label_1
_geom_bond_atom_site_label_2
_ccdc_geom_bond_type
O8    P8    D    
C32   C58   A    
C53   C54   D    
Ba2   O23   S    
C25   C27   A    
C23   H10   S    
O16   P6    D    
C12   H1    S    
C17   C18   A    
C65   H7    S    
C53   P7    S    
C67   H26   S    
C1    H9    S    
C5    C68   A    
C2    C68   A    
C63   H60   S    
C52   C63   S    
C42   C43   A    
C5    C9    A    
C52   H56   S    
C24   C25   A    
O21   P3    D    
C15   C24   A    
C4    H28   S    
C26   C27   A    
C23   O7    S    
C22   C24   A    
C41   H44   S    
C3    H37   S    
C36   C37   A    
C51   C62   S    
C64   O12   S    
C34   H13   S    
C13   C14   A    
C40   H23   S    
C9    C22   A    
C58   P3    S    
C54   C55   S    
Ba1   O20   S    
Ba1   Ba2   S    
C36   O11   D    
C1    H4    S    
C66   C67   S    
C64   H2    S    
O27   P7    S    
C6    C7    A    
C40   H12   S    
Ba2   O24   S    
C21   C22   A    
C67   H27   S    
Ba1   O4    S    
C6    H31   S    
C60   H50   S    
O26   P4    S    
C45   O3    S    
C64   C65   S    
C28   H55   S    
C25   H41   S    
C57   C58   A    
C30   H36   S    
C52   H45   S    
C1    H16   S    
C23   H11   S    
C39   C41   A    
C27   H35   S    
Ba1   O1    S    
O25   P8    S    
C56   H21   S    
C52   O17   S    
O4    P1    S    
C38   C43   A    
C21   H39   S    
C4    C16   S    
C44   C46   A    
C66   H25   S    
C35   O10   D    
C59   P2    S    
Ba2   O6    S    
C63   H58   S    
C13   P4    S    
Ba1   O27   S    
C8    C9    A    
Ba2   P4    S    
C37   C38   A    
C3    C5    A    
Ba2   O27   S    
C49   O14   D    
C57   H46   S    
C64   H3    S    
C32   C59   A    
Ba2   O4    S    
C20   H33   S    
C35   N1    Am   
C30   C31   A    
C40   H34   S    
O6    P7    D    
C4    H40   S    
Ba1   O24   S    
C31   P1    S    
C41   C42   A    
C60   C61   A    
O15   P6    S    
C2    H38   S    
O22   P3    S    
C29   C30   A    
C29   P6    S    
C43   C47   A    
O19   P2    D    
C53   C62   D    
C12   O18   S    
O3    P5    S    
O2    P5    D    
C66   O9    S    
O28   P5    S    
C10   C11   A    
O7    P7    S    
C17   C26   A    
C56   H20   S    
C4    O22   S    
C1    C12   S    
C48   N2    Am   
C16   H52   S    
C37   C44   A    
C18   C31   A    
C67   H29   S    
C48   O13   D    
C51   P5    S    
C46   C47   A    
C46   H42   S    
Ba1   P2    S    
C45   H19   S    
C32   H51   S    
C11   C13   A    
O23   P4    D    
Ba1   O15   S    
O17   P1    S    
C19   H32   S    
Ba1   O5    S    
C50   C51   S    
C42   C49   A    
C7    C8    A    
C33   C35   A    
C28   O26   S    
C28   H57   S    
O9    P8    S    
C14   C20   A    
C44   H43   S    
O12   P2    S    
Ba2   O5    S    
C54   H48   S    
C55   N1    S    
C26   C29   A    
O1    P1    D    
C10   P8    S    
C3    C6    A    
C63   H59   S    
C49   N2    Am   
C34   H15   S    
C62   H53   S    
C57   C61   A    
C16   H17   S    
C36   N1    Am   
C11   H30   S    
C33   C38   A    
C8    C14   A    
C45   H18   S    
C45   C56   S    
C2    C19   A    
O5    P2    S    
C34   H14   S    
Ba2   O25   S    
C15   C17   A    
C61   N2    S    
Ba1   O19   S    
C12   H8    S    
C59   C60   A    
C33   C39   A    
C7    C10   A    
C66   H24   S    
O20   P3    S    
C50   C55   D    
C23   C34   S    
Ba1   P1    S    
C50   H49   S    
C15   C68   A    
C65   H5    S    
C18   C19   A    
O24   P4    S    
Ba2   O28   S    
C47   C48   A    
C20   C21   A    
C28   C40   S    
C65   H6    S    
C39   H47   S    
C56   H22   S    
C16   H54   S    
O18   P6    S    
