data_mof_unit_32162.cif
_audit_creation_date              2012-12-11T17:23:15-0500
_audit_creation_method            fapswitch 2.2
_symmetry_space_group_name_H-M    P1
_symmetry_Int_Tables_number       1
_space_group_crystal_system       triclinic
_cell_length_a                    22.364083
_cell_length_b                    7.094566
_cell_length_c                    19.429566
_cell_angle_alpha                 89.941057
_cell_angle_beta                  99.603154
_cell_angle_gamma                 89.999228
_cell_volume                      3039.56136872

loop_
_atom_site_label
_atom_site_type_symbol
_atom_type_description
_atom_site_fract_x
_atom_site_fract_y
_atom_site_fract_z
_atom_type_partial_charge
O1    O     O_R   0.443980 0.494320 0.557430 -0.533356
O2    O     O_R   0.556020 0.994320 0.442570 -0.533182
O3    O     O_R   0.441210 0.822520 0.414610 -0.537245
O4    O     O_R   0.558790 0.322520 0.585390 -0.537388
C1    C     C_R   0.426653 0.655450 0.388808 0.692250
C2    C     C_R   0.573387 0.155240 0.611156 0.690870
O5    O     O_R   0.436920 0.823940 0.555180 -0.536769
O6    O     O_R   0.563080 0.323940 0.444820 -0.536791
O7    O     O_R   0.551700 0.995760 0.584140 -0.534839
O8    O     O_R   0.448300 0.495760 0.415860 -0.534636
C3    C     C_R   0.421535 0.655328 0.574761 0.719733
C4    C     C_R   0.578433 0.155426 0.425204 0.719572
O9    O     O_3   0.537660 0.661290 0.509340 -0.370309
O10   O     O_3   0.462340 0.161290 0.490660 -0.369986
V1    V     V_3+5 0.493010 0.935560 0.498270 1.422991
V2    V     V_3+5 0.506990 0.435560 0.501730 1.422836
C5    C     C_R   0.754672 0.940512 0.210884 -0.190960
C6    C     C_R   0.213439 0.441395 0.749704 -0.188849
H1    H     H_    0.758538 0.813885 0.180750 0.117284
H2    H     H_    0.186488 0.314923 0.751299 0.116587
C7    C     C_R   0.793544 0.092712 0.204845 0.110055
C8    C     C_R   0.204881 0.593316 0.793225 0.109506
C9    C     C_R   0.788453 0.256357 0.243848 -0.162911
C10   C     C_R   0.239541 0.757096 0.790802 -0.166032
H3    H     H_    0.818101 0.375331 0.240014 0.120229
H4    H     H_    0.233547 0.876083 0.823890 0.122672
C11   C     C_R   0.745152 0.267974 0.288317 -0.204900
C12   C     C_R   0.282463 0.768726 0.745867 -0.204420
H5    H     H_    0.742398 0.395645 0.318170 0.121858
H6    H     H_    0.309029 0.896303 0.745474 0.121836
C13   C     C_R   0.705861 0.116701 0.294503 0.116836
C14   C     C_R   0.291392 0.617436 0.702110 0.117186
C15   C     C_R   0.710604 0.950572 0.255157 0.149761
C16   C     C_R   0.256227 0.451538 0.703841 0.149019
C17   C     C_1   0.838632 0.080717 0.158779 -0.045478
C18   C     C_1   0.160451 0.581177 0.840097 -0.045913
C19   C     C_1   0.661462 0.133983 0.341466 -0.052738
C20   C     C_1   0.337278 0.633919 0.656961 -0.053321
C21   C     C_1   0.623948 0.145664 0.379981 -0.192594
C22   C     C_1   0.375559 0.645355 0.619401 -0.192654
C23   C     C_1   0.876393 0.071330 0.120491 -0.189259
C24   C     C_1   0.123143 0.571617 0.878943 -0.189768
C25   C     C_R   0.633278 0.160053 0.803939 -0.160065
C26   C     C_R   0.366399 0.670903 0.196188 -0.160248
H7    H     H_    0.545677 0.183967 0.740099 0.105480
H8    H     H_    0.453997 0.695013 0.260019 0.106340
H9    H     H_    0.715743 0.146378 0.918685 0.125130
H10   H     H_    0.283719 0.662498 0.081548 0.124523
H11   H     H_    0.614703 0.174331 0.851752 0.113532
H12   H     H_    0.384780 0.690338 0.148460 0.113814
C27   C     C_R   0.616047 0.146915 0.677803 -0.037899
C28   C     C_R   0.383994 0.648076 0.322152 -0.038138
C29   C     C_R   0.913039 0.054393 0.758483 0.124562
C30   C     C_R   0.087336 0.546175 0.241468 0.124828
C31   C     C_R   0.874847 0.059306 0.693316 -0.108365
C32   C     C_R   0.125651 0.548233 0.306581 -0.108151
C33   C     C_R   0.812349 0.080093 0.687985 -0.212503
C34   C     C_R   0.188030 0.572154 0.311922 -0.212472
C35   C     C_R   0.784627 0.097494 0.747734 0.079259
C36   C     C_R   0.215505 0.595872 0.252242 0.079237
C37   C     C_R   0.822862 0.093433 0.814554 0.050368
C38   C     C_R   0.177120 0.595411 0.185490 0.050564
C39   C     C_R   0.720199 0.119033 0.743292 0.083807
C40   C     C_R   0.279840 0.620105 0.256693 0.083803
C41   C     C_R   0.695926 0.137196 0.806060 0.136655
C42   C     C_R   0.303866 0.644824 0.194028 0.136939
C43   C     C_R   0.734173 0.132807 0.870738 -0.202353
C44   C     C_R   0.265478 0.643940 0.129421 -0.202764
C45   C     C_R   0.796420 0.111063 0.875041 -0.177067
C46   C     C_R   0.203330 0.619381 0.125093 -0.177650
C47   C     C_R   0.678720 0.123636 0.679044 -0.214811
C48   C     C_R   0.321454 0.621302 0.320862 -0.214844
C49   C     C_R   0.593815 0.165423 0.740426 -0.167773
C50   C     C_R   0.405978 0.673314 0.259645 -0.168409
C51   C     C_R   0.886861 0.071402 0.819724 -0.137329
C52   C     C_R   0.113234 0.570069 0.180289 -0.137765
H13   H     H_    0.693408 0.110437 0.629203 0.092827
H14   H     H_    0.306949 0.603311 0.370627 0.092680
H15   H     H_    0.786927 0.082267 0.635797 0.117709
H16   H     H_    0.213560 0.571495 0.364065 0.117599
H17   H     H_    0.892724 0.046902 0.645176 0.131700
H18   H     H_    0.107977 0.530822 0.354668 0.131914
H19   H     H_    0.823722 0.108564 0.926583 0.110739
H20   H     H_    0.175917 0.619755 0.073607 0.111031
O11   O     O_R   0.051730 0.724670 0.084120 -0.533616
O12   O     O_R   0.948270 0.224670 0.915880 -0.533768
O13   O     O_R   0.063080 0.393540 0.944820 -0.536346
O14   O     O_R   0.936920 0.893540 0.055180 -0.536256
C53   C     C_R   0.078034 0.562124 0.924700 0.713765
C54   C     C_R   0.921887 0.062036 0.075208 0.713632
O15   O     O_R   0.058800 0.395030 0.085390 -0.537488
O16   O     O_R   0.941200 0.895030 0.914610 -0.537239
O17   O     O_R   0.943980 0.223310 0.057440 -0.535070
O18   O     O_R   0.056020 0.723310 0.942560 -0.535173
C55   C     C_R   0.072723 0.563376 0.111432 0.675964
C56   C     C_R   0.927307 0.063594 0.888573 0.676161
O19   O     O_3   0.962360 0.556290 0.990650 -0.367828
O20   O     O_3   0.037640 0.056290 0.009350 -0.368077
V3    V     V_3+5 0.006980 0.281990 0.001730 1.416475
V4    V     V_3+5 0.993020 0.781990 0.998270 1.416812
C57   C     C_3   0.669880 0.782327 0.259935 -0.367894
C58   C     C_3   0.606500 0.814671 0.218407 -0.738524
H21   H     H_    0.584164 0.936545 0.239359 0.227694
H22   H     H_    0.609173 0.841049 0.162632 0.226157
H23   H     H_    0.578237 0.687440 0.221921 0.211952
H24   H     H_    0.689097 0.654234 0.238970 0.178485
H25   H     H_    0.666925 0.752239 0.315410 0.182113
C59   C     C_3   0.263719 0.283814 0.657991 -0.368549
C60   C     C_3   0.232788 0.317709 0.582843 -0.736645
H26   H     H_    0.183623 0.344696 0.581094 0.224979
H27   H     H_    0.253350 0.439775 0.559701 0.225360
H28   H     H_    0.238077 0.190911 0.550941 0.216093
H29   H     H_    0.312643 0.253216 0.659406 0.182204
H30   H     H_    0.243432 0.155642 0.677655 0.177953
C61   C     C_3   0.981686 0.031542 0.764777 -0.342034
C62   C     C_3   0.006464 0.017284 0.696190 -0.780847
H31   H     H_    0.987634 0.891400 0.666199 0.227159
H32   H     H_    0.995592 0.146943 0.664478 0.226355
H33   H     H_    0.056581 0.002301 0.707728 0.224069
H34   H     H_    0.004110 0.153894 0.794144 0.176518
H35   H     H_    0.995736 0.902114 0.795556 0.182179
C63   C     C_3   0.018851 0.519007 0.235179 -0.341609
C64   C     C_3   0.994368 0.497288 0.303717 -0.782240
H36   H     H_    0.014030 0.370388 0.332511 0.227233
H37   H     H_    0.004538 0.625049 0.336580 0.227142
H38   H     H_    0.944348 0.479524 0.292190 0.220842
H39   H     H_    0.995657 0.642082 0.206965 0.175863
H40   H     H_    0.005463 0.391139 0.203303 0.182829

loop_
_geom_bond_atom_site_label_1
_geom_bond_atom_site_label_2
_ccdc_geom_bond_type
C25   C49   A    
C42   C44   A    
C39   C41   A    
C57   H25   S    
C57   C58   S    
C61   H35   S    
C11   H5    S    
C47   H13   S    
C33   H15   S    
C18   C24   T    
O1    C3    A    
O2    V1    S    
O2    C4    A    
C25   C41   A    
C2    O7    A    
C64   H36   S    
C62   H31   S    
O5    C3    A    
C5    C15   A    
C45   H19   S    
C8    C10   A    
H7    C49   S    
C10   H4    S    
C28   C50   A    
C60   H27   S    
C52   C55   S    
C33   C35   A    
C26   H12   S    
C61   C62   S    
O16   C56   A    
C59   C60   S    
C38   C46   A    
C58   H23   S    
C36   C38   A    
C59   H30   S    
C63   H39   S    
C48   H14   S    
C26   C42   A    
C32   C34   A    
C41   C43   A    
C13   C15   A    
C1    C28   S    
C14   C20   S    
C2    C27   S    
C31   H17   S    
C46   H20   S    
O17   V3    S    
C34   H16   S    
O5    V1    S    
C23   C54   S    
C30   C63   S    
O6    V2    S    
C38   C52   A    
C29   C51   A    
C27   C47   A    
H9    C43   S    
O19   V3    S    
C51   C56   S    
O13   V3    S    
C29   C31   A    
C30   C32   A    
C35   C37   A    
C11   C13   A    
C3    C22   S    
C10   C12   A    
C12   C14   A    
O4    C2    A    
C60   H28   S    
C25   H11   S    
C64   H38   S    
C37   C51   A    
C13   C19   S    
C43   C45   A    
C14   C16   A    
C59   H29   S    
O4    V2    S    
C26   C50   A    
C28   C48   A    
O18   V4    S    
O6    C4    A    
O1    V2    S    
H10   C44   S    
C58   H22   S    
O12   V3    S    
C6    C16   A    
O14   V4    S    
O12   C56   A    
C30   C52   A    
O14   C54   A    
C61   H34   S    
C9    C11   A    
C31   C33   A    
C15   C57   S    
H8    C50   S    
O19   V4    S    
O3    V1    S    
O16   V4    S    
C54   O17   A    
C37   C45   A    
C57   H24   S    
C6    C8    A    
C35   C39   A    
C27   C49   A    
C39   C47   A    
O3    C1    A    
C53   O18   A    
C32   H18   S    
C7    C17   S    
C8    C18   S    
O20   V4    S    
C62   H33   S    
C36   C40   A    
C24   C53   S    
C16   C59   S    
C4    C21   S    
C7    C9    A    
O7    V1    S    
C1    O8    A    
C19   C21   T    
O11   V4    S    
O8    V2    S    
C60   H26   S    
C20   C22   T    
O11   C55   A    
C12   H6    S    
C5    H1    S    
C62   H32   S    
C6    H2    S    
C40   C48   A    
C63   H40   S    
C58   H21   S    
C17   C23   T    
C5    C7    A    
C64   H37   S    
O15   C55   A    
C9    H3    S    
C44   C46   A    
O20   V3    S    
O9    V2    S    
O13   C53   A    
O10   V1    S    
O15   V3    S    
C63   C64   S    
C34   C36   A    
C29   C61   S    
C40   C42   A    
