data_mof_unit_63579.cif
_audit_creation_date              2012-12-10T17:54:45-0500
_audit_creation_method            fapswitch 2.2
_symmetry_space_group_name_H-M    P1
_symmetry_Int_Tables_number       1
_space_group_crystal_system       triclinic
_cell_length_a                    21.588132
_cell_length_b                    21.588137
_cell_length_c                    30.127937
_cell_angle_alpha                 90.000086
_cell_angle_beta                  89.999947
_cell_angle_gamma                 89.999986
_cell_volume                      14041.0512612

loop_
_atom_site_label
_atom_site_type_symbol
_atom_type_description
_atom_site_fract_x
_atom_site_fract_y
_atom_site_fract_z
_atom_type_partial_charge
Br1   Br    Br    0.376842 0.853146 0.803206 -0.330869
Br2   Br    Br    0.353147 0.123159 0.303207 -0.330869
Br3   Br    Br    0.123158 0.646853 0.303206 -0.330869
Br4   Br    Br    0.646853 0.876841 0.303206 -0.330869
Br5   Br    Br    0.876840 0.646853 0.696794 -0.330869
Br6   Br    Br    0.353146 0.876842 0.696793 -0.330869
Br7   Br    Br    0.123160 0.353147 0.696793 -0.330869
Br8   Br    Br    0.646854 0.123158 0.696793 -0.330869
Br9   Br    Br    0.853145 0.623157 0.803207 -0.330868
Br10  Br    Br    0.623158 0.146853 0.803206 -0.330869
Br11  Br    Br    0.146855 0.376843 0.803206 -0.330869
Br12  Br    Br    0.376843 0.146854 0.196794 -0.330869
Br13  Br    Br    0.853146 0.376842 0.196794 -0.330869
Br14  Br    Br    0.623157 0.853146 0.196793 -0.330869
Br15  Br    Br    0.146854 0.623158 0.196794 -0.330869
Br16  Br    Br    0.876842 0.353146 0.303206 -0.330869
C1    C     C_R   0.500000 0.120107 0.500000 0.829600
C2    C     C_R   0.000000 0.500000 0.773251 -0.045900
C3    C     C_R   0.973315 0.549994 0.842598 -0.032845
C4    C     C_R   0.549994 0.973316 0.157402 -0.032845
C5    C     C_R   0.026684 0.549994 0.157402 -0.032845
C6    C     C_R   0.450006 0.026685 0.157402 -0.032844
C7    C     C_R   0.973316 0.450006 0.157402 -0.032844
C8    C     C_R   0.049994 0.526684 0.342598 -0.032844
C9    C     C_R   0.526684 0.950006 0.342598 -0.032845
C10   C     C_R   0.950006 0.473316 0.342598 -0.032844
C11   C     C_R   0.473316 0.049994 0.342598 -0.032844
C12   C     C_R   0.049994 0.473316 0.657402 -0.032844
C13   C     C_R   0.500000 0.000000 0.226749 -0.045900
C14   C     C_R   0.526684 0.049994 0.657402 -0.032844
C15   C     C_R   0.950006 0.526684 0.657402 -0.032844
C16   C     C_R   0.473316 0.950006 0.657402 -0.032844
C17   C     C_R   0.500000 1.000000 0.865456 -0.215106
C18   C     C_R   1.000000 0.500000 0.865456 -0.215106
C19   C     C_R   0.500000 0.000000 0.134544 -0.215106
C20   C     C_R   1.000000 0.500000 0.134544 -0.215106
C21   C     C_R   1.000000 0.500000 0.365456 -0.215106
C22   C     C_R   0.500000 0.000000 0.365456 -0.215105
C23   C     C_R   0.000000 0.500000 0.634544 -0.215105
C24   C     C_R   1.000000 0.500000 0.226749 -0.045900
C25   C     C_R   0.500000 1.000000 0.634544 -0.215106
C26   C     C_R   0.455949 0.963757 0.796563 0.010401
C27   C     C_R   0.963757 0.544050 0.796563 0.010401
C28   C     C_R   0.544050 0.036243 0.796563 0.010402
C29   C     C_R   0.036243 0.455950 0.796563 0.010401
C30   C     C_R   0.455950 0.036243 0.203436 0.010401
C31   C     C_R   0.963757 0.455949 0.203436 0.010402
C32   C     C_R   0.544050 0.963757 0.203436 0.010401
C33   C     C_R   0.036243 0.544050 0.203436 0.010401
C34   C     C_R   0.955950 0.463757 0.296563 0.010401
C35   C     C_R   1.000000 0.500000 0.273251 -0.045900
C36   C     C_R   0.463757 0.044051 0.296563 0.010402
C37   C     C_R   0.044051 0.536243 0.296563 0.010402
C38   C     C_R   0.536243 0.955949 0.296563 0.010401
C39   C     C_R   0.955949 0.536243 0.703437 0.010401
C40   C     C_R   0.463757 0.955949 0.703436 0.010402
C41   C     C_R   0.044051 0.463757 0.703436 0.010401
C42   C     C_R   0.536243 0.044050 0.703437 0.010401
C43   C     C_2   0.610082 0.035566 0.866143 0.477401
C44   C     C_2   0.035567 0.389918 0.866142 0.477399
C45   C     C_2   0.389918 0.964434 0.866143 0.477399
C46   C     C_R   0.500000 0.000000 0.273251 -0.045900
C47   C     C_2   0.964433 0.610082 0.866143 0.477399
C48   C     C_2   0.610082 0.964434 0.133857 0.477400
C49   C     C_2   0.035566 0.610082 0.133858 0.477401
C50   C     C_2   0.389918 0.035567 0.133857 0.477400
C51   C     C_2   0.964434 0.389918 0.133857 0.477400
C52   C     C_2   0.110082 0.535566 0.366142 0.477400
C53   C     C_2   0.535566 0.889918 0.366142 0.477400
C54   C     C_2   0.889918 0.464434 0.366142 0.477401
C55   C     C_2   0.464434 0.110082 0.366143 0.477399
C56   C     C_2   0.110082 0.464435 0.633857 0.477400
C57   C     C_R   1.000000 0.500000 0.726749 -0.045900
C58   C     C_2   0.535566 0.110082 0.633858 0.477399
C59   C     C_2   0.889918 0.535566 0.633857 0.477400
C60   C     C_2   0.464434 0.889918 0.633857 0.477399
C61   C     C_R   0.500000 1.000000 0.726749 -0.045901
C62   C     C_R   0.419048 0.920456 0.773206 0.259255
C63   C     C_R   0.920455 0.580951 0.773206 0.259256
C64   C     C_R   0.580952 0.079544 0.773206 0.259254
C65   C     C_R   0.120107 0.500000 0.500000 0.829600
C66   C     C_R   0.079545 0.419049 0.773206 0.259255
C67   C     C_R   0.419049 0.079545 0.226794 0.259255
C68   C     C_R   0.920456 0.419048 0.226794 0.259255
C69   C     C_R   0.580951 0.920455 0.226794 0.259255
C70   C     C_R   0.079544 0.580951 0.226794 0.259255
C71   C     C_R   0.919048 0.420455 0.273206 0.259255
C72   C     C_R   0.420456 0.080952 0.273206 0.259254
C73   C     C_R   0.080952 0.579544 0.273206 0.259255
C74   C     C_R   0.579544 0.919048 0.273206 0.259254
C75   C     C_R   0.919048 0.579544 0.726794 0.259254
C76   C     C_R   0.500000 0.879893 0.500000 0.829601
C77   C     C_R   0.420456 0.919048 0.726794 0.259255
C78   C     C_R   0.080952 0.420456 0.726794 0.259255
C79   C     C_R   0.579544 0.080951 0.726794 0.259255
C80   C     C_R   0.536427 0.217692 0.469120 -0.143115
C81   C     C_R   0.217692 0.463573 0.469120 -0.143115
C82   C     C_R   0.463573 0.782308 0.469121 -0.143114
C83   C     C_R   0.782308 0.536427 0.469121 -0.143114
C84   C     C_R   0.536427 0.782308 0.530879 -0.143115
C85   C     C_R   0.217692 0.536427 0.530879 -0.143115
C86   C     C_R   0.463572 0.217692 0.530879 -0.143114
C87   C     C_R   0.879893 0.500000 0.500000 0.829600
C88   C     C_R   0.782308 0.463573 0.530879 -0.143114
C89   C     C_R   0.036427 0.717692 0.969121 -0.143114
C90   C     C_R   0.717692 0.963573 0.969121 -0.143114
C91   C     C_R   0.963573 0.282308 0.969121 -0.143114
C92   C     C_R   0.282308 0.036427 0.969121 -0.143114
C93   C     C_R   0.036427 0.282308 0.030879 -0.143115
C94   C     C_R   0.717692 0.036427 0.030879 -0.143115
C95   C     C_R   0.963572 0.717692 0.030879 -0.143114
C96   C     C_R   0.282308 0.963572 0.030879 -0.143114
C97   C     C_R   0.500000 0.186126 0.500000 -0.031143
C98   C     C_R   0.000000 0.620107 1.000000 0.829600
C99   C     C_R   0.186126 0.500000 0.500000 -0.031143
C100  C     C_R   0.500000 0.813874 0.500000 -0.031143
C101  C     C_R   0.813874 0.500000 0.500000 -0.031143
C102  C     C_R   1.000000 0.686126 1.000000 -0.031143
C103  C     C_R   0.686126 1.000000 0.000000 -0.031143
C104  C     C_R   0.000000 0.313874 0.000000 -0.031143
C105  C     C_R   0.313874 0.000000 1.000000 -0.031143
C106  C     C_R   0.500000 1.000000 0.586653 0.808487
C107  C     C_R   0.000000 0.500000 0.586653 0.808488
C108  C     C_R   0.500000 0.000000 0.413347 0.808487
C109  C     C_R   0.620107 1.000000 0.000000 0.829600
C110  C     C_R   0.000000 0.500000 0.413347 0.808487
C111  C     C_R   1.000000 0.500000 0.086653 0.808487
C112  C     C_R   0.500000 0.000000 0.086653 0.808486
C113  C     C_R   1.000000 0.500000 0.913347 0.808487
C114  C     C_R   0.500000 1.000000 0.913347 0.808487
C115  C     C_R   0.535757 0.281681 0.468705 -0.139162
C116  C     C_R   0.281681 0.464243 0.468705 -0.139162
C117  C     C_R   0.464243 0.718319 0.468705 -0.139162
C118  C     C_R   0.718319 0.535757 0.468705 -0.139162
C119  C     C_R   0.535757 0.718319 0.531295 -0.139161
C120  C     C_R   1.000000 0.379893 0.000000 0.829601
C121  C     C_R   0.281681 0.535757 0.531295 -0.139162
C122  C     C_R   0.464243 0.281681 0.531294 -0.139163
C123  C     C_R   0.718319 0.464243 0.531294 -0.139162
C124  C     C_R   0.035757 0.781681 0.968705 -0.139162
C125  C     C_R   0.781681 0.964243 0.968705 -0.139162
C126  C     C_R   0.964243 0.218319 0.968705 -0.139163
C127  C     C_R   0.218319 0.035757 0.968705 -0.139162
C128  C     C_R   0.035757 0.218319 0.031295 -0.139162
C129  C     C_R   0.781681 0.035757 0.031295 -0.139162
C130  C     C_R   0.964243 0.781681 0.031294 -0.139163
C131  C     C_R   0.379893 0.000000 0.000000 0.829601
C132  C     C_R   0.218319 0.964243 0.031294 -0.139162
C133  C     C_R   0.500000 0.313423 0.500000 -0.036461
C134  C     C_R   0.313423 0.500000 0.500000 -0.036462
C135  C     C_R   0.500000 0.686576 0.500000 -0.036462
C136  C     C_R   0.686576 0.500000 0.500000 -0.036462
C137  C     C_R   1.000000 0.813423 1.000000 -0.036461
C138  C     C_R   0.813423 1.000000 0.000000 -0.036461
C139  C     C_R   1.000000 0.186577 0.000000 -0.036462
C140  C     C_R   0.186577 1.000000 1.000000 -0.036461
C141  C     C_R   0.379697 0.500000 0.500000 0.851026
C142  C     C_R   0.500000 1.000000 0.773251 -0.045900
C143  C     C_R   0.500000 0.620302 0.500000 0.851026
C144  C     C_R   0.620302 0.500000 0.500000 0.851026
C145  C     C_R   0.500000 0.379697 0.500000 0.851026
C146  C     C_R   0.879697 1.000000 0.000000 0.851026
C147  C     C_R   1.000000 0.120303 0.000000 0.851026
C148  C     C_R   0.120303 1.000000 1.000000 0.851026
C149  C     C_R   1.000000 0.879697 1.000000 0.851026
C150  C     C_R   0.549994 0.026684 0.842598 -0.032845
C151  C     C_R   0.026685 0.450006 0.842598 -0.032844
C152  C     C_R   0.450006 0.973316 0.842598 -0.032844
H1    H     H_    0.564360 0.192826 0.445115 0.161885
H2    H     H_    0.692827 0.935640 0.945115 0.161885
H3    H     H_    0.935640 0.307173 0.945115 0.161885
H4    H     H_    0.307174 0.064360 0.945115 0.161885
H5    H     H_    0.064360 0.307174 0.054885 0.161885
H6    H     H_    0.692826 0.064360 0.054885 0.161884
H7    H     H_    0.935640 0.692827 0.054885 0.161884
H8    H     H_    0.307173 0.935640 0.054885 0.161884
H9    H     H_    0.563670 0.306364 0.444603 0.166712
H10   H     H_    0.306364 0.436331 0.444603 0.166712
H11   H     H_    0.436331 0.693635 0.444603 0.166712
H12   H     H_    0.192827 0.435640 0.445115 0.161885
H13   H     H_    0.693636 0.563670 0.444603 0.166712
H14   H     H_    0.563669 0.693636 0.555397 0.166712
H15   H     H_    0.306364 0.563669 0.555397 0.166712
H16   H     H_    0.436330 0.306364 0.555397 0.166712
H17   H     H_    0.693635 0.436330 0.555397 0.166712
H18   H     H_    0.063670 0.806364 0.944603 0.166711
H19   H     H_    0.806364 0.936330 0.944603 0.166712
H20   H     H_    0.936331 0.193635 0.944603 0.166712
H21   H     H_    0.193636 0.063670 0.944603 0.166712
H22   H     H_    0.063669 0.193636 0.055398 0.166712
H23   H     H_    0.435640 0.807173 0.445115 0.161885
H24   H     H_    0.806364 0.063669 0.055398 0.166712
H25   H     H_    0.936330 0.806364 0.055397 0.166712
H26   H     H_    0.193635 0.936330 0.055397 0.166712
H27   H     H_    0.611345 0.049217 0.900757 0.067625
H28   H     H_    0.049218 0.388655 0.900757 0.067626
H29   H     H_    0.388655 0.950783 0.900757 0.067625
H30   H     H_    0.950782 0.611345 0.900757 0.067625
H31   H     H_    0.611345 0.950783 0.099242 0.067625
H32   H     H_    0.049217 0.611345 0.099243 0.067625
H33   H     H_    0.388655 0.049218 0.099243 0.067626
H34   H     H_    0.807174 0.564360 0.445115 0.161885
H35   H     H_    0.950783 0.388655 0.099242 0.067625
H36   H     H_    0.111345 0.549217 0.400757 0.067625
H37   H     H_    0.549217 0.888655 0.400757 0.067625
H38   H     H_    0.888655 0.450783 0.400757 0.067625
H39   H     H_    0.450783 0.111345 0.400757 0.067625
H40   H     H_    0.111345 0.450784 0.599242 0.067624
H41   H     H_    0.549217 0.111345 0.599243 0.067625
H42   H     H_    0.888655 0.549217 0.599243 0.067625
H43   H     H_    0.450783 0.888655 0.599242 0.067625
H44   H     H_    0.564360 0.807174 0.554885 0.161885
H45   H     H_    0.192826 0.564360 0.554885 0.161885
H46   H     H_    0.435640 0.192827 0.554885 0.161884
H47   H     H_    0.807173 0.435640 0.554885 0.161885
H48   H     H_    0.064360 0.692826 0.945115 0.161884
O1    O     O_R   0.448270 0.091530 0.499990 -0.614765
O2    O     O_R   0.591530 0.051730 0.999990 -0.614765
O3    O     O_R   0.051730 0.408470 0.999990 -0.614765
O4    O     O_R   0.408470 0.948270 0.999990 -0.614765
O5    O     O_R   0.948270 0.408470 0.000010 -0.614765
O6    O     O_R   0.591530 0.948270 0.000010 -0.614765
O7    O     O_R   0.051730 0.591530 0.000010 -0.614765
O8    O     O_R   0.408470 0.051730 0.000010 -0.614766
O9    O     O_R   0.448270 0.999890 0.566070 -0.609861
O10   O     O_R   0.999890 0.551730 0.566070 -0.609862
O11   O     O_R   0.551730 0.000110 0.566070 -0.609861
O12   O     O_R   0.091530 0.551730 0.499990 -0.614766
O13   O     O_R   0.000110 0.448270 0.566070 -0.609861
O14   O     O_R   0.448270 0.000110 0.433930 -0.609860
O15   O     O_R   0.999890 0.448270 0.433930 -0.609861
O16   O     O_R   0.551730 0.999890 0.433930 -0.609861
O17   O     O_R   0.000110 0.551730 0.433930 -0.609861
O18   O     O_R   0.948270 0.499890 0.066070 -0.609861
O19   O     O_R   0.499890 0.051730 0.066070 -0.609861
O20   O     O_R   0.051730 0.500110 0.066070 -0.609861
O21   O     O_R   0.500110 0.948270 0.066070 -0.609861
O22   O     O_R   0.948270 0.500110 0.933930 -0.609861
O23   O     O_R   0.551730 0.908470 0.499990 -0.614765
O24   O     O_R   0.499890 0.948270 0.933930 -0.609861
O25   O     O_R   0.051730 0.499890 0.933930 -0.609861
O26   O     O_R   0.500110 0.051730 0.933930 -0.609861
O27   O     O_R   0.408290 0.499920 0.462700 -0.611650
O28   O     O_R   0.499920 0.591710 0.462700 -0.611650
O29   O     O_R   0.591710 0.500080 0.462700 -0.611650
O30   O     O_R   0.500080 0.408290 0.462700 -0.611650
O31   O     O_R   0.408290 0.500080 0.537300 -0.611650
O32   O     O_R   0.499920 0.408290 0.537300 -0.611650
O33   O     O_R   0.591710 0.499920 0.537300 -0.611650
O34   O     O_R   0.908470 0.448270 0.499990 -0.614765
O35   O     O_R   0.500080 0.591710 0.537300 -0.611650
O36   O     O_R   0.908290 0.999920 0.962700 -0.611650
O37   O     O_R   0.999920 0.091710 0.962700 -0.611650
O38   O     O_R   0.091710 0.000080 0.962700 -0.611650
O39   O     O_R   0.000080 0.908290 0.962700 -0.611650
O40   O     O_R   0.908290 0.000080 0.037300 -0.611650
O41   O     O_R   0.999920 0.908290 0.037300 -0.611650
O42   O     O_R   0.091710 0.999920 0.037300 -0.611650
O43   O     O_R   0.000080 0.091710 0.037300 -0.611650
O44   O     O_2   0.659028 0.024450 0.847434 -0.512651
O45   O     O_R   0.448270 0.908470 0.500010 -0.614765
O46   O     O_2   0.024451 0.340972 0.847434 -0.512650
O47   O     O_2   0.340972 0.975550 0.847434 -0.512650
O48   O     O_2   0.975548 0.659028 0.847434 -0.512650
O49   O     O_2   0.659028 0.975549 0.152566 -0.512650
O50   O     O_2   0.024450 0.659028 0.152566 -0.512651
O51   O     O_2   0.340972 0.024451 0.152566 -0.512651
O52   O     O_2   0.975550 0.340972 0.152566 -0.512651
O53   O     O_2   0.159028 0.524450 0.347434 -0.512651
O54   O     O_2   0.524449 0.840972 0.347434 -0.512650
O55   O     O_2   0.840972 0.475549 0.347434 -0.512651
O56   O     O_R   0.091530 0.448270 0.500010 -0.614765
O57   O     O_2   0.475551 0.159028 0.347434 -0.512650
O58   O     O_2   0.159028 0.475551 0.652566 -0.512651
O59   O     O_2   0.524450 0.159028 0.652566 -0.512650
O60   O     O_2   0.840972 0.524449 0.652566 -0.512651
O61   O     O_2   0.475550 0.840972 0.652566 -0.512650
O62   O     O_R   0.551730 0.091530 0.500010 -0.614766
O63   O     O_R   0.908470 0.551730 0.500010 -0.614765
O64   O     O_R   0.948270 0.591530 0.999990 -0.614765
Zn1   Zn    Zn3+2 0.430930 0.000000 0.500000 1.022593
Zn2   Zn    Zn3+2 0.500000 0.500000 0.549800 1.040362
Zn3   Zn    Zn3+2 0.000000 0.000000 0.950200 1.040362
Zn4   Zn    Zn3+2 0.000000 0.000000 0.049800 1.040362
Zn5   Zn    Zn3+2 0.000000 0.569070 0.500000 1.022593
Zn6   Zn    Zn3+2 0.569070 0.000000 0.500000 1.022593
Zn7   Zn    Zn3+2 0.000000 0.430930 0.500000 1.022593
Zn8   Zn    Zn3+2 0.930930 0.500000 0.000000 1.022593
Zn9   Zn    Zn3+2 0.500000 0.069070 0.000000 1.022593
Zn10  Zn    Zn3+2 0.069070 0.500000 0.000000 1.022593
Zn11  Zn    Zn3+2 0.500000 0.930930 0.000000 1.022593
Zn12  Zn    Zn3+2 0.500000 0.500000 0.450200 1.040362

loop_
_geom_bond_atom_site_label_1
_geom_bond_atom_site_label_2
_ccdc_geom_bond_type
C17   C114  S    
C24   C31   A    
C136  C144  S    
C59   H42   S    
C66   C78   A    
C65   O12   A    
C148  O42   A    
C113  O22   A    
C3    C27   A    
C116  C134  A    
C58   O59   D    
C29   C66   A    
C117  C135  A    
O10   Zn5   S    
C87   O63   A    
C144  O29   A    
C47   O48   D    
C39   C57   A    
O32   Zn2   S    
C91   C104  A    
C115  H9    S    
C1    C97   S    
C56   H40   S    
C120  O3    A    
C91   H3    S    
C109  O6    A    
O56   Zn7   S    
C5    C20   A    
C6    C19   A    
O14   Zn1   S    
C114  O24   A    
C111  O20   A    
C128  H22   S    
C60   O61   D    
C90   C125  A    
C95   C102  A    
C56   O58   D    
C62   C77   A    
O63   Zn5   S    
O43   Zn4   S    
C134  C141  S    
C10   C54   S    
C38   C74   A    
O31   Zn2   S    
C48   O49   D    
C10   C34   A    
C86   C122  A    
C14   C58   S    
C93   H5    S    
C125  C138  A    
C90   C103  A    
C52   H36   S    
C11   C22   A    
C7    C51   S    
C24   C33   A    
O41   Zn4   S    
C147  O43   A    
C123  C136  A    
C23   C107  S    
O8    Zn9   S    
C89   C102  A    
Br9   C63   S    
C41   C57   A    
C147  O37   A    
C110  O17   A    
C6    C50   S    
C39   C75   A    
C131  O4    A    
C42   C61   A    
O28   Zn12  S    
O25   Zn10  S    
C4    C19   A    
C15   C59   S    
O12   Zn5   S    
C86   H46   S    
O17   Zn5   S    
C120  O5    A    
C17   C150  A    
C18   C113  S    
C3    C47   S    
C84   C100  A    
Br16  C71   S    
C146  O36   A    
O34   Zn7   S    
C68   C71   A    
C14   C25   A    
Br2   C72   S    
C125  H19   S    
O9    Zn1   S    
C126  C139  A    
C81   C99   A    
C94   C129  A    
C122  H16   S    
C92   C105  A    
C63   C75   A    
C76   O45   A    
C84   C119  A    
C98   O64   A    
C124  C137  A    
O30   Zn12  S    
C5    C49   S    
C109  O2    A    
C82   C117  A    
C112  O19   A    
C55   H39   S    
C67   C72   A    
C53   O54   D    
C122  C133  A    
C89   H48   S    
C13   C30   A    
Br1   C62   S    
C50   H33   S    
O15   Zn7   S    
C12   C56   S    
Br8   C79   S    
C49   O50   D    
C33   C70   A    
C76   O23   A    
C5    C33   A    
C26   C152  A    
C34   C35   A    
Br4   C74   S    
C94   H6    S    
Br11  C66   S    
C40   C77   A    
C148  O38   A    
O7    Zn10  S    
C44   C151  S    
C7    C31   A    
O33   Zn2   S    
O40   Zn4   S    
Br13  C68   S    
C44   O46   D    
C36   C72   A    
C51   H35   S    
C9    C38   A    
C45   O47   D    
C145  O32   A    
C146  O40   A    
O21   Zn11  S    
C95   C130  A    
C45   H29   S    
C107  O10   A    
C85   C121  A    
C117  H11   S    
O26   Zn9   S    
C28   C150  A    
C58   H41   S    
C12   C23   A    
C43   H27   S    
C8    C37   A    
C12   C41   A    
C106  O9    A    
O6    Zn11  S    
C84   H44   S    
C65   O56   A    
O18   Zn8   S    
C40   C61   A    
C96   C132  A    
C83   C118  A    
O4    Zn11  S    
C35   C37   A    
O35   Zn2   S    
C135  C143  S    
C25   C106  S    
C4    C48   S    
O5    Zn8   S    
C42   C79   A    
O64   Zn8   S    
C145  O30   A    
C9    C22   A    
C83   C101  A    
C49   H32   S    
C29   C151  A    
C93   C128  A    
C81   C116  A    
O1    Zn1   S    
C107  O13   A    
C28   C64   A    
O20   Zn10  S    
C16   C25   A    
Br6   C77   S    
C118  C136  A    
C65   C99   S    
C105  C131  S    
C8    C21   A    
C127  H21   S    
Br14  C69   S    
Br7   C78   S    
C98   C102  S    
C31   C68   A    
C130  H25   S    
C50   O51   D    
C141  O31   A    
C140  C148  S    
C108  O16   A    
C43   C150  S    
C34   C71   A    
Br15  C70   S    
C82   C100  A    
C129  C138  A    
C103  C109  S    
C60   H43   S    
C132  H26   S    
C6    C30   A    
O23   Zn6   S    
C26   C62   A    
C2    C57   A    
C80   H1    S    
C80   C115  A    
C129  H24   S    
C37   C73   A    
C98   O7    A    
C85   H45   S    
C95   H7    S    
C43   O44   D    
O11   Zn6   S    
C17   C152  A    
C133  C145  S    
O45   Zn1   S    
C118  H13   S    
C96   H8    S    
C2    C29   A    
C143  O28   A    
O36   Zn3   S    
O22   Zn8   S    
C11   C36   A    
C44   H28   S    
C59   O60   D    
C21   C110  S    
O27   Zn12  S    
C119  C135  A    
O24   Zn11  S    
C13   C46   A    
C26   C142  A    
C111  O18   A    
C91   C126  A    
C4    C32   A    
C137  C149  S    
C87   O34   A    
C144  O33   A    
C138  C146  S    
O62   Zn6   S    
O19   Zn9   S    
C88   H47   S    
O16   Zn6   S    
C82   H23   S    
C81   H12   S    
C70   C73   A    
C94   C103  A    
C16   C60   S    
C54   O55   D    
C69   C74   A    
C47   H30   S    
O3    Zn10  S    
C121  H15   S    
C64   C79   A    
C54   H38   S    
C24   C35   A    
C38   C46   A    
C88   C101  A    
C53   H37   S    
C76   C100  S    
C88   C123  A    
Br3   C73   S    
C13   C32   A    
C41   C78   A    
C45   C152  S    
C124  H18   S    
C28   C142  A    
C15   C39   A    
C128  C139  A    
Br10  C64   S    
C110  O15   A    
C112  O21   A    
C1    O62   A    
C143  O35   A    
C96   C105  A    
C83   H34   S    
C86   C97   A    
C126  H20   S    
C2    C27   A    
O38   Zn3   S    
C1    O1    A    
C51   O52   D    
C114  O26   A    
O42   Zn4   S    
C127  C140  A    
C130  C137  A    
C113  O25   A    
C11   C55   S    
C92   H4    S    
C85   C99   A    
C106  O11   A    
C14   C42   A    
C61   C142  A    
C55   O57   D    
C149  O41   A    
Br5   C75   S    
C3    C18   A    
Br12  C67   S    
C141  O27   A    
C19   C112  S    
C121  C134  A    
C108  O14   A    
C115  C133  A    
C8    C52   S    
O2    Zn9   S    
C30   C67   A    
C20   C111  S    
O37   Zn3   S    
C52   O53   D    
C9    C53   S    
C10   C21   A    
O13   Zn7   S    
C139  C147  S    
C7    C20   A    
C90   H2    S    
C48   H31   S    
O39   Zn3   S    
C80   C97   A    
C15   C23   A    
C32   C69   A    
C87   C101  S    
C36   C46   A    
C132  C140  A    
C119  H14   S    
C149  O39   A    
C123  H17   S    
O29   Zn12  S    
C27   C63   A    
C104  C120  S    
C16   C40   A    
C92   C127  A    
C22   C108  S    
C131  O8    A    
C18   C151  A    
C93   C104  A    
C116  H10   S    
C89   C124  A    
