data_mof_unit_31455.cif
_audit_creation_date              2013-03-05T15:59:01-0500
_audit_creation_method            fapswitch 2.2
_symmetry_space_group_name_H-M    P1
_symmetry_Int_Tables_number       1
_space_group_crystal_system       triclinic
_cell_length_a                    15.01066
_cell_length_b                    13.881637
_cell_length_c                    19.30952
_cell_angle_alpha                 89.292494
_cell_angle_beta                  87.401659
_cell_angle_gamma                 89.085952
_cell_volume                      4018.65323627

loop_
_atom_site_label
_atom_site_type_symbol
_atom_site_description
_atom_site_fract_x
_atom_site_fract_y
_atom_site_fract_z
_atom_type_partial_charge
O1    O     O_R   0.370260 0.582280 0.500020 -0.559936
O2    O     O_R   0.629740 0.417720 0.499980 -0.559932
O3    O     O_R   0.629740 0.582280 0.499980 -0.612192
O4    O     O_R   0.370260 0.417720 0.500020 -0.612192
C1    C     C_R   0.329333 0.500704 0.500858 0.802620
C2    C     C_R   0.670667 0.499296 0.499142 0.802649
O5    O     O_R   0.499990 0.582300 0.400140 -0.570208
O6    O     O_R   0.500010 0.417700 0.599860 -0.570416
O7    O     O_R   0.500010 0.582300 0.599860 -0.612261
O8    O     O_R   0.499990 0.417700 0.400140 -0.612281
C3    C     C_R   0.499734 0.500418 0.367528 0.784235
C4    C     C_R   0.500263 0.499583 0.632472 0.784184
Cu1   Cu    Cu3+1 0.500000 0.597420 0.500000 0.945919
Cu2   Cu    Cu3+1 0.500000 0.402580 0.500000 0.945845
C5    C     C_R   0.476666 0.584823 0.255018 -0.144267
C6    C     C_R   0.523261 0.415160 0.744988 -0.144400
C7    C     C_R   0.478734 0.583332 0.745255 -0.192320
C8    C     C_R   0.521308 0.416686 0.254742 -0.192350
H1    H     H_    0.458006 0.649735 0.283043 0.204645
H2    H     H_    0.541879 0.350233 0.716967 0.204692
H3    H     H_    0.461767 0.648980 0.717569 0.149149
H4    H     H_    0.538323 0.351051 0.282425 0.149126
C9    C     C_R   0.477125 0.586311 0.182564 0.135021
C10   C     C_R   0.522792 0.413673 0.817442 0.135043
C11   C     C_R   0.478795 0.584592 0.817595 0.156495
C12   C     C_R   0.521237 0.415426 0.182403 0.156499
C13   C     C_R   0.499471 0.500970 0.145706 0.071221
C14   C     C_R   0.500500 0.499032 0.854295 0.071234
C15   C     C_R   0.499431 0.500857 0.291373 -0.113147
C16   C     C_R   0.500558 0.499143 0.708628 -0.113213
N1    N     N_R   0.577645 0.491600 0.031971 -0.215571
N2    N     N_R   0.422325 0.508405 0.968029 -0.215571
N3    N     N_R   0.577867 0.490764 0.963084 -0.215050
N4    N     N_R   0.422102 0.509240 0.036916 -0.215060
C17   C     C_R   0.500203 0.499077 0.930122 0.385605
C18   C     C_R   0.499767 0.500927 0.069879 0.385613
C19   C     C_R   0.816943 0.505961 0.433357 0.121611
C20   C     C_R   0.183056 0.494019 0.566640 0.121636
C21   C     C_R   0.767064 0.497446 0.496519 -0.007558
C22   C     C_R   0.232935 0.502549 0.503480 -0.007508
C23   C     C_R   0.808217 0.487792 0.559252 -0.269770
C24   C     C_R   0.191783 0.512179 0.440745 -0.269773
C25   C     C_R   0.901124 0.485902 0.561928 0.028913
C26   C     C_R   0.098877 0.514041 0.438066 0.028914
C27   C     C_R   0.953043 0.498508 0.499246 0.034235
C28   C     C_R   0.046957 0.501436 0.500749 0.034228
C29   C     C_R   0.911052 0.508236 0.434980 0.073070
C30   C     C_R   0.088949 0.491710 0.565015 0.073051
C31   C     C_R   0.943285 0.474260 0.625714 -0.015364
C32   C     C_R   0.056717 0.525646 0.374278 -0.015361
C33   C     C_R   0.036121 0.478641 0.626264 -0.182639
C34   C     C_R   0.963881 0.521268 0.373728 -0.182643
H5    H     H_    0.765687 0.483790 0.605836 0.119894
H6    H     H_    0.234315 0.516184 0.394162 0.119884
H7    H     H_    0.066866 0.469173 0.675487 0.199932
H8    H     H_    0.933138 0.530706 0.324502 0.199925
C35   C     C_R   0.441156 0.793865 0.543367 0.113179
C36   C     C_R   0.558836 0.206137 0.456624 0.113193
C37   C     C_R   0.557620 0.793398 0.455602 0.127820
C38   C     C_R   0.442398 0.206596 0.544409 0.127834
N5    N     N_R   0.500000 0.743810 0.500000 -0.251384
N6    N     N_R   0.500000 0.256190 0.500000 -0.251419
C39   C     C_R   0.562442 0.896437 0.457148 -0.040926
C40   C     C_R   0.437558 0.103561 0.542842 -0.040766
C41   C     C_R   0.443188 0.896863 0.547277 -0.039948
C42   C     C_R   0.556801 0.103139 0.452711 -0.039924
C43   C     C_R   0.500861 0.948287 0.500665 -0.021458
C44   C     C_R   0.499133 0.051712 0.499322 -0.021528
C45   C     C_R   0.625369 0.949725 0.415252 0.185813
C46   C     C_R   0.374618 0.050280 0.584725 0.185927
C47   C     C_R   0.387757 0.950480 0.595162 0.188539
C48   C     C_R   0.612222 0.049526 0.404818 0.188652
C49   C     C_3   0.454864 0.680862 0.147416 -0.805836
H9    H     H_    0.462452 0.678486 0.090140 0.238190
H10   H     H_    0.384940 0.702237 0.161842 0.238941
H11   H     H_    0.499926 0.737448 0.164971 0.249061
C50   C     C_3   0.544985 0.319107 0.852596 -0.805781
H12   H     H_    0.537412 0.321497 0.909872 0.238164
H13   H     H_    0.499873 0.262560 0.835051 0.249091
H14   H     H_    0.614891 0.297665 0.838164 0.238941
C51   C     C_3   0.456942 0.679271 0.852645 -0.830407
H15   H     H_    0.464268 0.676845 0.909454 0.243996
H16   H     H_    0.502409 0.735583 0.831060 0.232979
H17   H     H_    0.387202 0.701169 0.842562 0.239665
C52   C     C_3   0.543148 0.320762 0.147350 -0.830387
H18   H     H_    0.535783 0.323174 0.090545 0.243997
H19   H     H_    0.612912 0.298935 0.157408 0.239689
H20   H     H_    0.497740 0.264409 0.168953 0.232959
C53   C     C_3   0.770546 0.512536 0.365024 -0.867246
H21   H     H_    0.794763 0.453202 0.330660 0.249123
H22   H     H_    0.697148 0.506078 0.370558 0.213394
H23   H     H_    0.784578 0.583057 0.339395 0.233312
C54   C     C_3   0.229452 0.487461 0.634973 -0.867274
H24   H     H_    0.205175 0.546755 0.669356 0.249133
H25   H     H_    0.215482 0.416912 0.660581 0.233290
H26   H     H_    0.302842 0.494011 0.629444 0.213362
C55   C     C_2   0.893051 0.454224 0.692603 0.381124
H27   H     H_    0.827621 0.422393 0.693932 0.070233
O9    O     O_2   0.925437 0.471533 0.747924 -0.521745
C56   C     C_2   0.106951 0.545635 0.307381 0.381122
H28   H     H_    0.172373 0.577488 0.306040 0.070210
O10   O     O_2   0.074577 0.528257 0.252069 -0.521740
C57   C     C_2   0.365089 0.741629 0.575795 0.454842
H29   H     H_    0.374457 0.688965 0.616571 0.061524
O11   O     O_2   0.289812 0.757831 0.556659 -0.542083
C58   C     C_2   0.634907 0.258370 0.424199 0.454825
H30   H     H_    0.625544 0.311048 0.383432 0.061544
O12   O     O_2   0.710185 0.242149 0.443330 -0.542078
C59   C     C_2   0.602182 0.740700 0.397655 0.433459
H31   H     H_    0.655996 0.690032 0.406243 0.085224
O13   O     O_2   0.579962 0.756142 0.338453 -0.574610
C60   C     C_2   0.397896 0.259268 0.602397 0.433157
H32   H     H_    0.344206 0.310102 0.593844 0.085448
O14   O     O_2   0.420050 0.243643 0.661596 -0.574658
C61   C     C_3   0.713575 0.906121 0.388562 -0.827716
H33   H     H_    0.766935 0.960723 0.387343 0.247014
H34   H     H_    0.736721 0.848229 0.423932 0.206807
H35   H     H_    0.708244 0.878659 0.335230 0.260073
C62   C     C_3   0.286400 0.093890 0.611386 -0.827529
H36   H     H_    0.233023 0.039311 0.612513 0.246960
H37   H     H_    0.291675 0.121260 0.664748 0.260099
H38   H     H_    0.263320 0.151858 0.576050 0.206792
C63   C     C_3   0.351249 0.907081 0.663016 -0.840665
H39   H     H_    0.348597 0.961684 0.704658 0.246263
H40   H     H_    0.282789 0.880145 0.657488 0.261701
H41   H     H_    0.395916 0.848738 0.681669 0.199566
C64   C     C_3   0.648698 0.092932 0.336957 -0.840769
H42   H     H_    0.651337 0.038331 0.295314 0.246270
H43   H     H_    0.604018 0.151273 0.318318 0.199578
H44   H     H_    0.717158 0.119877 0.342467 0.261690

loop_
_geom_bond_atom_site_label_1
_geom_bond_atom_site_label_2
_geom_bond_distance
_ccdc_geom_bond_type
C36   N6    1.375497 A    
C42   C44   1.415013 A    
C52   H19   1.110418 S    
C54   H24   1.110430 S    
C49   H10   1.110359 S    
C49   H9    1.107525 S    
C8    C12   1.397211 A    
O3    C2    1.296788 A    
C60   O14   1.220798 D    
C55   H27   1.082498 S    
C63   H39   1.110785 S    
C21   C23   1.388561 A    
C52   H18   1.107455 S    
C11   C14   1.416624 A    
O5    C3    1.306370 A    
C12   C13   1.416627 A    
O1    C1    1.296490 A    
C40   C44   1.414849 A    
C47   C63   1.518511 S    
C59   O13   1.220763 D    
C63   H40   1.109238 S    
C41   C43   1.415039 A    
C58   H30   1.080143 S    
C6    C16   1.398930 A    
C61   H33   1.110775 S    
Cu2   N6    2.032133 S    
C38   N6    1.376265 A    
C27   C29   1.421114 A    
O7    Cu1   1.937066 S    
C51   H16   1.110750 S    
C36   C42   1.433591 A    
C30   C33   1.405251 A    
C42   C48   1.424322 A    
C39   C45   1.425523 A    
C14   C17   1.463986 S    
C61   H34   1.109980 S    
C32   C34   1.396346 A    
N1    N3    1.330217 A    
C46   C47   1.409535 A    
C40   C46   1.425471 A    
C19   C29   1.415261 A    
N1    C18   1.356115 A    
C20   C30   1.415264 A    
O3    Cu1   1.955437 S    
O6    C4    1.306373 A    
C5    C9    1.398652 A    
C54   H25   1.110306 S    
Cu1   Cu2   2.704697 S    
C11   C51   1.510345 S    
C7    C16   1.400185 A    
C23   C25   1.397704 A    
O2    C2    1.296484 A    
C24   C26   1.397706 A    
C9    C49   1.509815 S    
C60   H32   1.079718 S    
C55   O9    1.221590 D    
C26   C28   1.420063 A    
C5    C15   1.398924 A    
C39   C43   1.414877 A    
C50   H13   1.110775 S    
C35   C57   1.473772 S    
C28   C30   1.421111 A    
C37   N5    1.376259 A    
C48   C64   1.518516 S    
C43   C44   1.435453 A    
N2    C17   1.356112 A    
O8    Cu2   1.937067 S    
C25   C31   1.416381 A    
C63   H41   1.110217 S    
C33   H7    1.080932 S    
C31   C33   1.396351 A    
C50   H12   1.107522 S    
C51   H15   1.107450 S    
C37   C59   1.473539 S    
C36   C58   1.473777 S    
N2    N4    1.330219 A    
C45   C48   1.409553 A    
C5    H1    1.083276 S    
C64   H43   1.110220 S    
C38   C60   1.473581 S    
C46   C62   1.518335 S    
C6    H2    1.083276 S    
C61   H35   1.109224 S    
C56   O10   1.221573 D    
C57   O11   1.221327 D    
C8    C15   1.400176 A    
C53   H23   1.110306 S    
C25   C27   1.420058 A    
C23   H5    1.080557 S    
C62   H37   1.109227 S    
C54   H26   1.107041 S    
C9    C13   1.417394 A    
C49   H11   1.110761 S    
O1    Cu1   1.962103 S    
C64   H42   1.110789 S    
C51   H17   1.110426 S    
C52   H20   1.110738 S    
C26   C32   1.416376 A    
C45   C61   1.518335 S    
O6    Cu2   1.942220 S    
C4    C16   1.470678 S    
C8    H4    1.083526 S    
C62   H38   1.109983 S    
C10   C14   1.417389 A    
C35   C41   1.433583 A    
O4    C1    1.296785 A    
C62   H36   1.110784 S    
C35   N5    1.375488 A    
C29   C34   1.405242 A    
C13   C18   1.464000 S    
C37   C39   1.434080 A    
C19   C53   1.520768 S    
C38   C40   1.434054 A    
C7    C11   1.397208 A    
C64   H44   1.109239 S    
C19   C21   1.406590 A    
C41   C47   1.424349 A    
C59   H31   1.079750 S    
C24   H6    1.080557 S    
C20   C22   1.406590 A    
C50   H14   1.110365 S    
C58   O12   1.221342 D    
C12   C52   1.510340 S    
C20   C54   1.520745 S    
C22   C24   1.388555 A    
C56   H28   1.082505 S    
N3    C17   1.355981 A    
N4    C18   1.355985 A    
O4    Cu2   1.955438 S    
O2    Cu2   1.962103 S    
O7    C4    1.302798 A    
C7    H3    1.083535 S    
C32   C56   1.491199 S    
O8    C3    1.302797 A    
C31   C55   1.491209 S    
C27   C28   1.412572 A    
C10   C50   1.509820 S    
O5    Cu1   1.942220 S    
Cu1   N5    2.032133 S    
C3    C15   1.470668 S    
C6    C10   1.398648 A    
C53   H22   1.107036 S    
C1    C22   1.445409 S    
C57   H29   1.080150 S    
C2    C21   1.445404 S    
C53   H21   1.110384 S    
C34   H8    1.080929 S    
