data_mof_unit_22801.cif
_audit_creation_date              2012-12-10T19:49:20-0500
_audit_creation_method            fapswitch 2.2
_symmetry_space_group_name_H-M    P1
_symmetry_Int_Tables_number       1
_space_group_crystal_system       triclinic
_cell_length_a                    14.969497
_cell_length_b                    14.220623
_cell_length_c                    14.817842
_cell_angle_alpha                 89.757846
_cell_angle_beta                  90.250297
_cell_angle_gamma                 90.042776
_cell_volume                      3154.29750484

loop_
_atom_site_label
_atom_site_type_symbol
_atom_type_description
_atom_site_fract_x
_atom_site_fract_y
_atom_site_fract_z
_atom_type_partial_charge
C1    C     C_R   0.327772 0.499976 0.498694 0.836187
C2    C     C_R   0.672135 0.500039 0.499566 0.831985
C3    C     C_R   0.336580 0.523112 0.045753 0.367323
C4    C     C_R   0.665241 0.500401 0.954152 0.367322
C5    C     C_R   0.095202 0.579923 0.456010 -0.193616
C6    C     C_R   0.903622 0.424871 0.449317 -0.178715
C7    C     C_R   0.907590 0.577830 0.522421 -0.194497
C8    C     C_R   0.092502 0.418916 0.512305 -0.173260
C9    C     C_R   0.187285 0.580126 0.461471 -0.194286
C10   C     C_R   0.811713 0.423898 0.455810 -0.218210
C11   C     C_R   0.815573 0.577463 0.527788 -0.184743
C12   C     C_R   0.184531 0.418866 0.517266 -0.208665
C13   C     C_R   0.231889 0.499833 0.492896 -0.034821
C14   C     C_R   0.767827 0.500187 0.495041 -0.025139
C15   C     C_R   0.047852 0.499661 0.482334 0.118861
C16   C     C_R   0.951561 0.501454 0.483308 0.114416
C17   C     C_R   0.469064 0.104973 0.425582 -0.361241
C18   C     C_R   0.557837 0.894183 0.556581 -0.390810
C19   C     C_R   0.530716 0.104682 0.575144 -0.361806
C20   C     C_R   0.441470 0.894702 0.444626 -0.393002
C21   C     C_R   0.466560 0.203975 0.427516 0.531814
C22   C     C_R   0.554686 0.794739 0.558347 0.544843
C23   C     C_R   0.533374 0.203737 0.572714 0.532758
C24   C     C_R   0.445373 0.795354 0.441875 0.543339
C25   C     C_R   0.499777 0.052943 0.500510 0.070034
C26   C     C_R   0.499577 0.946274 0.500722 0.089697
C27   C     C_R   0.498856 0.500145 0.327123 0.857468
C28   C     C_R   0.500582 0.499809 0.672864 0.860573
C29   C     C_R   0.581339 0.494309 0.813529 -0.201260
C30   C     C_R   0.418440 0.510184 0.186359 -0.196884
C31   C     C_R   0.500572 0.500223 0.768058 -0.062600
C32   C     C_R   0.498916 0.501061 0.231899 -0.066779
C33   C     C_R   0.420292 0.513549 0.812025 -0.200530
C34   C     C_R   0.580090 0.497882 0.187782 -0.190076
C35   C     C_R   0.419268 0.522034 0.905245 -0.017346
C36   C     C_R   0.582726 0.507211 0.094546 -0.031613
C37   C     C_R   0.501399 0.516285 0.952959 -0.065594
C38   C     C_R   0.500897 0.515830 0.046720 -0.072670
C39   C     C_R   0.583400 0.504524 0.906657 -0.026781
C40   C     C_R   0.418111 0.516940 0.092950 -0.004355
C41   C     C_R   0.337436 0.531243 0.951418 0.356165
C42   C     C_R   0.665116 0.504326 0.048442 0.374939
H1    H     H_    0.641920 0.482824 0.775320 0.149369
H2    H     H_    0.356764 0.512624 0.224432 0.155210
H3    H     H_    0.359025 0.515479 0.772738 0.161338
H4    H     H_    0.640568 0.488425 0.227150 0.156316
H5    H     H_    0.060882 0.642289 0.431996 0.130553
H6    H     H_    0.937346 0.366037 0.418157 0.134650
H7    H     H_    0.944472 0.636611 0.550253 0.139133
H8    H     H_    0.056131 0.357000 0.534052 0.133285
H9    H     H_    0.223416 0.642614 0.440844 0.185661
H10   H     H_    0.774988 0.364411 0.429155 0.153784
H11   H     H_    0.781935 0.636517 0.558693 0.176538
H12   H     H_    0.218381 0.356423 0.541778 0.151999
H13   H     H_    0.447195 0.069966 0.364771 0.164364
H14   H     H_    0.606469 0.929566 0.598434 0.157083
H15   H     H_    0.552457 0.069385 0.636115 0.163929
H16   H     H_    0.392872 0.930349 0.402655 0.158474
N1    N     N_R   0.500000 0.252470 0.500000 -0.182377
N2    N     N_R   0.500000 0.747530 0.500000 -0.161034
O1    O     O_R   0.369060 0.579480 0.500010 -0.584682
O2    O     O_R   0.630940 0.420520 0.499990 -0.649377
O3    O     O_R   0.630940 0.579480 0.499990 -0.580556
O4    O     O_R   0.369060 0.420520 0.500010 -0.648578
O5    O     O_R   0.499980 0.579490 0.367850 -0.612618
O6    O     O_R   0.500020 0.420510 0.632150 -0.561179
O7    O     O_R   0.500020 0.579490 0.632150 -0.615026
O8    O     O_R   0.499980 0.420510 0.367850 -0.563912
Zn1   Zn    Zn3+2 0.500000 0.606140 0.500000 1.000816
Zn2   Zn    Zn3+2 0.500000 0.393860 0.500000 0.984774
O9    O     O_3   0.257227 0.535780 0.904706 -0.619039
C43   C     C_3   0.243671 0.629250 0.874307 0.029419
H17   H     H_    0.299516 0.653981 0.830858 0.140026
H18   H     H_    0.238094 0.678254 0.932372 0.116966
C44   C     C_3   0.157290 0.633359 0.819157 -0.301189
H19   H     H_    0.161973 0.583910 0.761441 0.231994
H20   H     H_    0.100346 0.611340 0.862280 0.226515
C45   C     C_3   0.139953 0.732325 0.782907 -0.976199
H21   H     H_    0.132444 0.782547 0.839578 0.264864
H22   H     H_    0.077543 0.732800 0.742185 0.269868
H23   H     H_    0.195950 0.755442 0.739124 0.268999
O10   O     O_3   0.745101 0.492210 0.094645 -0.602340
C46   C     C_3   0.772319 0.578409 0.133818 0.044153
H24   H     H_    0.715225 0.622096 0.157570 0.124977
H25   H     H_    0.810091 0.620486 0.083548 0.134332
C47   C     C_3   0.833642 0.557536 0.214377 -0.295378
H26   H     H_    0.801505 0.504972 0.259497 0.228976
H27   H     H_    0.897505 0.527322 0.189816 0.229582
C48   C     C_3   0.853208 0.646095 0.268809 -0.966530
H28   H     H_    0.883581 0.700974 0.225090 0.263702
H29   H     H_    0.900431 0.629047 0.324435 0.274131
H30   H     H_    0.790654 0.673823 0.298706 0.269925
O11   O     O_3   0.257427 0.504579 0.090922 -0.618089
C49   C     C_3   0.205407 0.586864 0.098995 0.093384
H31   H     H_    0.157078 0.589933 0.041973 0.188820
H32   H     H_    0.246220 0.652467 0.099683 0.110577
C50   C     C_3   0.152808 0.581754 0.187067 -0.330355
H33   H     H_    0.115167 0.514393 0.190232 0.240516
H34   H     H_    0.199950 0.583793 0.245190 0.212249
C51   C     C_3   0.086968 0.663170 0.194466 -0.993313
H35   H     H_    0.121942 0.731682 0.187718 0.265644
H36   H     H_    0.053968 0.660543 0.261276 0.273287
H37   H     H_    0.035043 0.657806 0.140944 0.269587
O12   O     O_3   0.743762 0.477320 0.910408 -0.605102
C52   C     C_3   0.783506 0.559265 0.874265 0.062654
H38   H     H_    0.808928 0.604782 0.929417 0.139912
H39   H     H_    0.735606 0.600567 0.832294 0.127644
C53   C     C_3   0.861840 0.529722 0.814898 -0.286932
H40   H     H_    0.911180 0.490160 0.856513 0.236102
H41   H     H_    0.837153 0.482631 0.760485 0.217253
C54   C     C_3   0.908139 0.614231 0.772012 -0.999073
H42   H     H_    0.861862 0.651143 0.725221 0.261528
H43   H     H_    0.966700 0.589853 0.732790 0.273741
H44   H     H_    0.931478 0.663822 0.824824 0.269142
O13   O     O_3   0.434030 0.251668 0.353111 -0.615538
C55   C     C_3   0.340912 0.266261 0.362094 0.150929
H45   H     H_    0.327004 0.340809 0.344198 0.174840
H46   H     H_    0.314834 0.254875 0.431909 0.110961
C56   C     C_3   0.289753 0.203633 0.296027 -0.391222
H47   H     H_    0.315720 0.214959 0.226649 0.250823
H48   H     H_    0.299703 0.128610 0.314642 0.209239
C57   C     C_3   0.189970 0.225723 0.297113 -0.931813
H49   H     H_    0.162339 0.214015 0.365722 0.257245
H50   H     H_    0.154452 0.178969 0.249022 0.270191
H51   H     H_    0.178137 0.299954 0.276626 0.272745
O14   O     O_3   0.611827 0.743783 0.613619 -0.623452
C58   C     C_3   0.596679 0.764102 0.705979 0.082084
H52   H     H_    0.579138 0.697263 0.740588 0.176464
H53   H     H_    0.540326 0.813705 0.718844 0.114876
C59   C     C_3   0.682336 0.802273 0.748832 -0.366182
H54   H     H_    0.737798 0.752348 0.736490 0.224671
H55   H     H_    0.700050 0.870785 0.717421 0.216296
C60   C     C_3   0.671686 0.815536 0.850391 -0.980099
H56   H     H_    0.618310 0.867671 0.864252 0.271417
H57   H     H_    0.735407 0.841652 0.879635 0.268355
H58   H     H_    0.654461 0.747707 0.883523 0.249015
O15   O     O_3   0.565376 0.251307 0.647061 -0.614762
C61   C     C_3   0.658770 0.264955 0.639363 0.146798
H59   H     H_    0.673101 0.339563 0.656115 0.170403
H60   H     H_    0.685925 0.252666 0.570193 0.112912
C62   C     C_3   0.708082 0.202617 0.707549 -0.389453
H61   H     H_    0.680659 0.214684 0.776133 0.252707
H62   H     H_    0.698042 0.127499 0.689911 0.208297
C63   C     C_3   0.808008 0.224089 0.708465 -0.927801
H63   H     H_    0.837086 0.211844 0.640672 0.257833
H64   H     H_    0.842105 0.177374 0.757956 0.271214
H65   H     H_    0.819882 0.298323 0.728318 0.267724
O16   O     O_3   0.390206 0.744970 0.384539 -0.625178
C64   C     C_3   0.407049 0.768619 0.293038 0.080390
H66   H     H_    0.429152 0.704048 0.257791 0.175451
H67   H     H_    0.461002 0.821883 0.282582 0.119106
C65   C     C_3   0.320785 0.802841 0.248473 -0.365697
H68   H     H_    0.269917 0.746246 0.252795 0.230881
H69   H     H_    0.295063 0.865298 0.284848 0.220356
C66   C     C_3   0.335754 0.828887 0.149647 -0.987275
H70   H     H_    0.381980 0.889800 0.144584 0.273463
H71   H     H_    0.271023 0.848348 0.117844 0.264955
H72   H     H_    0.364593 0.768544 0.112377 0.252537

loop_
_geom_bond_atom_site_label_1
_geom_bond_atom_site_label_2
_ccdc_geom_bond_type
C38   C40   A    
O14   C58   S    
C66   H71   S    
C33   H3    S    
C36   C42   A    
C54   H42   S    
C42   O10   S    
C21   O13   S    
C10   H10   S    
C50   H33   S    
C19   H15   S    
C23   N1    A    
C52   H39   S    
O11   C49   S    
C6    H6    S    
C35   C37   A    
C21   N1    A    
C62   H62   S    
C22   N2    A    
C11   C14   A    
C47   H27   S    
C22   O14   S    
C15   C16   S    
C53   H40   S    
O2    Zn2   S    
C9    C13   A    
C28   O6    A    
C27   O8    A    
C20   C24   A    
C55   H46   S    
C18   C26   A    
C60   H58   S    
C31   C33   A    
C34   H4    S    
O4    Zn2   S    
C48   H29   S    
C17   H13   S    
C34   C36   A    
C11   H11   S    
C18   H14   S    
C41   O9    S    
C29   H1    S    
C66   H72   S    
C30   H2    S    
C63   H65   S    
C2    C14   S    
O12   C52   S    
C50   H34   S    
C7    C11   A    
C56   H48   S    
C52   C53   S    
O3    Zn1   S    
C28   O7    A    
O16   C64   S    
C7    H7    S    
C43   H18   S    
C10   C14   A    
C64   C65   S    
C45   H21   S    
C63   H63   S    
C49   C50   S    
C25   C26   S    
C3    O11   S    
C51   H37   S    
C17   C21   A    
C47   C48   S    
O7    Zn1   S    
C32   C34   A    
C59   H55   S    
C44   H19   S    
C58   H53   S    
C5    C9    A    
C37   C38   A    
C27   O5    A    
C5    H5    S    
C46   H24   S    
C65   C66   S    
C8    C12   A    
C29   C39   A    
C51   H36   S    
C30   C40   A    
C54   H43   S    
C12   C13   A    
C48   H30   S    
C49   H32   S    
C44   H20   S    
C35   C41   A    
C61   H60   S    
C63   H64   S    
C7    C16   A    
C46   H25   S    
C65   H69   S    
C3    C40   A    
C8    C15   A    
C24   O16   S    
C60   H56   S    
C62   C63   S    
C59   C60   S    
C1    C13   S    
C20   H16   S    
C58   H52   S    
C1    O4    A    
C8    H8    S    
C50   C51   S    
C2    O3    A    
C19   C23   A    
C47   H26   S    
C52   H38   S    
C56   C57   S    
O1    Zn1   S    
C3    C41   A    
C27   C32   S    
C18   C22   A    
C23   O15   S    
C28   C31   S    
C43   H17   S    
C20   C26   A    
C61   C62   S    
C1    O1    A    
C6    C10   A    
C56   H47   S    
C55   C56   S    
O15   C61   S    
C4    C39   A    
C53   C54   S    
C17   C25   A    
C9    H9    S    
C57   H51   S    
C64   H67   S    
C59   H54   S    
C48   H28   S    
C58   C59   S    
O9    C43   S    
C29   C31   A    
C62   H61   S    
C30   C32   A    
C45   H23   S    
C43   C44   S    
O13   C55   S    
O6    Zn2   S    
C4    C42   A    
N2    Zn1   S    
O5    Zn1   S    
C4    O12   S    
C36   C38   A    
C51   H35   S    
C33   C35   A    
C53   H41   S    
C55   H45   S    
C54   H44   S    
C45   H22   S    
C49   H31   S    
C19   C25   A    
C44   C45   S    
C5    C15   A    
C61   H59   S    
N1    Zn2   S    
C6    C16   A    
C46   C47   S    
C65   H68   S    
C37   C39   A    
O10   C46   S    
C66   H70   S    
C60   H57   S    
O8    Zn2   S    
C24   N2    A    
C57   H49   S    
C64   H66   S    
C57   H50   S    
C12   H12   S    
C2    O2    A    
