data_mof_unit_24201.cif
_audit_creation_date              2012-10-26T18:47:56-0400
_audit_creation_method            fapswitch 2.2
_symmetry_space_group_name_H-M    P1
_symmetry_Int_Tables_number       1
_space_group_crystal_system       triclinic
_cell_length_a                    15.886142
_cell_length_b                    8.718234
_cell_length_c                    7.591682
_cell_angle_alpha                 103.129529
_cell_angle_beta                  95.878809
_cell_angle_gamma                 94.17165
_cell_volume                      1013.55536537

loop_
_atom_site_label
_atom_site_type_symbol
_atom_type_description
_atom_site_fract_x
_atom_site_fract_y
_atom_site_fract_z
_atom_type_partial_charge
C1    C     C_R   0.498236 0.200315 0.453850 0.551326
C2    C     C_2   0.517896 0.969836 0.574336 0.200221
C3    C     C_R   0.340534 0.498286 0.499108 0.516105
C4    C     C_R   0.506554 0.800066 0.547161 0.525391
C5    C     C_R   0.659384 0.501262 0.500691 0.537500
C6    C     C_3   0.056296 0.446120 0.670382 0.052545
C7    C     C_3   0.031655 0.348002 0.321676 0.009993
C8    C     C_3   0.931496 0.355141 0.331206 0.318655
C9    C     C_1   0.748917 0.500950 0.502608 0.032230
C10   C     C_3   0.081748 0.478125 0.487165 0.003482
C11   C     C_3   0.351068 0.273825 0.997166 -0.243215
C12   C     C_3   0.958337 0.459992 0.683478 0.406105
C13   C     C_3   0.117639 0.281713 0.872549 -0.341482
C14   C     C_3   0.142998 0.152428 0.289332 -0.308228
C15   C     C_3   0.833383 0.103555 0.202154 -0.223149
C16   C     C_3   0.136545 0.817613 0.751528 -0.266466
C17   C     C_3   0.916357 0.493418 0.499740 0.184634
C18   C     C_3   0.957844 0.659082 0.480559 0.411511
C19   C     C_3   0.054086 0.642999 0.459195 0.047432
C20   C     C_1   0.824297 0.499111 0.503553 0.147662
C21   C     C_1   0.174549 0.483858 0.489191 -0.021594
C22   C     C_1   0.250570 0.491531 0.494966 -0.050343
C23   C     C_2   0.495694 0.032066 0.432043 -0.096660
Cu1   Cu    Cu3+1 0.509300 0.517380 0.684380 1.007106
Cu2   Cu    Cu3+1 0.490700 0.482620 0.315620 0.979118
H1    H     H_    0.092745 0.538941 0.780250 0.120445
H2    H     H_    0.409658 0.330677 0.799718 0.297940
H3    H     H_    0.316387 0.171433 0.894205 0.072792
H4    H     H_    0.308723 0.370585 0.019678 0.135230
H5    H     H_    0.364731 0.230434 0.121022 0.188459
H6    H     H_    0.046518 0.192925 0.620199 0.315577
H7    H     H_    0.172396 0.210919 0.857937 0.142036
H8    H     H_    0.069304 0.218414 0.932704 0.154006
H9    H     H_    0.140535 0.398624 0.965048 0.121144
H10   H     H_    0.016259 0.106610 0.198177 0.262631
H11   H     H_    0.145501 0.025134 0.224924 0.115985
H12   H     H_    0.472343 0.958245 0.297642 0.081174
H13   H     H_    0.178544 0.174656 0.427580 0.187074
H14   H     H_    0.174191 0.223380 0.205778 0.127779
H15   H     H_    0.923799 0.141708 0.430627 0.285834
H16   H     H_    0.808432 0.996044 0.242895 0.138079
H17   H     H_    0.867574 0.066575 0.081337 0.168450
H18   H     H_    0.778297 0.166953 0.166651 0.208691
H19   H     H_    0.928771 0.460600 0.126014 0.341190
H20   H     H_    0.158796 0.813920 0.485972 0.232566
H21   H     H_    0.163942 0.942286 0.799775 0.123684
H22   H     H_    0.187390 0.743433 0.782065 0.117096
H23   H     H_    0.561665 0.634175 0.051173 0.216288
H24   H     H_    0.082392 0.801811 0.828603 0.210957
H25   H     H_    0.889081 0.801979 0.629950 0.346731
H26   H     H_    0.047932 0.382792 0.196962 0.085239
H27   H     H_    0.059214 0.639190 0.312796 0.083696
H28   H     H_    0.938687 0.310054 0.835470 0.350220
H29   H     H_    0.985765 0.580588 0.938370 0.293194
H30   H     H_    0.943116 0.806593 0.323082 0.342669
H31   H     H_    0.572755 0.999200 0.825225 0.336933
N1    N     N_2   0.476670 0.456430 0.038530 -0.029532
N2    N     N_2   0.523330 0.543570 0.961470 -0.212159
N3    N     N_2   0.427239 0.324938 0.928881 -0.323940
N4    N     N_2   0.082582 0.294127 0.693863 -0.505089
N5    N     N_2   0.055317 0.185377 0.301289 -0.521602
N6    N     N_2   0.890338 0.204166 0.352231 -0.447866
N7    N     N_2   0.110398 0.784594 0.556983 -0.475399
O1    O     O_R   0.506050 0.286130 0.619770 -0.439256
O2    O     O_3   0.946673 0.586067 0.830071 -0.662027
O3    O     O_3   0.917053 0.700185 0.325981 -0.727391
O4    O     O_3   0.552741 0.065249 0.742247 -0.653532
O5    O     O_3   0.891397 0.385683 0.169150 -0.673331
O6    O     O_3   0.949749 0.780916 0.634100 -0.646953
O7    O     O_R   0.490330 0.256780 0.308370 -0.510387
O8    O     O_R   0.387300 0.514690 0.655770 -0.528841
O9    O     O_R   0.371580 0.485340 0.344370 -0.522736
O10   O     O_R   0.509670 0.743220 0.691630 -0.515545
O11   O     O_R   0.493950 0.713870 0.380230 -0.537316
O12   O     O_R   0.628420 0.514660 0.655630 -0.478003
O13   O     O_R   0.612700 0.485310 0.344230 -0.490785
O14   O     O_3   0.916857 0.320908 0.712444 -0.681979

loop_
_geom_bond_atom_site_label_1
_geom_bond_atom_site_label_2
_ccdc_geom_bond_type
C12   C17   S    
C6    C10   S    
C7    C10   S    
C3    O8    A    
C1    O1    A    
Cu1   O12   S    
H23   N2    S    
C16   N7    S    
C5    O12   A    
C14   H13   S    
H31   O4    S    
C12   O2    S    
C13   H7    S    
C2    C4    S    
C1    O7    A    
C18   O6    S    
C10   C19   S    
Cu2   O13   S    
C12   O14   S    
H30   O3    S    
C5    O13   A    
C17   C18   S    
C4    O10   A    
C15   H18   S    
C7    C8    S    
Cu1   O1    S    
Cu2   O9    S    
H2    N3    S    
C21   C22   T    
C16   H24   S    
C13   H8    S    
C15   H16   S    
N1    N2    D    
C6    H1    S    
Cu2   N1    S    
C11   H3    S    
H10   N5    S    
C11   N3    S    
C16   H22   S    
H25   O6    S    
H20   N7    S    
C8    O5    S    
C1    C23   S    
C8    N6    S    
C10   C21   S    
C14   H11   S    
H28   O14   S    
Cu2   O11   S    
Cu1   O10   S    
H19   O5    S    
N1    N3    S    
Cu1   O8    S    
C7    H26   S    
C15   H17   S    
C6    C12   S    
C6    N4    S    
C13   H9    S    
C17   C20   S    
H15   N6    S    
Cu1   Cu2   S    
C11   H4    S    
Cu1   N2    S    
C18   C19   S    
C16   H21   S    
C2    C23   D    
H29   O2    S    
C18   O3    S    
C7    N5    S    
C3    C22   S    
C19   N7    S    
Cu2   O7    S    
C9    C20   T    
H6    N4    S    
C14   H14   S    
C23   H12   S    
C14   N5    S    
C4    O11   A    
C19   H27   S    
C15   N6    S    
C13   N4    S    
C8    C17   S    
C11   H5    S    
C5    C9    S    
C2    O4    S    
C3    O9    A    
