data_mof_unit_58350.cif
_audit_creation_date              2012-12-11T14:24:49-0500
_audit_creation_method            fapswitch 2.2
_symmetry_space_group_name_H-M    P1
_symmetry_Int_Tables_number       1
_space_group_crystal_system       triclinic
_cell_length_a                    19.421096
_cell_length_b                    11.372543
_cell_length_c                    18.744142
_cell_angle_alpha                 90.003744
_cell_angle_beta                  91.15742
_cell_angle_gamma                 90.845875
_cell_volume                      4138.6710749

loop_
_atom_site_label
_atom_site_type_symbol
_atom_type_description
_atom_site_fract_x
_atom_site_fract_y
_atom_site_fract_z
_atom_type_partial_charge
C1    C     C_R   0.712418 0.331619 0.139089 0.580604
C2    C     C_R   0.221686 0.837194 0.059224 -0.016587
C3    C     C_R   0.691369 0.598140 0.411958 -0.072433
C4    C     C_R   0.955451 0.958551 0.497842 -0.128236
C5    C     C_R   0.130656 0.153084 0.431309 -0.135577
C6    C     C_R   0.455020 0.465672 0.499296 -0.125970
C7    C     C_R   0.633264 0.658342 0.431870 -0.142988
C8    C     C_R   0.945901 0.949903 0.424476 -0.119599
C9    C     C_R   0.103466 0.133112 0.498398 -0.155297
C10   C     C_R   0.446032 0.457408 0.425864 -0.122765
C11   C     C_R   0.605627 0.638164 0.498729 -0.159349
C12   C     C_R   0.883538 0.907342 0.397070 -0.070958
C13   C     C_R   0.275206 0.352916 0.938681 -0.029369
C14   C     C_R   0.137438 0.059852 0.546818 -0.089461
C15   C     C_R   0.384492 0.412266 0.397880 -0.073290
C16   C     C_R   0.638424 0.562853 0.546770 -0.085168
C17   C     C_R   0.759194 0.905838 0.420410 -0.003887
C18   C     C_R   0.237244 0.927775 0.573987 -0.005776
C19   C     C_R   0.259771 0.403483 0.419950 0.004763
C20   C     C_R   0.736738 0.427358 0.573887 0.005542
C21   C     C_R   0.730315 0.375813 0.354445 0.600045
C22   C     C_R   0.290718 0.327892 0.639774 0.539237
C23   C     C_R   0.230245 0.875351 0.354686 0.597894
C24   C     C_R   0.721688 0.337188 0.059221 -0.016226
C25   C     C_R   0.790501 0.828471 0.639700 0.551834
C26   C     C_R   0.532950 0.158169 0.352251 0.656078
C27   C     C_R   0.464793 0.154463 0.645754 0.538883
C28   C     C_R   0.033333 0.657925 0.352475 0.651819
C29   C     C_R   0.964970 0.654271 0.645921 0.535402
C30   C     C_R   0.743722 0.968240 0.354081 0.578795
C31   C     C_R   0.255870 0.973130 0.644313 0.577377
C32   C     C_R   0.243740 0.468099 0.354192 0.580851
C33   C     C_R   0.755582 0.472083 0.644592 0.580739
C34   C     C_3   0.523002 0.255975 0.971491 -0.052439
C35   C     C_R   0.713826 0.812460 0.972703 0.008378
C36   C     C_3   0.469119 0.262609 0.031403 -0.046791
C37   C     C_3   0.023002 0.755974 0.971492 -0.052069
C38   C     C_3   0.969119 0.762615 0.031403 -0.046886
C39   C     C_3   0.560990 0.158897 0.012637 -0.128409
C40   C     C_3   0.424709 0.168261 0.992752 -0.150581
C41   C     C_3   0.060985 0.658894 0.012639 -0.128138
C42   C     C_3   0.924705 0.668270 0.992753 -0.150235
C43   C     C_3   0.506879 0.164588 0.071177 0.036001
C44   C     C_3   0.479542 0.161359 0.934653 0.009357
C45   C     C_3   0.006875 0.664591 0.071179 0.035420
C46   C     C_R   0.284302 0.805957 0.026867 0.007211
C47   C     C_3   0.979539 0.661361 0.934654 0.009468
C48   C     C_R   0.213832 0.312450 0.972704 0.008781
C49   C     C_R   0.784303 0.305949 0.026864 0.007289
C50   C     C_R   0.702089 0.844715 0.044679 0.048711
C51   C     C_R   0.301157 0.851892 0.958774 0.047973
C52   C     C_R   0.202091 0.344713 0.044678 0.048949
C53   C     C_R   0.286267 0.335441 0.861203 0.554338
C54   C     C_R   0.801154 0.351866 0.958764 0.046822
C55   C     C_R   0.818009 0.921863 0.053995 -0.145336
C56   C     C_R   0.181357 0.891282 0.940021 -0.118915
C57   C     C_R   0.318012 0.421856 0.053997 -0.145128
C58   C     C_R   0.681354 0.391253 0.940012 -0.120532
C59   C     C_R   0.826805 0.910767 0.981300 0.197126
C60   C     C_R   0.170110 0.881330 0.013273 0.208798
C61   C     C_R   0.326811 0.410757 0.981303 0.195443
C62   C     C_R   0.670111 0.381315 0.013267 0.209518
C63   C     C_R   0.660898 0.746788 0.937275 0.008449
C64   C     C_R   0.212418 0.831619 0.139090 0.581175
C65   C     C_R   0.334319 0.741808 0.063119 -0.013299
C66   C     C_R   0.160906 0.246776 0.937277 0.008478
C67   C     C_R   0.834324 0.241815 0.063121 -0.013195
C68   C     C_R   0.096007 0.238671 0.964046 0.027856
C69   C     C_R   0.901978 0.256024 0.048788 -0.019339
C70   C     C_R   0.596001 0.738679 0.964050 0.027831
C71   C     C_R   0.401974 0.756006 0.048788 -0.020057
C72   C     C_R   0.584827 0.771801 0.033284 -0.037060
C73   C     C_R   0.420671 0.809429 0.985844 -0.063002
C74   C     C_R   0.084829 0.271803 0.033278 -0.037252
C75   C     C_R   0.786263 0.835449 0.861203 0.552081
C76   C     C_R   0.920670 0.309426 0.985837 -0.062304
C77   C     C_R   0.637537 0.817327 0.074249 -0.024005
C78   C     C_R   0.371351 0.850759 0.939436 -0.013593
C79   C     C_R   0.137536 0.317333 0.074245 -0.024213
C80   C     C_R   0.871346 0.350718 0.939420 -0.015325
C81   C     C_R   0.532780 0.155407 0.145217 0.603329
C82   C     C_R   0.461070 0.154631 0.858152 0.581450
C83   C     C_R   0.032778 0.655408 0.145218 0.603580
C84   C     C_R   0.961067 0.654631 0.858153 0.583368
C85   C     C_R   0.754748 0.902326 0.084527 -0.028956
C86   C     C_3   0.461982 0.070791 0.034629 0.203139
C87   C     C_R   0.247540 0.898341 0.915344 -0.016689
C88   C     C_R   0.254749 0.402324 0.084527 -0.028512
C89   C     C_R   0.747537 0.398313 0.915334 -0.020421
C90   C     C_R   0.489601 0.149557 0.571623 0.054975
C91   C     C_R   0.502958 0.172313 0.423209 0.061737
C92   C     C_R   0.990296 0.648130 0.572083 0.054090
C93   C     C_R   0.004277 0.670765 0.423837 0.062209
C94   C     C_R   0.467150 0.056416 0.523810 0.035009
C95   C     C_R   0.459643 0.084107 0.450408 0.010753
C96   C     C_R   0.967504 0.554897 0.524339 0.039371
C97   C     C_3   0.517189 0.064280 0.974935 0.197714
C98   C     C_R   0.960880 0.582339 0.450826 0.011615
C99   C     C_R   0.537238 0.250544 0.470803 -0.087155
C100  C     C_R   0.526873 0.243723 0.543988 -0.109764
C101  C     C_R   0.039468 0.747521 0.471585 -0.087623
C102  C     C_R   0.028931 0.740813 0.544712 -0.115337
C103  C     C_R   0.460026 0.934331 0.542212 0.290802
C104  C     C_R   0.421798 0.007547 0.404453 0.235794
C105  C     C_R   0.957673 0.433275 0.543221 0.292753
C106  C     C_R   0.922323 0.506775 0.404798 0.237082
C107  C     C_R   0.928161 0.354725 0.493578 -0.161515
C108  C     C_3   0.961975 0.570798 0.034632 0.202879
C109  C     C_R   0.909334 0.391914 0.425613 -0.130988
C110  C     C_R   0.432027 0.854615 0.492157 -0.148933
C111  C     C_R   0.411127 0.891798 0.424802 -0.126011
C112  C     C_R   0.785647 0.839245 0.561957 -0.019204
C113  C     C_R   0.248134 0.907608 0.427528 -0.029742
C114  C     C_R   0.286745 0.336105 0.561577 -0.046878
C115  C     C_R   0.747704 0.407729 0.427306 -0.030800
C116  C     C_R   0.841346 0.874535 0.517429 0.032758
C117  C     C_R   0.216508 0.006243 0.455965 0.007853
C118  C     C_R   0.341913 0.376241 0.517718 0.040303
C119  C     C_3   0.017181 0.564280 0.974938 0.197466
C120  C     C_R   0.716732 0.506934 0.455777 0.006573
C121  C     C_R   0.827975 0.887808 0.443240 -0.000030
C122  C     C_R   0.197730 0.000263 0.527083 -0.020302
C123  C     C_R   0.328823 0.389604 0.443475 0.005945
C124  C     C_R   0.698045 0.501406 0.526992 -0.022016
C125  C     C_R   0.707477 0.896525 0.471064 0.210269
C126  C     C_R   0.270536 0.830769 0.547079 0.204188
C127  C     C_R   0.207493 0.386718 0.469564 0.212300
C128  C     C_R   0.768498 0.328954 0.546522 0.222521
C129  C     C_R   0.741967 0.967331 0.150566 0.520648
C130  C     C_R   0.775200 0.852929 0.938678 -0.028613
C131  C     C_R   0.258835 0.968918 0.850396 0.538572
C132  C     C_R   0.241967 0.467332 0.150565 0.520554
C133  C     C_R   0.758833 0.468908 0.850392 0.535889
C134  C     C_R   0.719517 0.836829 0.533127 -0.098224
C135  C     C_R   0.271801 0.817080 0.473356 -0.127788
C136  C     C_R   0.221089 0.326910 0.531531 -0.123378
C137  C     C_R   0.770004 0.316227 0.472845 -0.127989
C138  C     C_R   0.906487 0.912818 0.543649 -0.054032
C139  C     C_R   0.190149 0.096436 0.412065 -0.072328
C140  C     C_R   0.406350 0.417342 0.544542 -0.044969
Cl1   Cl    Cl    0.509639 0.865577 0.610360 -0.507118
Cl2   Cl    Cl    0.388880 0.052584 0.320481 -0.585903
Cl3   Cl    Cl    0.004636 0.360898 0.612039 -0.495614
Cl4   Cl    Cl    0.889948 0.552340 0.320687 -0.585229
Cl5   Cl    Cl    0.409920 0.997068 0.098404 -0.569942
Cl6   Cl    Cl    0.564769 0.972093 0.919137 -0.633312
Cl7   Cl    Cl    0.909910 0.497079 0.098404 -0.569666
Cl8   Cl    Cl    0.064758 0.472083 0.919144 -0.629540
Cr1   Cr    Cr6+3 0.772820 0.169820 0.252640 1.042192
Cr2   Cr    Cr6+3 0.383280 0.011130 0.749340 1.136868
Cr3   Cr    Cr6+3 0.116720 0.511130 0.250660 1.089360
Cr4   Cr    Cr6+3 0.883280 0.511130 0.749340 1.131195
Cr5   Cr    Cr6+3 0.227180 0.169820 0.747360 1.055350
Cr6   Cr    Cr6+3 0.272820 0.669820 0.252640 1.040634
Cr7   Cr    Cr6+3 0.727180 0.669820 0.747360 1.052722
Cr8   Cr    Cr6+3 0.615040 0.323610 0.249150 1.068640
Cr9   Cr    Cr6+3 0.384960 0.323610 0.750850 1.112816
Cr10  Cr    Cr6+3 0.115040 0.823610 0.249150 1.066929
Cr11  Cr    Cr6+3 0.884960 0.823610 0.750850 1.098013
Cr12  Cr    Cr6+3 0.616720 0.011130 0.250660 1.084845
H1    H     H_    0.617351 0.153350 0.022908 0.123322
H2    H     H_    0.886845 0.329617 0.388001 0.167160
H3    H     H_    0.430326 0.761367 0.503483 0.179768
H4    H     H_    0.389317 0.828848 0.387141 0.164648
H5    H     H_    0.921017 0.914508 0.598936 0.179585
H6    H     H_    0.209649 0.111430 0.359014 0.155036
H7    H     H_    0.421016 0.417601 0.599812 0.179843
H8    H     H_    0.710819 0.612337 0.358815 0.154706
H9    H     H_    0.675577 0.819389 0.566342 0.201849
H10   H     H_    0.289857 0.734869 0.451880 0.190143
H11   H     H_    0.177517 0.305049 0.564268 0.204129
H12   H     H_    0.368369 0.170580 0.981936 0.123211
H13   H     H_    0.787550 0.234015 0.450954 0.187671
H14   H     H_    0.003680 0.989369 0.519990 0.111372
H15   H     H_    0.105033 0.209204 0.393005 0.148109
H16   H     H_    0.502695 0.498453 0.521868 0.112226
H17   H     H_    0.608784 0.717279 0.394282 0.143168
H18   H     H_    0.986860 0.975546 0.389096 0.127414
H19   H     H_    0.056078 0.174072 0.513427 0.145630
H20   H     H_    0.486869 0.485055 0.390857 0.126234
H21   H     H_    0.558743 0.680516 0.513877 0.144649
H22   H     H_    0.877048 0.901366 0.339684 0.149144
H23   H     H_    0.117347 0.653345 0.022911 0.123854
H24   H     H_    0.112773 0.043872 0.597157 0.164375
H25   H     H_    0.378657 0.405917 0.340449 0.148978
H26   H     H_    0.613292 0.546948 0.596863 0.165675
H27   H     H_    0.545738 0.323785 0.937365 0.207029
H28   H     H_    0.448573 0.337766 0.060625 0.216619
H29   H     H_    0.045743 0.823781 0.937367 0.207162
H30   H     H_    0.948573 0.837778 0.060621 0.216683
H31   H     H_    0.858304 0.962616 0.086250 0.194082
H32   H     H_    0.140920 0.919702 0.903887 0.181717
H33   H     H_    0.358305 0.462611 0.086253 0.194030
H34   H     H_    0.868366 0.670594 0.981937 0.124053
H35   H     H_    0.640918 0.419670 0.903877 0.181966
H36   H     H_    0.664871 0.698713 0.889285 0.185263
H37   H     H_    0.324067 0.684654 0.105046 0.179434
H38   H     H_    0.164882 0.198695 0.889290 0.184592
H39   H     H_    0.824077 0.184666 0.105053 0.179352
H40   H     H_    0.054882 0.202226 0.930714 0.160776
H41   H     H_    0.938308 0.222001 0.087396 0.137171
H42   H     H_    0.554874 0.702237 0.930720 0.161028
H43   H     H_    0.438302 0.721972 0.087394 0.137223
H44   H     H_    0.038708 0.247839 0.059119 0.102469
H45   H     H_    0.572826 0.316973 0.451447 0.150777
H46   H     H_    0.972742 0.317967 0.970992 0.140005
H47   H     H_    0.538708 0.747836 0.059129 0.102420
H48   H     H_    0.472744 0.817984 0.971006 0.140263
H49   H     H_    0.627007 0.813091 0.130130 0.141559
H50   H     H_    0.393146 0.878675 0.890564 0.193770
H51   H     H_    0.126999 0.313105 0.130125 0.141777
H52   H     H_    0.893135 0.378572 0.890531 0.193293
H53   H     H_    0.564749 0.858684 0.466523 0.330712
H54   H     H_    0.236375 0.554781 0.596294 0.404744
H55   H     H_    0.057560 0.350449 0.462212 0.335008
H56   H     H_    0.548958 0.310615 0.579058 0.124666
H57   H     H_    0.749960 0.129291 0.696828 0.396842
H58   H     H_    0.972097 0.105042 0.996241 0.384339
H59   H     H_    0.132127 0.101069 0.128189 0.359737
H60   H     H_    0.472105 0.605028 0.996252 0.384137
H61   H     H_    0.632144 0.601062 0.128178 0.359557
H62   H     H_    0.075493 0.813322 0.452296 0.148549
H63   H     H_    0.051444 0.807176 0.579875 0.120170
H64   H     H_    0.923321 0.262050 0.506127 0.180125
O1    O     O_R   0.788190 0.043000 0.172520 -0.568410
O2    O     O_R   0.454170 0.051610 0.669840 -0.428827
O3    O     O_R   0.045830 0.551610 0.330160 -0.389082
O4    O     O_R   0.954170 0.551610 0.669840 -0.428101
O5    O     O_R   0.681920 0.959720 0.327070 -0.453377
O6    O     O_R   0.318080 0.959720 0.672930 -0.442708
O7    O     O_R   0.181920 0.459720 0.327070 -0.446715
O8    O     O_R   0.818080 0.459720 0.672930 -0.445003
O9    O     O_3   0.668190 0.168190 0.250820 -0.314498
O10   O     O_3   0.331810 0.168190 0.749180 -0.370143
O11   O     O_3   0.168190 0.668190 0.250820 -0.316858
O12   O     O_R   0.211810 0.043000 0.827480 -0.543486
O13   O     O_3   0.831810 0.668190 0.749180 -0.367409
O14   O     O_R   0.766240 0.292300 0.176860 -0.495697
O15   O     O_R   0.233760 0.292300 0.823140 -0.504389
O16   O     O_R   0.266240 0.792300 0.176860 -0.495211
O17   O     O_R   0.733760 0.792300 0.823140 -0.507404
O18   O     O_R   0.670310 0.409160 0.168720 -0.427615
O19   O     O_R   0.329690 0.409160 0.831280 -0.375963
O20   O     O_R   0.170310 0.909160 0.168720 -0.426969
O21   O     O_R   0.829690 0.909160 0.831280 -0.389464
O22   O     O_R   0.556160 0.251900 0.173380 -0.486688
O23   O     O_R   0.288190 0.543000 0.172520 -0.568489
O24   O     O_R   0.443840 0.251900 0.826620 -0.479938
O25   O     O_R   0.056160 0.751900 0.173380 -0.486270
O26   O     O_R   0.943840 0.751900 0.826620 -0.478260
O27   O     O_R   0.545410 0.050140 0.168240 -0.474882
O28   O     O_R   0.454590 0.050140 0.831760 -0.467076
O29   O     O_R   0.045410 0.550140 0.168240 -0.474361
O30   O     O_R   0.954590 0.550140 0.831760 -0.466204
O31   O     O_R   0.681530 0.958350 0.176970 -0.539060
O32   O     O_R   0.318470 0.958350 0.823030 -0.517959
O33   O     O_R   0.181530 0.458350 0.176970 -0.539177
O34   O     O_R   0.711810 0.543000 0.827480 -0.541398
O35   O     O_R   0.818470 0.458350 0.823030 -0.521359
O36   O     O_R   0.788610 0.044480 0.334450 -0.528751
O37   O     O_R   0.211390 0.044480 0.665550 -0.547485
O38   O     O_R   0.288610 0.544480 0.334450 -0.530973
O39   O     O_R   0.711390 0.544480 0.665550 -0.546990
O40   O     O_R   0.766630 0.293670 0.326970 -0.489754
O41   O     O_R   0.233370 0.293670 0.673030 -0.472354
O42   O     O_R   0.266630 0.793670 0.326970 -0.489376
O43   O     O_R   0.733370 0.793670 0.673030 -0.473727
O44   O     O_R   0.670730 0.410640 0.330640 -0.523027
O45   O     O_R   0.556550 0.253260 0.323480 -0.531137
O46   O     O_R   0.329270 0.410640 0.669360 -0.459703
O47   O     O_R   0.170730 0.910640 0.330640 -0.524482
O48   O     O_R   0.829270 0.910640 0.669360 -0.473771
O49   O     O_2   0.624644 0.024222 0.551368 -0.222393
O50   O     O_2   0.657868 0.108307 0.437207 -0.283818
O51   O     O_3   0.572945 0.927452 0.436056 -0.532417
O52   O     O_2   0.371592 0.715685 0.617857 -0.231688
O53   O     O_2   0.259753 0.723643 0.674836 -0.256657
O54   O     O_3   0.271718 0.588767 0.564804 -0.505844
O55   O     O_2   0.118024 0.501447 0.549813 -0.272248
O56   O     O_R   0.443450 0.253260 0.676520 -0.562338
O57   O     O_2   0.154530 0.597106 0.440532 -0.278710
O58   O     O_3   0.071984 0.413665 0.429873 -0.524837
O59   O     O_2   0.789688 0.099748 0.560643 -0.275249
O60   O     O_2   0.863363 0.230949 0.633173 -0.243695
O61   O     O_3   0.736229 0.200723 0.670202 -0.486064
O62   O     O_2   0.941574 0.935146 0.898461 -0.242364
O63   O     O_2   0.865767 0.101622 0.910642 -0.276847
O64   O     O_3   0.945126 0.040798 0.017146 -0.552394
O65   O     O_2   0.070349 0.016943 0.979036 -0.348527
O66   O     O_2   0.058906 0.928412 0.095479 -0.277316
O67   O     O_R   0.056550 0.753260 0.323480 -0.532929
O68   O     O_3   0.155490 0.084797 0.082782 -0.521549
O69   O     O_2   0.441576 0.435149 0.898458 -0.243592
O70   O     O_2   0.365773 0.601626 0.910660 -0.267882
O71   O     O_3   0.445136 0.540776 0.017153 -0.553226
O72   O     O_2   0.570359 0.516945 0.979024 -0.348327
O73   O     O_2   0.558910 0.428416 0.095470 -0.277442
O74   O     O_3   0.655503 0.584790 0.082769 -0.521427
O75   O     O_R   0.943450 0.753260 0.676520 -0.561787
O76   O     O_R   0.545830 0.051610 0.330160 -0.393316
S1    S     S_3+6 0.640050 0.995881 0.475083 0.032528
S2    S     S_3+6 0.295202 0.714806 0.604402 0.050511
S3    S     S_3+6 0.137043 0.480497 0.473679 0.007865
S4    S     S_3+6 0.791970 0.211384 0.602911 0.049601
S5    S     S_3+6 0.895787 0.997430 0.948519 -0.008617
S6    S     S_3+6 0.108943 0.977173 0.043455 -0.031306
S7    S     S_3+6 0.395792 0.497423 0.948524 -0.006472
S8    S     S_3+6 0.608950 0.477170 0.043445 -0.031057

loop_
_geom_bond_atom_site_label_1
_geom_bond_atom_site_label_2
_ccdc_geom_bond_type
C125  C134  A    
Cr3   O3    S    
C86   Cl5   S    
C55   C59   A    
C11   H21   S    
Cr12  O76   S    
C15   H25   S    
C126  C135  A    
C138  H5    S    
C14   C122  A    
O69   S7    D    
H59   O68   S    
C58   H35   S    
C7    H17   S    
C27   C90   S    
C40   C86   S    
C110  C111  A    
Cr11  O21   S    
C38   C45   S    
C25   C112  S    
C85   C129  S    
H53   O51   S    
C38   H30   S    
C134  H9    S    
C61   S7    S    
C33   O8    A    
O57   S3    D    
O73   S8    D    
C45   C108  S    
C92   C102  A    
Cr3   O29   S    
Cr7   O39   S    
C83   O25   A    
C17   C30   S    
C117  C139  A    
C81   O27   A    
C118  C140  A    
C19   C32   S    
C25   O43   A    
C76   H46   S    
C116  C121  A    
Cr5   O15   S    
O61   S4    S    
C127  C136  A    
C46   C65   A    
C93   C101  A    
C71   C73   A    
Cr7   O34   S    
Cr8   O45   S    
C119  Cl8   S    
Cr2   O10   S    
Cr10  O47   S    
C36   H28   S    
C55   H31   S    
Cr1   O36   S    
C137  H13   S    
C37   C38   S    
C75   O17   A    
C23   C113  S    
C26   O45   A    
C136  H11   S    
Cr10  O20   S    
H57   O61   S    
Cr8   O18   S    
C18   C122  A    
C20   C33   S    
C133  O34   A    
C73   H48   S    
C74   C79   A    
C50   C77   A    
O53   S2    D    
C100  H56   S    
C112  C134  A    
Cr2   O6    S    
C132  O23   A    
C57   C61   A    
C67   H39   S    
C98   C106  A    
C82   O24   A    
C31   O37   A    
C16   C124  A    
C51   C78   A    
C29   O75   A    
Cr5   O10   S    
C58   C89   A    
C64   O16   A    
C48   C52   A    
C113  C135  A    
C114  C136  A    
C63   H36   S    
C35   C63   A    
C18   C31   S    
C101  H62   S    
C70   H42   S    
C41   C45   S    
Cr10  O25   S    
C105  C107  A    
C19   C123  A    
C99   H45   S    
C103  C110  A    
C30   O36   A    
Cr12  O31   S    
C82   O28   A    
C68   C74   A    
Cr6   O16   S    
C92   C96   A    
C69   C76   A    
C135  H10   S    
C87   C131  S    
C86   C97   S    
Cr3   O7    S    
Cr4   O13   S    
C115  C137  A    
C96   C98   A    
C37   C47   S    
C52   C79   A    
Cr5   O37   S    
C78   H50   S    
C50   C85   A    
C80   H52   S    
C125  S1    S    
C140  H7    S    
C45   C83   S    
Cr11  O75   S    
C103  Cl1   S    
Cr9   O24   S    
C5    C139  A    
H61   O74   S    
O66   S6    D    
C89   C133  S    
C34   C39   S    
C52   C88   A    
C60   S6    S    
C46   C51   A    
Cr1   O9    S    
Cr5   O12   S    
C117  C122  A    
C5    C9    A    
Cr8   O44   S    
C8    C12   A    
Cr3   O11   S    
C35   C130  A    
C66   H38   S    
C113  C117  A    
O62   S5    D    
C43   C81   S    
C59   S5    S    
Cr3   O33   S    
C107  H64   S    
C24   C62   A    
C81   O22   A    
C111  H4    S    
C76   C80   A    
C27   O56   A    
Cr2   O28   S    
Cr8   O22   S    
C18   C126  A    
Cr4   O35   S    
C74   H44   S    
C34   C36   S    
C37   C41   S    
C34   H27   S    
C20   C124  A    
C1    O18   A    
C91   C95   A    
C40   C44   S    
Cr6   O23   S    
C1    C24   S    
C129  O1    A    
C29   O4    A    
C91   C99   A    
Cr4   O8    S    
C106  C109  A    
O59   S4    D    
C58   C62   A    
O71   S7    S    
C96   C105  A    
C56   H32   S    
C101  C102  A    
Cr2   O2    S    
C5    H15   S    
C37   H29   S    
C108  C119  S    
C112  C116  A    
C21   C115  S    
C53   O15   A    
C79   H51   S    
C23   O47   A    
C30   O5    A    
C3    C7    A    
C109  H2    S    
C2    C60   A    
Cr9   O10   S    
C39   C97   S    
C21   O44   A    
C12   H22   S    
C129  O31   A    
Cr6   O11   S    
C13   C53   S    
C75   C130  S    
C4    H14   S    
H58   O64   S    
C107  C109  A    
Cr12  O27   S    
Cr10  O67   S    
C28   O3    A    
C102  H63   S    
C90   C94   A    
C54   C80   A    
C62   S8    S    
O55   S3    D    
C84   O26   A    
C53   O19   A    
C131  O32   A    
O70   S7    D    
C26   C91   S    
C56   C60   A    
C28   C93   S    
C55   C85   A    
C7    C11   A    
C9    C14   A    
Cr6   O38   S    
C104  C111  A    
C11   C16   A    
C21   O40   A    
C126  S2    S    
Cr1   O14   S    
H55   O58   S    
C26   O76   A    
C47   C84   S    
C41   C119  S    
O58   S3    S    
Cr7   O17   S    
C17   C121  A    
C94   C103  A    
Cr12  O9    S    
C104  Cl2   S    
O50   S1    D    
C40   H12   S    
O68   S6    S    
Cr11  O48   S    
C43   C86   S    
C28   O67   A    
C6    C10   A    
C110  H3    S    
C38   C42   S    
C132  O33   A    
C64   O20   A    
C131  O12   A    
C33   O39   A    
C10   H20   S    
O65   S6    D    
O72   S8    D    
C22   O41   A    
C118  C123  A    
C6    C140  A    
C94   C95   A    
O64   S5    S    
C4    C138  A    
C133  O35   A    
Cr7   O13   S    
Cr12  O5    S    
C41   H23   S    
C36   C43   S    
C29   C92   S    
O52   S2    D    
O74   S8    S    
C66   C68   A    
C59   C130  A    
C69   H41   S    
Cr1   O1    S    
C97   Cl6   S    
Cr5   O41   S    
C4    C8    A    
C2    C46   A    
C71   H43   S    
C15   C123  A    
C83   O29   A    
O49   S1    D    
C20   C128  A    
C10   C15   A    
C127  S3    S    
C128  S4    S    
C49   C54   A    
C31   O6    A    
C42   H34   S    
Cr4   O4    S    
C44   C82   S    
C73   C78   A    
C39   H1    S    
Cr1   O40   S    
C75   O21   A    
C77   H49   S    
C108  Cl7   S    
C22   O46   A    
C47   C119  S    
C32   O7    A    
O63   S5    D    
C90   C100  A    
C2    C64   S    
C3    H8    S    
C72   H47   S    
C116  C138  A    
C12   C121  A    
C36   C40   S    
C34   C44   S    
C54   C89   A    
C51   C87   A    
C56   C87   A    
C39   C43   S    
C65   C71   A    
C57   H33   S    
C67   C69   A    
C139  H6    S    
C128  C137  A    
C72   C77   A    
Cr10  O11   S    
C44   C97   S    
Cr2   O32   S    
C99   C100  A    
C63   C70   A    
C22   C114  S    
Cr8   O9    S    
C35   C50   A    
Cr11  O13   S    
C32   O38   A    
C114  C118  A    
C65   H37   S    
O54   S2    S    
H54   O54   S    
C84   O30   A    
C88   C132  S    
C95   C104  A    
C24   C49   A    
O60   S4    D    
C49   C67   A    
Cr11  O26   S    
Cr6   O42   S    
C9    H19   S    
C105  Cl3   S    
C13   C48   A    
C14   H24   S    
O51   S1    S    
C27   O2    A    
C106  Cl4   S    
C1    O14   A    
C23   O42   A    
C57   C88   A    
C68   H40   S    
C48   C66   A    
Cr9   O19   S    
C16   H26   S    
Cr9   O56   S    
Cr4   O30   S    
H60   O71   S    
C17   C125  A    
C6    H16   S    
Cr9   O46   S    
C19   C127  A    
C42   C47   S    
C25   O48   A    
C3    C120  A    
C8    H18   S    
C13   C61   A    
C115  C120  A    
C70   C72   A    
C42   C108  S    
C93   C98   A    
Cr7   O43   S    
C120  C124  A    
