data_mof_unit_53378.cif
_audit_creation_date              2012-12-11T14:14:36-0500
_audit_creation_method            fapswitch 2.2
_symmetry_space_group_name_H-M    P1
_symmetry_Int_Tables_number       1
_space_group_crystal_system       triclinic
_cell_length_a                    24.568175
_cell_length_b                    17.302712
_cell_length_c                    15.636764
_cell_angle_alpha                 90.040635
_cell_angle_beta                  129.457895
_cell_angle_gamma                 89.828595
_cell_volume                      5132.16301467

loop_
_atom_site_label
_atom_site_type_symbol
_atom_type_description
_atom_site_fract_x
_atom_site_fract_y
_atom_site_fract_z
_atom_type_partial_charge
C1    C     C_R   0.336662 0.381035 0.212150 -0.138932
C2    C     C_R   0.663521 0.381476 0.789030 -0.147583
C3    C     C_R   0.835071 0.885620 0.206638 -0.144125
C4    C     C_R   0.165186 0.885822 0.793838 -0.143954
C5    C     C_R   0.385177 0.600657 0.589514 -0.116928
C6    C     C_R   0.615495 0.597573 0.410427 -0.119030
C7    C     C_R   0.884545 0.098093 0.589556 -0.121646
C8    C     C_R   0.100423 0.127431 0.406701 -0.152979
C9    C     C_R   0.316788 0.615581 0.497466 0.125816
C10   C     C_R   0.683688 0.613025 0.502205 0.122540
C11   C     C_R   0.816217 0.113362 0.497606 0.123005
C12   C     C_R   0.159714 0.161879 0.497779 0.133515
C13   C     C_R   0.371702 0.674044 0.191158 0.107562
C14   C     C_R   0.628721 0.673281 0.809924 0.109208
C15   C     C_R   0.863190 0.161906 0.172205 0.122420
C16   C     C_R   0.132018 0.167636 0.819500 0.106922
C17   C     C_2   0.730046 0.656628 0.412925 -0.114893
C18   C     C_2   0.269798 0.657514 0.586388 -0.121506
C19   C     C_2   0.160900 0.276907 0.412893 -0.109224
C20   C     C_2   0.769277 0.155669 0.586602 -0.116262
C21   C     C_2   0.742190 0.632092 0.504832 -0.207102
C22   C     C_2   0.258113 0.634220 0.494484 -0.206134
C23   C     C_2   0.196592 0.224059 0.494368 -0.206030
C24   C     C_2   0.757455 0.131733 0.494750 -0.207941
C25   C     C_2   0.198547 0.336755 0.404457 -0.134674
C26   C     C_2   0.726834 0.217919 0.580648 -0.122607
C27   C     C_2   0.772883 0.718032 0.418785 -0.122275
C28   C     C_2   0.227136 0.719291 0.580222 -0.117196
C29   C     C_2   0.259368 0.362163 0.496759 -0.174057
C30   C     C_2   0.699214 0.272593 0.502120 -0.191298
C31   C     C_2   0.802008 0.771862 0.498476 -0.191064
C32   C     C_2   0.200789 0.774766 0.503105 -0.198259
C33   C     C_2   0.686792 0.310398 0.948380 -0.309470
C34   C     C_2   0.312559 0.313796 0.048961 -0.312860
C35   C     C_2   0.189511 0.823779 0.961349 -0.318883
C36   C     C_2   0.811105 0.822206 0.040298 -0.318518
C37   C     C_2   0.750151 0.338602 0.034832 0.268563
C38   C     C_2   0.247925 0.340526 0.964125 0.264512
C39   C     C_2   0.255576 0.847632 0.044047 0.266720
C40   C     C_2   0.745031 0.846277 0.957109 0.266507
C41   C     C_2   0.338959 0.742171 0.119815 -0.215635
C42   C     C_2   0.662008 0.740798 0.882174 -0.216739
C43   C     C_2   0.825250 0.225098 0.093294 -0.222255
C44   C     C_2   0.166635 0.233431 0.894357 -0.223138
C45   C     C_R   0.606876 0.378468 0.409273 0.214452
C46   C     C_R   0.384489 0.402396 0.591035 0.192119
C47   C     C_R   0.107355 0.879156 0.409572 0.216511
C48   C     C_R   0.893512 0.878084 0.590768 0.214570
C49   C     C_2   0.301851 0.791353 0.131291 -0.159341
C50   C     C_2   0.698727 0.790015 0.870233 -0.160301
C51   C     C_2   0.802061 0.283488 0.119315 -0.175231
C52   C     C_2   0.199492 0.285173 0.877626 -0.163632
C53   C     C_R   0.675596 0.370791 0.593491 -0.182028
C54   C     C_R   0.311999 0.398081 0.406940 -0.178166
C55   C     C_R   0.175812 0.871201 0.593897 -0.181632
C56   C     C_R   0.825247 0.870063 0.406563 -0.181684
C57   C     C_R   0.573341 0.377421 0.789795 -0.155741
C58   C     C_R   0.425581 0.379391 0.208043 -0.157710
C59   C     C_R   0.075542 0.883328 0.795477 -0.159182
C60   C     C_R   0.924818 0.882623 0.205206 -0.159710
C61   C     C_R   0.358125 0.352537 0.155646 0.145953
C62   C     C_R   0.641116 0.350826 0.842934 0.142209
C63   C     C_R   0.856175 0.859033 0.148768 0.149452
C64   C     C_R   0.144316 0.859832 0.852210 0.149971
C65   C     C_R   0.663017 0.338754 0.501640 0.115024
C66   C     C_R   0.316369 0.385112 0.498011 0.112092
C67   C     C_R   0.163713 0.839856 0.502172 0.112162
C68   C     C_R   0.838017 0.837864 0.498564 0.115262
C69   C     C_R   0.312038 0.601840 0.406851 -0.145529
C70   C     C_R   0.688107 0.600796 0.592886 -0.142848
C71   C     C_R   0.811859 0.101164 0.406959 -0.139716
C72   C     C_R   0.176642 0.127111 0.591169 -0.132053
C73   C     C_R   0.431771 0.634321 0.223669 0.227761
C74   C     C_R   0.568657 0.633812 0.777351 0.226855
C75   C     C_R   0.925412 0.124387 0.209394 0.215829
C76   C     C_R   0.069992 0.130623 0.781674 0.230895
C77   C     C_R   0.655166 0.634581 0.766027 -0.200810
C78   C     C_R   0.344961 0.635116 0.234358 -0.199957
C79   C     C_R   0.158154 0.130059 0.774675 -0.202106
C80   C     C_R   0.840577 0.128742 0.224544 -0.211894
H1    H     H_    0.284385 0.378089 0.187335 0.092736
H2    H     H_    0.716723 0.380503 0.817536 0.090940
H3    H     H_    0.782054 0.885252 0.178938 0.087474
H4    H     H_    0.218182 0.885312 0.821448 0.087545
H5    H     H_    0.793060 0.641461 0.585790 0.134821
H6    H     H_    0.207412 0.644570 0.413469 0.135961
H7    H     H_    0.253324 0.226025 0.559776 0.131532
H8    H     H_    0.706690 0.141766 0.413740 0.135756
H9    H     H_    0.181540 0.349526 0.322813 0.123315
H10   H     H_    0.725457 0.223728 0.648407 0.126432
H11   H     H_    0.773177 0.724173 0.349980 0.125922
H12   H     H_    0.224246 0.723889 0.646520 0.127230
H13   H     H_    0.272225 0.350965 0.575827 0.156855
H14   H     H_    0.701197 0.267594 0.435156 0.144555
H15   H     H_    0.801138 0.766487 0.566535 0.143857
H16   H     H_    0.204421 0.771249 0.437685 0.145115
H17   H     H_    0.297760 0.783821 0.195989 0.132693
H18   H     H_    0.701908 0.783071 0.804465 0.133894
H19   H     H_    0.818146 0.288196 0.201898 0.148048
H20   H     H_    0.196965 0.281802 0.805755 0.139355
H21   H     H_    0.342736 0.750887 0.054934 0.136740
H22   H     H_    0.658885 0.749077 0.947834 0.136928
H23   H     H_    0.811999 0.221788 0.012601 0.141392
H24   H     H_    0.167505 0.238529 0.964482 0.139809
H25   H     H_    0.672926 0.251012 0.949551 0.139583
H26   H     H_    0.329301 0.256841 0.044143 0.138134
H27   H     H_    0.170367 0.770228 0.970120 0.136287
H28   H     H_    0.830249 0.768048 0.032584 0.137004
H29   H     H_    0.719455 0.358899 0.679204 0.107191
H30   H     H_    0.264658 0.401412 0.321427 0.099876
H31   H     H_    0.219386 0.859278 0.679832 0.108152
H32   H     H_    0.781971 0.857744 0.320742 0.107394
H33   H     H_    0.544490 0.370212 0.819616 0.097182
H34   H     H_    0.452771 0.374707 0.175164 0.097143
H35   H     H_    0.047971 0.880141 0.827794 0.095142
H36   H     H_    0.952652 0.878511 0.173377 0.095050
H37   H     H_    0.263758 0.596693 0.322312 0.087723
H38   H     H_    0.736285 0.596192 0.677653 0.088913
H39   H     H_    0.763728 0.096633 0.322188 0.089178
H40   H     H_    0.224078 0.135605 0.675270 0.085752
H41   H     H_    0.703573 0.646377 0.780503 0.115202
H42   H     H_    0.296538 0.647265 0.219842 0.114835
H43   H     H_    0.209243 0.138609 0.797238 0.113110
H44   H     H_    0.791456 0.139456 0.208535 0.121195
H45   H     H_    0.402544 0.593159 0.671386 0.129079
H46   H     H_    0.599103 0.586428 0.329567 0.112595
H47   H     H_    0.901096 0.087322 0.670587 0.113643
H48   H     H_    0.078845 0.135545 0.322572 0.134389
H49   H     H_    0.681185 0.643767 0.331167 0.123434
H50   H     H_    0.318234 0.643795 0.668319 0.125506
H51   H     H_    0.104484 0.272618 0.347073 0.125057
H52   H     H_    0.817891 0.142095 0.668446 0.124847
N1    N     N_R   0.389060 0.424180 0.294540 -0.038862
N2    N     N_R   0.610940 0.424180 0.705460 -0.036950
N3    N     N_R   0.889060 0.924180 0.294540 -0.037028
N4    N     N_R   0.110940 0.924180 0.705460 -0.037547
N5    N     N_R   0.579670 0.423790 0.443360 -0.068307
N6    N     N_R   0.420330 0.423790 0.556640 -0.069299
N7    N     N_R   0.079670 0.923790 0.443360 -0.067771
N8    N     N_R   0.920330 0.923790 0.556640 -0.068581
N9    N     N_R   0.625470 0.423490 0.556600 -0.049935
N10   N     N_R   0.374530 0.423490 0.443400 -0.050237
N11   N     N_R   0.125470 0.923490 0.556600 -0.051299
N12   N     N_R   0.874530 0.923490 0.443400 -0.050459
N13   N     N_R   0.555250 0.423100 0.705420 -0.049011
N14   N     N_R   0.444750 0.423100 0.294580 -0.048988
N15   N     N_R   0.055250 0.923100 0.705420 -0.048460
N16   N     N_R   0.944750 0.923100 0.294580 -0.048048
N17   N     N_R   0.375210 0.577180 0.443400 -0.034659
N18   N     N_R   0.624790 0.577180 0.556600 -0.035059
N19   N     N_R   0.875210 0.077180 0.443400 -0.035499
N20   N     N_R   0.124790 0.077180 0.556600 -0.034350
N21   N     N_R   0.445430 0.577570 0.294580 -0.074030
N22   N     N_R   0.554570 0.577570 0.705420 -0.075115
N23   N     N_R   0.945430 0.077570 0.294580 -0.074763
N24   N     N_R   0.054570 0.077570 0.705420 -0.073382
N25   N     N_R   0.611620 0.576500 0.705460 -0.054396
N26   N     N_R   0.388380 0.576500 0.294540 -0.054496
N27   N     N_R   0.111620 0.076500 0.705460 -0.052645
N28   N     N_R   0.888380 0.076500 0.294540 -0.052237
N29   N     N_R   0.421010 0.576890 0.556640 -0.042386
N30   N     N_R   0.578990 0.576890 0.443360 -0.042223
N31   N     N_R   0.921010 0.076890 0.556640 -0.042667
N32   N     N_R   0.078990 0.076890 0.443360 -0.043297
Ni1   Ni    Ni4+2 0.383200 0.500680 0.370150 0.198198
Ni2   Ni    Ni4+2 0.616800 0.500680 0.629850 0.200932
Ni3   Ni    Ni4+2 0.883200 0.000680 0.370150 0.200527
Ni4   Ni    Ni4+2 0.116800 0.000680 0.629850 0.202852
Ni5   Ni    Ni4+2 0.512440 0.500680 0.370150 0.196078
Ni6   Ni    Ni4+2 0.487560 0.500680 0.629850 0.197108
Ni7   Ni    Ni4+2 0.012440 0.000680 0.370150 0.195641
Ni8   Ni    Ni4+2 0.987560 0.000680 0.629850 0.195676
C81   C     C_3   0.770423 0.423227 0.047966 -0.334649
C82   C     C_3   0.788923 0.457283 0.153682 -0.920269
H53   H     H_    0.744324 0.449589 0.154391 0.260070
H54   H     H_    0.836876 0.429167 0.228040 0.259975
H55   H     H_    0.799564 0.520058 0.157519 0.252676
H56   H     H_    0.816550 0.428543 0.050664 0.180757
H57   H     H_    0.727129 0.459014 0.977899 0.195395
C83   C     C_3   0.222334 0.422313 0.955745 -0.334958
C84   C     C_3   0.197716 0.461528 0.848913 -0.909841
H58   H     H_    0.241110 0.462309 0.844517 0.258192
H59   H     H_    0.151604 0.430827 0.775466 0.263662
H60   H     H_    0.181815 0.522047 0.847082 0.250769
H61   H     H_    0.177872 0.420369 0.957547 0.178127
H62   H     H_    0.264254 0.459159 0.025363 0.194099
C85   C     C_3   0.285277 0.925413 0.047302 -0.337086
C86   C     C_3   0.317370 0.967745 0.155624 -0.903177
H63   H     H_    0.277220 0.975685 0.166558 0.257356
H64   H     H_    0.362946 0.934890 0.227198 0.265132
H65   H     H_    0.336202 0.025514 0.153819 0.249122
H66   H     H_    0.326526 0.916397 0.038998 0.176563
H67   H     H_    0.244051 0.963921 0.979159 0.193648
C87   C     C_3   0.715532 0.924900 0.952189 -0.336514
C88   C     C_3   0.684992 0.966689 0.844037 -0.907563
H68   H     H_    0.726030 0.973336 0.834869 0.257065
H69   H     H_    0.639630 0.934185 0.772051 0.265821
H70   H     H_    0.666236 0.025019 0.844603 0.248560
H71   H     H_    0.673455 0.917224 0.958833 0.177157
H72   H     H_    0.756564 0.963152 0.020547 0.192949
C89   C     C_3   0.592763 0.388896 0.301131 -0.423432
C90   C     C_3   0.657059 0.420222 0.317666 -0.904337
H73   H     H_    0.677637 0.472674 0.370451 0.265629
H74   H     H_    0.699805 0.376652 0.356456 0.255482
H75   H     H_    0.641679 0.435908 0.236012 0.248283
H76   H     H_    0.575749 0.333280 0.255425 0.188202
H77   H     H_    0.550779 0.432966 0.250946 0.188562
C91   C     C_3   0.410618 0.417424 0.707188 -0.392503
C92   C     C_3   0.359168 0.461247 0.714286 -0.943328
H78   H     H_    0.319135 0.493831 0.637239 0.276189
H79   H     H_    0.332084 0.420722 0.731205 0.252853
H80   H     H_    0.388554 0.502811 0.784313 0.245042
H81   H     H_    0.425021 0.361512 0.751826 0.181420
H82   H     H_    0.458598 0.453566 0.750627 0.185070
C93   C     C_3   0.094800 0.891379 0.303001 -0.424530
C94   C     C_3   0.158640 0.927926 0.323109 -0.897806
H83   H     H_    0.172248 0.983407 0.368445 0.263782
H84   H     H_    0.205132 0.889030 0.371346 0.254577
H85   H     H_    0.145867 0.939927 0.242330 0.249489
H86   H     H_    0.081277 0.835683 0.258307 0.186834
H87   H     H_    0.051158 0.933255 0.250778 0.189935
C95   C     C_3   0.906727 0.888977 0.698142 -0.424107
C96   C     C_3   0.841648 0.919966 0.679944 -0.904491
H88   H     H_    0.820969 0.972401 0.626884 0.266264
H89   H     H_    0.799243 0.876261 0.640736 0.255402
H90   H     H_    0.856214 0.935652 0.761048 0.248476
H91   H     H_    0.924381 0.833687 0.744891 0.187630
H92   H     H_    0.947861 0.933609 0.747820 0.188289
C97   C     C_3   0.462146 0.639977 0.165631 -0.402596
C98   C     C_3   0.505564 0.713503 0.197440 -0.895930
H93   H     H_    0.470460 0.764867 0.159457 0.254750
H94   H     H_    0.543049 0.721741 0.288493 0.268262
H95   H     H_    0.535682 0.709969 0.166744 0.246180
H96   H     H_    0.493034 0.587429 0.181462 0.175327
H97   H     H_    0.418298 0.640583 0.074720 0.182240
C99   C     C_3   0.539201 0.638779 0.836857 -0.405085
C100  C     C_3   0.496596 0.712932 0.807917 -0.901652
H98   H     H_    0.532215 0.763555 0.847398 0.255732
H99   H     H_    0.458950 0.722889 0.717176 0.267161
H100  H     H_    0.466727 0.708873 0.838981 0.246713
H101  H     H_    0.508011 0.586615 0.820335 0.175319
H102  H     H_    0.583539 0.637964 0.927577 0.183638
C101  C     C_3   0.947775 0.113486 0.140135 -0.392927
C102  C     C_3   0.968471 0.189468 0.117820 -0.926318
H103  H     H_    0.920942 0.220670 0.047440 0.255240
H104  H     H_    0.997171 0.227669 0.191340 0.254372
H105  H     H_    0.002574 0.177302 0.095703 0.253802
H106  H     H_    0.991432 0.070816 0.179893 0.178652
H107  H     H_    0.903182 0.087729 0.059485 0.188296
C103  C     C_3   0.039454 0.133499 0.839597 -0.402240
C104  C     C_3   0.997946 0.208060 0.813357 -0.898088
H108  H     H_    0.034325 0.258091 0.853165 0.256875
H109  H     H_    0.959583 0.218759 0.722830 0.267147
H110  H     H_    0.968964 0.203962 0.845936 0.247560
H111  H     H_    0.007108 0.081601 0.819259 0.175043
H112  H     H_    0.083118 0.130488 0.930479 0.184153

loop_
_geom_bond_atom_site_label_1
_geom_bond_atom_site_label_2
_ccdc_geom_bond_type
C15   C75   A    
C53   N9    A    
C30   H14   S    
C18   C28   S    
C97   H97   S    
C91   H81   S    
C101  H107  S    
C57   N13   A    
C36   H28   S    
N21   Ni5   S    
C89   C90   S    
C19   C23   D    
C96   H88   S    
C70   N18   A    
C94   H85   S    
C76   C103  S    
C92   H80   S    
C73   C97   S    
C44   H24   S    
C96   H90   S    
C57   C62   A    
C40   C87   S    
C81   C82   S    
C99   C100  S    
C46   C91   S    
C12   C23   S    
N22   Ni6   S    
C59   C64   A    
C2    N2    A    
C90   H74   S    
C86   H65   S    
C14   C74   A    
N14   Ni5   S    
C9    C69   A    
C46   C66   A    
C79   N27   A    
C37   C51   S    
C11   C71   A    
C9    C22   S    
C104  H109  S    
C38   C52   S    
C81   H57   S    
C1    H1    S    
C101  C102  S    
N18   Ni2   S    
C100  H99   S    
C93   H87   S    
C11   C24   S    
C97   H96   S    
N16   Ni7   S    
C102  H103  S    
C54   H30   S    
C98   H95   S    
C86   H64   S    
C100  H100  S    
C14   C77   A    
C99   H102  S    
N21   N26   A    
C89   H77   S    
C82   H53   S    
C95   H91   S    
N13   Ni6   S    
C45   C65   A    
N7    N11   A    
C8    H48   S    
C87   H72   S    
C6    N30   A    
C41   H21   S    
C91   C92   S    
C72   N20   A    
C90   H75   S    
C47   C93   S    
C89   H76   S    
N2    Ni2   S    
C27   H11   S    
C35   C64   S    
C95   H92   S    
C36   C63   S    
C53   C65   A    
C16   C44   S    
N5    Ni5   S    
N19   Ni3   S    
C4    N4    A    
C88   H70   S    
C39   C85   S    
C44   C52   D    
C58   C61   A    
C87   C88   S    
C12   C72   A    
C76   N24   A    
N8    Ni8   S    
C23   H7    S    
C100  H98   S    
C85   H67   S    
C80   N28   A    
C25   C29   D    
C95   C96   S    
N28   Ni3   S    
C1    N1    A    
C42   H22   S    
C47   C67   A    
C34   C38   D    
N20   Ni4   S    
C78   N26   A    
C7    C11   A    
C43   H23   S    
C84   H59   S    
C10   C21   S    
C19   H51   S    
C31   C68   S    
N18   N30   A    
C21   H5    S    
C50   H18   S    
C55   N11   A    
C90   H73   S    
C48   N8    A    
N12   Ni3   S    
C27   C31   D    
C17   C27   S    
C35   H27   S    
C20   C24   D    
C36   C40   D    
N17   Ni1   S    
C94   H83   S    
C6    H46   S    
N22   N25   A    
C104  H108  S    
N6    N10   A    
C77   H41   S    
C33   C62   S    
C104  H110  S    
C57   H33   S    
N4    N15   A    
N4    Ni4   S    
C103  C104  S    
C84   H58   S    
C17   H49   S    
N24   Ni8   S    
C34   C61   S    
C33   C37   D    
C88   H68   S    
C86   H63   S    
C74   N22   A    
C34   H26   S    
C99   H101  S    
C20   H52   S    
C35   C39   D    
C93   C94   S    
C5    C9    A    
C97   C98   S    
N1    Ni1   S    
C51   H19   S    
C15   C80   A    
C4    H4    S    
C28   C32   D    
C8    C12   A    
C101  H106  S    
C72   H40   S    
C45   N5    A    
C92   H78   S    
N9    Ni2   S    
C33   H25   S    
C28   H12   S    
C48   C68   A    
C98   H94   S    
N31   Ni8   S    
C24   H8    S    
C82   H55   S    
C77   N25   A    
C85   H66   S    
N20   N32   A    
C83   H62   S    
C42   C50   D    
C32   C67   S    
C59   N15   A    
N29   Ni6   S    
C10   C70   A    
C59   H35   S    
C39   C49   S    
C13   C73   A    
N27   Ni4   S    
C26   C30   D    
N19   N31   A    
C71   H39   S    
C60   C63   A    
C75   C101  S    
C8    N32   A    
C2    H2    S    
C55   H31   S    
N17   N29   A    
C74   C99   S    
C71   N19   A    
C83   C84   S    
C73   N21   A    
C80   H44   S    
C84   H60   S    
C53   H29   S    
C103  H111  S    
N2    N13   A    
N5    N9    A    
C13   C78   A    
C91   H82   S    
C103  H112  S    
C54   N10   A    
N23   N28   A    
C16   C76   A    
N24   N27   A    
C79   H43   S    
N8    N12   A    
C49   H17   S    
C94   H84   S    
C20   C26   S    
C1    C61   A    
N25   Ni2   S    
C47   N7    A    
C55   C67   A    
C96   H89   S    
C75   N23   A    
C13   C41   S    
C54   C66   A    
C3    C63   A    
C26   H10   S    
C41   C49   D    
C4    C64   A    
C25   H9    S    
C102  H105  S    
C14   C42   S    
C58   N14   A    
C16   C79   A    
C69   N17   A    
N7    Ni7   S    
C18   C22   D    
C15   C43   S    
C85   C86   S    
C32   H16   S    
C60   H36   S    
C56   C68   A    
C93   H86   S    
N10   Ni1   S    
C29   H13   S    
C43   C51   D    
N30   Ni5   S    
C7    N31   A    
C81   H56   S    
C70   H38   S    
C31   H15   S    
C69   H37   S    
C92   H79   S    
C38   C83   S    
C102  H104  S    
C3    N3    A    
C22   H6    S    
C98   H93   S    
C78   H42   S    
C82   H54   S    
N11   Ni4   S    
C48   C95   S    
C30   C65   S    
C18   H50   S    
C6    C10   A    
C19   C25   S    
C37   C81   S    
C29   C66   S    
C56   N12   A    
C87   H71   S    
N23   Ni7   S    
C40   C50   S    
C3    H3    S    
N15   Ni8   S    
C45   C89   S    
N3    N16   A    
C83   H61   S    
C5    H45   S    
C58   H34   S    
C52   H20   S    
N3    Ni3   S    
C46   N6    A    
N32   Ni7   S    
N1    N14   A    
C60   N16   A    
C7    H47   S    
C56   H32   S    
C2    C62   A    
N26   Ni1   S    
C5    N29   A    
N6    Ni6   S    
C88   H69   S    
C17   C21   D    
