data_mof_unit_10911.cif
_audit_creation_date              2012-12-10T18:57:39-0500
_audit_creation_method            fapswitch 2.2
_symmetry_space_group_name_H-M    P1
_symmetry_Int_Tables_number       1
_space_group_crystal_system       triclinic
_cell_length_a                    10.890883
_cell_length_b                    10.867416
_cell_length_c                    9.584503
_cell_angle_alpha                 90.607307
_cell_angle_beta                  88.830572
_cell_angle_gamma                 91.346107
_cell_volume                      1133.77371825

loop_
_atom_site_label
_atom_site_type_symbol
_atom_type_description
_atom_site_fract_x
_atom_site_fract_y
_atom_site_fract_z
_atom_type_partial_charge
C1    C     C_R   0.498406 0.262192 0.499186 0.814317
C2    C     C_R   0.504981 0.128499 0.496451 -0.218844
C3    C     C_R   0.489024 0.059926 0.371729 0.453668
C4    C     C_R   0.500928 0.932289 0.372840 -0.307025
C5    C     C_R   0.513271 0.870396 0.499008 -0.167684
C6    C     C_R   0.534204 0.938859 0.620387 0.118676
C7    C     C_3   0.468643 0.931927 0.758459 -0.490617
C8    C     C_3   0.465466 0.070988 0.756324 -0.393024
C9    C     C_R   0.548776 0.597664 0.072378 0.155318
C10   C     C_R   0.436490 0.412799 0.075583 -0.116257
C11   C     C_R   0.432700 0.414426 0.926879 0.535551
C12   C     C_R   0.265259 0.495859 0.501313 0.826723
C13   C     C_R   0.547538 0.598032 0.926111 0.085552
C14   C     C_3   0.672448 0.654738 0.913259 -0.505017
C15   C     C_3   0.675348 0.655523 0.072636 0.288443
C16   C     C_R   0.503095 0.737364 0.500423 0.819344
C17   C     C_R   0.734576 0.499927 0.499132 0.838415
C18   C     C_2   0.933090 0.452794 0.396440 -0.150307
C19   C     C_2   0.866873 0.504429 0.499351 -0.319415
C20   C     C_2   0.067627 0.460870 0.392317 -0.173928
C21   C     C_2   0.132744 0.484515 0.506924 -0.337962
C22   C     C_R   0.531690 0.066036 0.618542 0.063617
Cu1   Cu    Cu3+1 0.499990 0.499980 0.640670 0.963670
Cu2   Cu    Cu3+1 0.500010 0.500020 0.359330 0.979449
H1    H     H_    0.522265 0.115904 0.838336 0.226845
H2    H     H_    0.739079 0.591817 0.862373 0.232154
H3    H     H_    0.672226 0.748399 0.868578 0.146939
H4    H     H_    0.376111 0.886910 0.752158 0.201036
H5    H     H_    0.527100 0.897306 0.842216 0.196088
H6    H     H_    0.370759 0.105868 0.747996 0.221377
N1    N     N_R   0.500780 0.500930 0.147930 -0.198182
N2    N     N_R   0.500780 0.500890 0.852020 -0.213852
O1    O     O_R   0.500000 0.319640 0.618810 -0.540742
O2    O     O_R   0.500010 0.319680 0.381230 -0.546449
O3    O     O_R   0.321940 0.499980 0.618760 -0.596159
O4    O     O_R   0.321950 0.500020 0.381180 -0.586353
O5    O     O_R   0.499990 0.680320 0.618770 -0.577119
O6    O     O_R   0.500000 0.680360 0.381190 -0.597643
O7    O     O_R   0.678050 0.499980 0.618820 -0.591048
O8    O     O_R   0.678060 0.500020 0.381240 -0.524490
H7    H     H_    0.887379 0.407309 0.309757 0.189940
H8    H     H_    0.388719 0.340538 0.132252 0.176942
O9    O     O_3   0.364222 0.324877 0.858467 -0.588199
C23   C     C_3   0.239179 0.358369 0.855853 0.092216
H9    H     H_    0.204571 0.335096 0.750554 0.177096
H10   H     H_    0.223450 0.458592 0.873968 0.128927
C24   C     C_3   0.160987 0.283226 0.958634 -0.924237
H11   H     H_    0.183282 0.309126 0.067419 0.230691
H12   H     H_    0.062460 0.301233 0.942322 0.226754
H13   H     H_    0.175240 0.183783 0.940273 0.262226
O10   O     O_3   0.765358 0.576390 0.121888 -0.531106
C25   C     C_3   0.882442 0.636578 0.116261 0.090861
H14   H     H_    0.913281 0.653995 0.224436 0.168085
H15   H     H_    0.884877 0.727383 0.062529 0.114485
C26   C     C_3   0.974143 0.554410 0.040735 -0.839733
H16   H     H_    0.951190 0.545454 0.928700 0.233367
H17   H     H_    0.068299 0.594958 0.049049 0.202459
H18   H     H_    0.972087 0.461551 0.087400 0.251404
H19   H     H_    0.675239 0.748729 0.122493 0.052513
H20   H     H_    0.908512 0.551748 0.587092 0.137200
H21   H     H_    0.113712 0.445265 0.292351 0.163361
H22   H     H_    0.089711 0.490383 0.609604 0.136406
O11   O     O_3   0.449521 0.115004 0.251826 -0.567444
C27   C     C_3   0.322804 0.086608 0.233937 0.074541
H23   H     H_    0.273029 0.174083 0.227896 0.149328
H24   H     H_    0.277152 0.033934 0.321020 0.119769
C28   C     C_3   0.305331 0.014637 0.098549 -0.830910
H25   H     H_    0.205878 0.997820 0.080931 0.200794
H26   H     H_    0.350846 0.924583 0.102599 0.233257
H27   H     H_    0.345603 0.068115 0.010594 0.276819
H28   H     H_    0.488710 0.881518 0.276240 0.177122

loop_
_geom_bond_atom_site_label_1
_geom_bond_atom_site_label_2
_ccdc_geom_bond_type
C2    C22   A    
C8    C22   S    
Cu1   Cu2   S    
C23   C24   S    
C11   O9    S    
C6    C7    S    
C7    H5    S    
C15   O10   S    
C14   H3    S    
C12   O4    A    
C13   N2    A    
Cu2   O6    S    
C24   H11   S    
C25   C26   S    
C16   O5    A    
O9    C23   S    
C28   H27   S    
C8    H6    S    
C27   H23   S    
C7    H4    S    
C26   H16   S    
C2    C3    A    
C9    C15   S    
Cu2   N1    S    
C1    O1    A    
C7    C8    S    
C24   H12   S    
C13   C14   S    
C14   H2    S    
C12   O3    A    
C8    H1    S    
C21   H22   S    
Cu2   O4    S    
C28   H25   S    
Cu1   O7    S    
C10   N1    A    
C3    O11   S    
C17   C19   S    
C25   H15   S    
C11   N2    A    
C18   C19   D    
C24   H13   S    
Cu1   O3    S    
C26   H17   S    
C5    C6    A    
C19   H20   S    
C26   H18   S    
C10   H8    S    
C10   C11   A    
C9    N1    A    
C1    O2    A    
O11   C27   S    
C6    C22   A    
C27   C28   S    
C20   C21   D    
C3    C4    A    
C18   C20   S    
Cu1   O1    S    
C1    C2    S    
C17   O7    A    
C18   H7    S    
C16   O6    A    
C20   H21   S    
C9    C13   A    
C14   C15   S    
C5    C16   S    
C23   H10   S    
Cu2   O8    S    
Cu1   O5    S    
C15   H19   S    
C12   C21   S    
C4    H28   S    
Cu2   O2    S    
C23   H9    S    
O10   C25   S    
Cu1   N2    S    
C25   H14   S    
C4    C5    A    
C28   H26   S    
C17   O8    A    
C27   H24   S    
