data_mof_unit_6975.cif
_audit_creation_date              2012-12-10T17:31:21-0500
_audit_creation_method            fapswitch 2.2
_symmetry_space_group_name_H-M    P1
_symmetry_Int_Tables_number       1
_space_group_crystal_system       triclinic
_cell_length_a                    19.103736
_cell_length_b                    18.579006
_cell_length_c                    12.400126
_cell_angle_alpha                 90.009553
_cell_angle_beta                  129.825521
_cell_angle_gamma                 90.031207
_cell_volume                      3380.08010041

loop_
_atom_site_label
_atom_site_type_symbol
_atom_type_description
_atom_site_fract_x
_atom_site_fract_y
_atom_site_fract_z
_atom_type_partial_charge
C1    C     C_R   0.609737 0.896694 0.649976 0.816366
C2    C     C_R   0.609944 0.103231 0.650222 0.814075
C3    C     C_R   0.109739 0.396695 0.649977 0.816367
C4    C     C_R   0.109944 0.603231 0.650222 0.814077
C5    C     C_R   0.239251 0.778713 0.033290 0.107245
C6    C     C_R   0.237135 0.218813 0.029142 0.099626
C7    C     C_R   0.739254 0.278709 0.033297 0.107243
C8    C     C_R   0.737125 0.718805 0.029126 0.099628
C9    C     C_R   0.664167 0.268504 0.029682 0.158874
C10   C     C_R   0.663530 0.730941 0.028489 0.155985
C11   C     C_R   0.164160 0.768516 0.029665 0.158899
C12   C     C_R   0.163533 0.230941 0.028490 0.156006
C13   C     C_R   0.587401 0.231865 0.918101 -0.234137
C14   C     C_R   0.587417 0.768772 0.918668 -0.230056
C15   C     C_R   0.087393 0.731881 0.918080 -0.234203
C16   C     C_R   0.087418 0.268767 0.918661 -0.230060
C17   C     C_R   0.585716 0.202159 0.813983 -0.169559
C18   C     C_R   0.585233 0.798054 0.813873 -0.175450
C19   C     C_R   0.085712 0.702166 0.813971 -0.169534
C20   C     C_R   0.085238 0.298051 0.813871 -0.175449
C21   C     C_R   0.315488 0.815513 0.147889 -0.277366
C22   C     C_R   0.312653 0.180689 0.141949 -0.231765
C23   C     C_R   0.815489 0.315512 0.147891 -0.277370
C24   C     C_R   0.812644 0.680681 0.141933 -0.231772
C25   C     C_R   0.239595 0.837813 0.243138 -0.208244
C26   C     C_R   0.239805 0.162671 0.243253 -0.189354
C27   C     C_R   0.739603 0.337803 0.243153 -0.208252
C28   C     C_R   0.739807 0.662674 0.243257 -0.189306
C29   C     C_R   0.668113 0.166506 0.728788 -0.172373
C30   C     C_R   0.667199 0.833068 0.727528 -0.193889
C31   C     C_R   0.168114 0.666505 0.728789 -0.172377
C32   C     C_R   0.167208 0.333074 0.727538 -0.193839
C33   C     C_R   0.686022 0.990541 0.290986 0.407753
C34   C     C_R   0.186022 0.490539 0.290987 0.407745
C35   C     C_R   0.343840 0.990463 0.624593 0.031035
C36   C     C_R   0.843840 0.490462 0.624593 0.031045
C37   C     C_R   0.311908 0.971304 0.694179 -0.295242
C38   C     C_R   0.811908 0.471301 0.694179 -0.295236
C39   C     C_R   0.385004 0.099313 0.343346 0.778154
C40   C     C_R   0.385354 0.900357 0.343925 0.772775
C41   C     C_R   0.885003 0.599313 0.343345 0.778160
C42   C     C_R   0.885355 0.400356 0.343926 0.772768
C43   C     C_R   0.372721 0.966774 0.839925 -0.122558
C44   C     C_R   0.872721 0.466770 0.839924 -0.122380
C45   C     C_R   0.464062 0.988610 0.919993 0.041549
C46   C     C_R   0.964062 0.488604 0.919993 0.041392
C47   C     C_R   0.495646 0.998190 0.843515 0.270354
C48   C     C_R   0.995647 0.498186 0.843515 0.270273
C49   C     C_R   0.526993 0.992399 0.072017 -0.179047
C50   C     C_R   0.026994 0.492395 0.072017 -0.179125
C51   C     C_R   0.621762 0.991296 0.142999 -0.000692
C52   C     C_R   0.121762 0.491292 0.143000 -0.000669
C53   C     C_R   0.651628 0.993995 0.065389 -0.201713
C54   C     C_R   0.151628 0.493992 0.065389 -0.201713
C55   C     C_R   0.590237 0.999997 0.919936 -0.192342
C56   C     C_R   0.090237 0.499995 0.919936 -0.192330
C57   C     C_R   0.500666 0.003099 0.156409 0.597719
C58   C     C_R   0.000667 0.503097 0.156409 0.597689
C59   C     C_R   0.655716 0.991146 0.367791 -0.128039
C60   C     C_R   0.155716 0.491146 0.367791 -0.128047
C61   C     C_R   0.665579 0.296990 0.135784 -0.196084
C62   C     C_R   0.665870 0.703553 0.136137 -0.178751
C63   C     C_R   0.165569 0.797006 0.135762 -0.196112
C64   C     C_R   0.165868 0.203548 0.136130 -0.178771
C65   C     C_R   0.313793 0.848592 0.247171 -0.049325
C66   C     C_R   0.312696 0.150135 0.244815 -0.063799
C67   C     C_R   0.813796 0.348588 0.247176 -0.049325
C68   C     C_R   0.812693 0.650133 0.244810 -0.063824
C69   C     C_R   0.734345 0.185376 0.717491 -0.292650
C70   C     C_R   0.732880 0.814028 0.715236 -0.249312
C71   C     C_R   0.234349 0.685372 0.717497 -0.292643
C72   C     C_R   0.232900 0.314043 0.715263 -0.249476
C73   C     C_R   0.296927 0.740561 0.800240 0.556855
C74   C     C_R   0.293958 0.258456 0.794847 0.544956
C75   C     C_R   0.796922 0.240565 0.800234 0.556853
C76   C     C_R   0.793924 0.758429 0.794785 0.544997
C77   C     C_R   0.301005 0.769731 0.907688 -0.270872
C78   C     C_R   0.297690 0.227546 0.901513 -0.295818
C79   C     C_R   0.801002 0.269733 0.907685 -0.270877
C80   C     C_R   0.797658 0.727519 0.901463 -0.296005
C81   C     C_R   0.735888 0.251286 0.923095 0.004686
C82   C     C_R   0.733427 0.746346 0.918597 0.016227
C83   C     C_R   0.235887 0.751287 0.923092 0.004689
C84   C     C_R   0.233444 0.246359 0.918623 0.016164
C85   C     C_R   0.662570 0.205842 0.821268 0.074449
C86   C     C_R   0.661243 0.793243 0.819209 0.077910
C87   C     C_R   0.162569 0.705844 0.821264 0.074443
C88   C     C_R   0.161254 0.293248 0.819221 0.077905
Cu1   Cu    Cu3+1 0.526340 0.000000 0.421010 0.949942
Cu2   Cu    Cu3+1 0.026340 0.500000 0.421010 0.949932
Cu3   Cu    Cu3+1 0.473640 0.000000 0.578990 0.903758
Cu4   Cu    Cu3+1 0.973640 0.500000 0.578990 0.903769
H1    H     H_    0.237508 0.862625 0.320101 0.146010
H2    H     H_    0.238782 0.139381 0.322311 0.152183
H3    H     H_    0.737518 0.362613 0.320120 0.146013
H4    H     H_    0.738789 0.639389 0.322322 0.152245
H5    H     H_    0.723714 0.993881 0.117533 0.193229
H6    H     H_    0.223714 0.493878 0.117534 0.193228
H7    H     H_    0.297525 0.991015 0.511056 0.132899
H8    H     H_    0.797525 0.491014 0.511056 0.132909
H9    H     H_    0.349776 0.937185 0.885391 0.141532
H10   H     H_    0.849775 0.437183 0.885390 0.141512
H11   H     H_    0.241456 0.955396 0.635070 0.146625
H12   H     H_    0.741456 0.455394 0.635070 0.146609
H13   H     H_    0.620057 0.003075 0.871045 0.207994
H14   H     H_    0.120057 0.503075 0.871046 0.207997
H15   H     H_    0.528422 0.226185 0.911477 0.199707
H16   H     H_    0.529493 0.776120 0.914257 0.206276
H17   H     H_    0.028409 0.726212 0.911447 0.199604
H18   H     H_    0.029489 0.276109 0.914239 0.206279
H19   H     H_    0.608184 0.289650 0.133104 0.144173
H20   H     H_    0.609538 0.712350 0.135555 0.143338
H21   H     H_    0.108169 0.789671 0.133074 0.144141
H22   H     H_    0.109531 0.212340 0.135539 0.143322
H23   H     H_    0.377117 0.819625 0.161795 0.147177
H24   H     H_    0.372777 0.174078 0.152500 0.181315
H25   H     H_    0.877115 0.319628 0.161791 0.147172
H26   H     H_    0.872765 0.674068 0.152477 0.181321
H27   H     H_    0.738297 0.156713 0.645545 0.164180
H28   H     H_    0.736715 0.841915 0.642416 0.182616
H29   H     H_    0.238303 0.656707 0.645554 0.164180
H30   H     H_    0.236738 0.341929 0.642446 0.182611
H31   H     H_    0.353158 0.809616 0.972868 0.135037
H32   H     H_    0.349671 0.187699 0.966290 0.169894
H33   H     H_    0.853155 0.309618 0.972865 0.135038
H34   H     H_    0.849626 0.687666 0.966238 0.169862
H35   H     H_    0.521848 0.178960 0.725474 0.179727
H36   H     H_    0.521704 0.822171 0.726822 0.176618
H37   H     H_    0.021844 0.678966 0.725463 0.179758
H38   H     H_    0.021707 0.322163 0.726812 0.176611
H39   H     H_    0.704266 0.987269 0.481109 0.166193
H40   H     H_    0.204266 0.487270 0.481110 0.166192
N1    N     N_R   0.566260 0.000000 0.302220 -0.237451
N2    N     N_R   0.066260 0.500000 0.302220 -0.237438
N3    N     N_R   0.434410 0.000000 0.697680 -0.212425
N4    N     N_R   0.934410 0.500000 0.697680 -0.212422
O1    O     O_R   0.608610 0.924520 0.551740 -0.580006
O2    O     O_R   0.608610 0.075480 0.551740 -0.574586
O3    O     O_R   0.108610 0.424520 0.551740 -0.580007
O4    O     O_R   0.108610 0.575480 0.551740 -0.574587
O5    O     O_R   0.564110 0.924510 0.685150 -0.599951
O6    O     O_R   0.564110 0.075490 0.685150 -0.608138
O7    O     O_R   0.064110 0.424510 0.685150 -0.599945
O8    O     O_R   0.064110 0.575490 0.685150 -0.608141
O9    O     O_R   0.435880 0.075470 0.314850 -0.537067
O10   O     O_R   0.435880 0.924530 0.314850 -0.591417
O11   O     O_R   0.935880 0.575470 0.314850 -0.537072
O12   O     O_R   0.935880 0.424530 0.314850 -0.591418
O13   O     O_R   0.391380 0.075460 0.448260 -0.597916
O14   O     O_R   0.391380 0.924540 0.448260 -0.597793
O15   O     O_R   0.891380 0.575460 0.448260 -0.597900
O16   O     O_R   0.891380 0.424540 0.448260 -0.597792
O17   O     O_3   0.778303 0.985363 0.360412 -0.570802
C89   C     C_3   0.818642 0.053406 0.417017 -0.333278
H41   H     H_    0.786023 0.095540 0.333889 0.162056
H42   H     H_    0.891442 0.050332 0.465169 0.197190
H43   H     H_    0.816153 0.069190 0.501074 0.157393
O18   O     O_3   0.278303 0.485361 0.360413 -0.570805
C90   C     C_3   0.318643 0.553404 0.417016 -0.333280
H44   H     H_    0.286022 0.595537 0.333887 0.162050
H45   H     H_    0.391442 0.550329 0.465165 0.197196
H46   H     H_    0.316155 0.569188 0.501074 0.157396
O19   O     O_3   0.419777 0.040080 0.096447 -0.589327
C91   C     C_3   0.347359 0.994674 0.057823 -0.224812
H47   H     H_    0.323665 0.008050 0.116449 0.189889
H48   H     H_    0.363244 0.936340 0.069874 0.126662
H49   H     H_    0.287047 0.006083 0.947146 0.144032
O20   O     O_3   0.919777 0.540079 0.096446 -0.589376
C92   C     C_3   0.847359 0.494674 0.057822 -0.224786
H50   H     H_    0.823665 0.508051 0.116448 0.189886
H51   H     H_    0.863243 0.436340 0.069873 0.126663
H52   H     H_    0.787047 0.506083 0.947144 0.144034
O21   O     O_3   0.361075 0.762582 0.788336 -0.603080
C93   C     C_3   0.318909 0.779881 0.647637 -0.351256
H53   H     H_    0.253792 0.809888 0.594334 0.159900
H54   H     H_    0.307701 0.730593 0.587638 0.164199
H55   H     H_    0.365328 0.815431 0.647117 0.197081
O22   O     O_3   0.355146 0.240120 0.774890 -0.597526
C94   C     C_3   0.345078 0.166628 0.738512 -0.337425
H56   H     H_    0.272237 0.150706 0.657204 0.164496
H57   H     H_    0.379264 0.132082 0.833018 0.190140
H58   H     H_    0.378967 0.156723 0.693420 0.192896
O23   O     O_3   0.861070 0.262588 0.788330 -0.603081
C95   C     C_3   0.818905 0.279881 0.647630 -0.351266
H59   H     H_    0.753785 0.309884 0.594317 0.159903
H60   H     H_    0.807705 0.230591 0.587640 0.164199
H61   H     H_    0.865322 0.315433 0.647107 0.197085
O24   O     O_3   0.855079 0.740092 0.774751 -0.597518
C96   C     C_3   0.845380 0.666510 0.739110 -0.337405
H62   H     H_    0.772608 0.650236 0.658470 0.164631
H63   H     H_    0.880147 0.632238 0.834075 0.190059
H64   H     H_    0.878927 0.656612 0.693473 0.192928

loop_
_geom_bond_atom_site_label_1
_geom_bond_atom_site_label_2
_ccdc_geom_bond_type
C26   H2    S    
C83   C87   A    
C19   H37   S    
C92   H50   S    
C14   C18   A    
C53   C55   A    
C27   H3    S    
O19   C91   S    
C13   H15   S    
C75   O23   S    
C39   C66   S    
C60   H40   S    
Cu3   N3    S    
Cu2   O3    S    
C16   H18   S    
C32   C72   A    
C10   C62   A    
O21   C93   S    
C58   N2    A    
Cu1   O9    S    
C59   H39   S    
C18   C86   A    
C55   H13   S    
C2    C29   S    
C9    C61   A    
C1    C30   S    
C91   H47   S    
C28   C68   A    
C5    C11   A    
C19   C87   A    
C6    C12   A    
Cu2   N2    S    
C33   O17   S    
C77   C83   A    
C6    C22   A    
C49   C57   A    
C95   H59   S    
C48   C56   A    
C25   C63   A    
C23   C67   A    
C96   H63   S    
Cu4   O7    S    
C9    C13   A    
C93   H53   S    
C22   C66   A    
C38   H12   S    
C34   C52   A    
C27   C61   A    
C18   H36   S    
C11   C15   A    
C1    O5    A    
C12   C16   A    
C70   H28   S    
C49   C51   A    
C41   O11   A    
Cu4   O16   S    
C50   C52   A    
C90   H45   S    
C30   C86   A    
C78   H32   S    
C29   C85   A    
C76   O24   S    
C21   H23   S    
Cu3   O6    S    
C72   H30   S    
C22   H24   S    
C79   H33   S    
C42   O12   A    
C33   C59   A    
C34   C60   A    
C92   H51   S    
C57   N1    A    
Cu4   N4    S    
C35   H7    S    
C36   N4    A    
C21   C65   A    
C30   C70   A    
C52   C54   A    
O22   C94   S    
C41   C68   S    
C54   C56   A    
C45   C47   A    
Cu1   O10   S    
C46   C48   A    
C14   H16   S    
Cu1   N1    S    
C40   O14   A    
C57   O19   S    
C2    O2    A    
C84   C88   A    
C6    C84   A    
C89   H43   S    
C72   C74   A    
C10   C14   A    
C35   N3    A    
Cu3   O13   S    
C44   H10   S    
C17   H35   S    
C44   C46   A    
C53   H5    S    
C82   C86   A    
C59   N1    A    
C94   H56   S    
O24   C96   S    
C51   C53   A    
C5    C21   A    
C26   C66   A    
C23   H25   S    
C37   C43   A    
C96   H64   S    
C15   C19   A    
O23   C95   S    
C43   H9    S    
C38   C44   A    
Cu2   O11   S    
C77   H31   S    
C4    O4    A    
Cu2   Cu4   S    
C90   H44   S    
C74   O22   S    
C45   C49   A    
C25   H1    S    
C16   C20   A    
C39   O9    A    
Cu4   O15   S    
C90   H46   S    
C3    O7    A    
C3    C32   S    
C36   H8    S    
C43   C45   A    
C93   H55   S    
C56   H14   S    
C89   H41   S    
C34   O18   S    
C80   C82   A    
O20   C92   S    
C7    C81   A    
Cu1   O2    S    
Cu1   O1    S    
C40   C65   S    
C70   C76   A    
C42   C67   S    
C2    O6    A    
C92   H52   S    
C17   C85   A    
C31   C87   A    
C3    O3    A    
Cu2   O12   S    
C36   C38   A    
C61   H19   S    
C60   N2    A    
C1    O1    A    
C58   O20   S    
C35   C37   A    
C47   C55   A    
C7    C9    A    
C12   C64   A    
C46   C50   A    
C47   N3    A    
C89   H42   S    
C48   N4    A    
C91   H49   S    
C54   H6    S    
C76   C80   A    
C20   H38   S    
C4    O8    A    
Cu3   O14   S    
C37   H11   S    
C41   O15   A    
C26   C64   A    
C33   C51   A    
C39   O13   A    
C79   C81   A    
C95   H60   S    
C95   H61   S    
C40   O10   A    
C28   H4    S    
C94   H58   S    
C91   H48   S    
C15   H17   S    
O18   C90   S    
C7    C23   A    
C80   H34   S    
C5    C83   A    
C20   C88   A    
C31   C71   A    
C24   H26   S    
C8    C24   A    
C69   H27   S    
C69   C75   A    
C73   O21   S    
C96   H62   S    
Cu4   O8    S    
C93   H54   S    
C4    C31   S    
C27   C67   A    
C24   C68   A    
C13   C17   A    
C63   H21   S    
C78   C84   A    
C8    C82   A    
C62   H20   S    
C64   H22   S    
C8    C10   A    
Cu1   Cu3   S    
C74   C78   A    
C71   C73   A    
C71   H29   S    
C25   C65   A    
C73   C77   A    
C29   C69   A    
Cu2   O4    S    
Cu3   O5    S    
O17   C89   S    
C11   C63   A    
C75   C79   A    
C81   C85   A    
C50   C58   A    
C28   C62   A    
C42   O16   A    
C94   H57   S    
C32   C88   A    
