data_mof_unit_34417.cif
_audit_creation_date              2012-12-11T15:39:29-0500
_audit_creation_method            fapswitch 2.2
_symmetry_space_group_name_H-M    P1
_symmetry_Int_Tables_number       1
_space_group_crystal_system       triclinic
_cell_length_a                    14.253548
_cell_length_b                    14.799441
_cell_length_c                    33.188382
_cell_angle_alpha                 97.650495
_cell_angle_beta                  90.641115
_cell_angle_gamma                 118.560687
_cell_volume                      6071.6784059

loop_
_atom_site_label
_atom_site_type_symbol
_atom_type_description
_atom_site_fract_x
_atom_site_fract_y
_atom_site_fract_z
_atom_type_partial_charge
C1    C     C_R   0.618002 0.909311 0.437307 0.568076
C2    C     C_R   0.711113 0.436073 0.949330 0.529732
C3    C     C_R   0.661717 0.789919 0.769929 -0.069324
C4    C     C_R   0.658604 0.817806 0.731570 -0.026435
C5    C     C_R   0.671503 0.759016 0.696852 0.046602
C6    C     C_R   0.694927 0.678034 0.701692 0.285034
C7    C     C_R   0.699508 0.653177 0.740763 -0.090306
C8    C     C_R   0.680604 0.707506 0.774597 -0.001386
C9    C     C_R   0.555711 0.744134 0.635924 0.279466
C10   C     C_R   0.546962 0.783295 0.601021 -0.113927
C11   C     C_R   0.741363 0.887235 0.602555 0.001307
C12   C     C_3   0.472935 0.308044 0.422529 -0.231975
C13   C     C_R   0.742758 0.716848 0.945774 0.572667
C14   C     C_3   0.458562 0.399962 0.413399 -0.264124
C15   C     C_3   0.370674 0.406473 0.437571 -0.407397
C16   C     C_3   0.845712 0.016138 0.319570 -0.253038
C17   C     C_3   0.934762 0.103808 0.350059 -0.309607
C18   C     C_3   0.033394 0.169781 0.328623 -0.428721
C19   C     C_3   0.487056 0.331844 0.899415 -0.214798
C20   C     C_3   0.436839 0.250441 0.927968 -0.296386
C21   C     C_3   0.335786 0.247849 0.943974 -0.439097
C22   C     C_3   0.007522 0.879831 0.712656 -0.248836
C23   C     C_3   0.047221 0.994161 0.731167 -0.330289
C24   C     C_R   0.842457 0.466055 0.168218 -0.132402
C25   C     C_3   0.978717 0.036705 0.714446 -0.393791
C26   C     C_3   0.088422 0.686705 0.558235 -0.243672
C27   C     C_3   0.025366 0.713982 0.528839 -0.322904
C28   C     C_3   0.963122 0.624335 0.494082 -0.400204
C29   C     C_3   0.815437 0.272222 0.214962 -0.249598
C30   C     C_3   0.860772 0.212465 0.235489 -0.312407
C31   C     C_3   0.919667 0.173738 0.205894 -0.452275
C32   C     C_3   0.648626 0.914642 0.729464 -0.250248
C33   C     C_3   0.535186 0.896162 0.736534 -0.282624
C34   C     C_3   0.528595 0.996169 0.736740 -0.438919
C35   C     C_R   0.840876 0.483669 0.128193 -0.123663
C36   C     C_3   0.845595 0.956805 0.585203 -0.238627
C37   C     C_3   0.913058 0.902124 0.575360 -0.323215
C38   C     C_3   0.019246 0.974969 0.559639 -0.436767
C39   C     C_R   0.774695 0.332362 0.243747 0.018407
C40   C     C_R   0.759225 0.317047 0.284667 -0.055733
C41   C     C_R   0.722494 0.374047 0.310549 0.060643
C42   C     C_R   0.707480 0.451684 0.296740 -0.054290
C43   C     C_R   0.717681 0.464749 0.256130 -0.104586
C44   C     C_R   0.747672 0.403568 0.229256 0.022013
C45   C     C_R   0.746236 0.414038 0.185985 0.018078
C46   C     C_R   0.587696 0.315007 0.362601 0.277388
C47   C     C_R   0.595881 0.210116 0.458041 0.588150
C48   C     C_R   0.567253 0.301066 0.403582 -0.048638
C49   C     C_R   0.745298 0.318333 0.416108 0.237042
C50   C     C_R   0.771493 0.353869 0.378823 -0.165989
C51   C     C_R   0.693018 0.347593 0.351333 -0.045646
C52   C     C_R   0.638753 0.281996 0.427204 -0.026204
C53   C     C_R   0.239962 0.876862 0.394056 0.008808
C54   C     C_R   0.224791 0.957036 0.381945 -0.112045
C55   C     C_R   0.197113 0.953672 0.341051 -0.080128
C56   C     C_R   0.749000 0.850669 0.638786 -0.115809
C57   C     C_R   0.184671 0.870542 0.311892 0.034715
C58   C     C_R   0.191576 0.786824 0.324084 -0.112527
C59   C     C_R   0.294536 0.892558 0.434563 0.534476
C60   C     C_R   0.218326 0.789524 0.364990 -0.112038
C61   C     C_R   0.186367 0.801765 0.165138 -0.114642
C62   C     C_R   0.161264 0.780873 0.123033 -0.129030
C63   C     C_R   0.093022 0.903561 0.129239 -0.129076
C64   C     C_R   0.117534 0.923815 0.171503 -0.113664
C65   C     C_R   0.160548 0.869935 0.189569 0.039871
C66   C     C_1   0.168582 0.875548 0.233070 -0.020172
C67   C     C_R   0.657937 0.781722 0.655957 0.034078
C68   C     C_1   0.174447 0.874721 0.269203 -0.013667
C69   C     C_R   0.109610 0.827818 0.104884 0.019044
C70   C     C_R   0.643402 0.876175 0.396458 -0.005666
C71   C     C_R   0.615616 0.904011 0.550983 0.532632
C72   C     C_R   0.575287 0.779365 0.371738 0.256950
C73   C     C_R   0.587564 0.767234 0.329907 -0.098967
C74   C     C_R   0.670517 0.846393 0.313020 -0.012580
C75   C     C_R   0.749068 0.936349 0.338189 0.002145
C76   C     C_R   0.733140 0.950723 0.379702 -0.149202
C77   C     C_R   0.787304 0.898254 0.177351 -0.122279
C78   C     C_R   0.637430 0.858011 0.584748 -0.025013
C79   C     C_R   0.802245 0.892266 0.135873 -0.130609
C80   C     C_R   0.616575 0.757747 0.120627 -0.122426
C81   C     C_R   0.601230 0.765707 0.162145 -0.108572
C82   C     C_R   0.687623 0.833677 0.190523 0.040684
C83   C     C_R   0.589731 0.199087 0.571301 0.566598
C84   C     C_1   0.676953 0.833606 0.233290 -0.027545
C85   C     C_1   0.672308 0.836553 0.269480 -0.029846
C86   C     C_R   0.718248 0.818645 0.107293 0.024397
C87   C     C_R   0.622441 0.243338 0.615326 -0.044438
C88   C     C_R   0.562092 0.276155 0.641243 0.260346
C89   C     C_R   0.052122 0.781047 0.063917 0.541223
C90   C     C_R   0.580634 0.287206 0.683662 -0.119355
C91   C     C_R   0.659501 0.269848 0.700908 -0.026494
C92   C     C_R   0.725491 0.245840 0.675563 0.271743
C93   C     C_R   0.707272 0.234538 0.633300 -0.142930
C94   C     C_R   0.758024 0.310851 0.850845 0.266455
C95   C     C_R   0.289876 0.887728 0.548758 0.519431
C96   C     C_R   0.764504 0.348153 0.892373 -0.118166
C97   C     C_R   0.587974 0.334657 0.883725 -0.013717
C98   C     C_R   0.585386 0.302916 0.841748 -0.142104
C99   C     C_R   0.671468 0.295996 0.825015 -0.003442
C100  C     C_R   0.744868 0.487366 0.066315 0.543816
C101  C     C_1   0.671856 0.282803 0.781220 0.077600
C102  C     C_1   0.668828 0.276272 0.744597 0.085660
C103  C     C_R   0.684058 0.367458 0.908953 -0.029398
C104  C     C_R   0.079882 0.760578 0.911092 -0.026983
C105  C     C_R   0.105187 0.855603 0.898518 -0.154445
C106  C     C_R   0.137128 0.872593 0.859693 -0.177399
C107  C     C_R   0.742999 0.452487 0.105802 0.022909
C108  C     C_R   0.143982 0.794913 0.832697 0.009966
C109  C     C_R   0.130192 0.703262 0.846752 0.259093
C110  C     C_R   0.098526 0.687612 0.886113 -0.094048
C111  C     C_R   0.743037 0.789095 0.066387 0.553782
C112  C     C_R   0.230836 0.802487 0.767386 -0.072463
C113  C     C_R   0.231067 0.809001 0.726100 -0.124049
C114  C     C_R   0.155764 0.828302 0.706995 0.037153
C115  C     C_R   0.078794 0.841471 0.729586 0.034877
C116  C     C_R   0.073879 0.825746 0.770319 -0.078742
C117  C     C_R   0.149592 0.806364 0.789353 0.053380
C118  C     C_R   0.250727 0.942845 0.657900 -0.129478
C119  C     C_R   0.646466 0.399586 0.123589 -0.128137
C120  C     C_R   0.283982 0.955290 0.619140 -0.110411
C121  C     C_R   0.148855 0.776043 0.592845 -0.003482
C122  C     C_R   0.023334 0.733007 0.947903 0.540411
C123  C     C_R   0.117024 0.764222 0.632589 -0.070090
C124  C     C_R   0.170020 0.846584 0.664929 0.003323
C125  C     C_R   0.236684 0.871929 0.586657 0.033863
C126  C     C_R   0.724189 0.702151 0.901000 -0.029144
C127  C     C_R   0.626085 0.628218 0.879361 -0.108806
C128  C     C_R   0.611193 0.622299 0.836869 0.262763
C129  C     C_R   0.696315 0.691086 0.816246 0.012180
C130  C     C_R   0.795442 0.759931 0.837697 -0.157345
C131  C     C_R   0.648156 0.379960 0.163487 -0.113812
C132  C     C_R   0.809418 0.765031 0.879462 -0.129648
Cr1   Cr    Cr6+3 0.424820 0.846020 0.489780 1.071856
Cr2   Cr    Cr6+3 0.657880 0.078580 0.505700 1.097125
Cr3   Cr    Cr6+3 0.417280 0.075360 0.504550 1.060595
Cr4   Cr    Cr6+3 0.903360 0.812540 0.006510 1.009667
Cr5   Cr    Cr6+3 0.914630 0.587050 0.006280 1.025169
Cr6   Cr    Cr6+3 0.673560 0.582680 0.008540 1.011351
H1    H     H_    0.570322 0.375873 0.107067 0.125616
H2    H     H_    0.916769 0.526782 0.115582 0.136285
H3    H     H_    0.276269 0.627498 0.658609 0.375285
H4    H     H_    0.004604 0.998463 0.530805 0.162585
H5    H     H_    0.065956 0.045624 0.582750 0.189615
H6    H     H_    0.067551 0.934767 0.553681 0.150689
H7    H     H_    0.931537 0.876371 0.602887 0.184734
H8    H     H_    0.867378 0.832302 0.551741 0.177395
H9    H     H_    0.832464 0.981219 0.556653 0.186504
H10   H     H_    0.892343 0.028360 0.607909 0.187222
H11   H     H_    0.444949 0.187459 0.261947 0.365684
H12   H     H_    0.190268 0.018017 0.331919 0.152810
H13   H     H_    0.881648 0.939129 0.126580 0.118841
H14   H     H_    0.854788 0.949614 0.199291 0.101487
H15   H     H_    0.788073 0.022708 0.398881 0.178245
H16   H     H_    0.523690 0.715488 0.172195 0.113513
H17   H     H_    0.550782 0.699923 0.099194 0.121533
H18   H     H_    0.531507 0.696139 0.310190 0.163650
H19   H     H_    0.835241 0.366727 0.911553 0.183848
H20   H     H_    0.852485 0.381319 0.369985 0.161590
H21   H     H_    0.918738 0.495780 0.185723 0.106539
H22   H     H_    0.756669 0.212894 0.614212 0.187974
H23   H     H_    0.516557 0.285691 0.821561 0.155838
H24   H     H_    0.532233 0.308457 0.703597 0.177793
H25   H     H_    0.094254 0.914428 0.917745 0.132682
H26   H     H_    0.081843 0.615387 0.896398 0.184570
H27   H     H_    0.053925 0.690104 0.638763 0.163355
H28   H     H_    0.771031 0.258212 0.296471 0.110996
H29   H     H_    0.293053 0.803407 0.709197 0.152956
H30   H     H_    0.294512 0.795500 0.782079 0.167314
H31   H     H_    0.149900 0.944141 0.849694 0.117061
H32   H     H_    0.175293 0.722414 0.105115 0.127262
H33   H     H_    0.012936 0.832166 0.787696 0.096512
H34   H     H_    0.292849 0.006181 0.682990 0.120388
H35   H     H_    0.352321 0.028531 0.615169 0.165789
H36   H     H_    0.560617 0.578271 0.895672 0.152940
H37   H     H_    0.886551 0.821229 0.895236 0.146327
H38   H     H_    0.826744 0.876874 0.654278 0.125915
H39   H     H_    0.653069 0.835150 0.796717 0.139776
H40   H     H_    0.719625 0.593030 0.745116 0.172135
H41   H     H_    0.467106 0.756610 0.587133 0.184929
H42   H     H_    0.860673 0.813984 0.822333 0.114973
H43   H     H_    0.220165 0.760072 0.178868 0.110984
H44   H     H_    0.573320 0.340910 0.177296 0.129582
H45   H     H_    0.682684 0.498573 0.316987 0.151099
H46   H     H_    0.699973 0.521364 0.245316 0.124264
H47   H     H_    0.295119 0.330886 0.431629 0.157192
H48   H     H_    0.395913 0.426769 0.470779 0.170213
H49   H     H_    0.354263 0.467009 0.428146 0.219722
H50   H     H_    0.535130 0.473996 0.421548 0.207014
H51   H     H_    0.434275 0.390684 0.380846 0.273047
H52   H     H_    0.397640 0.233309 0.413784 0.197603
H53   H     H_    0.487782 0.323090 0.456244 0.179237
H54   H     H_    0.181165 0.721643 0.301697 0.120484
H55   H     H_    0.891827 0.351025 0.512910 0.362748
H56   H     H_    0.067190 0.121166 0.313788 0.158676
H57   H     H_    0.012161 0.205490 0.305221 0.152711
H58   H     H_    0.095635 0.232985 0.351319 0.182454
H59   H     H_    0.904998 0.155441 0.365436 0.207595
H60   H     H_    0.959266 0.069900 0.373354 0.172113
H61   H     H_    0.881654 0.973607 0.301357 0.151322
H62   H     H_    0.817161 0.051512 0.298298 0.144378
H63   H     H_    0.468975 0.653864 0.455787 0.356154
H64   H     H_    0.005351 0.294029 0.856426 0.384740
H65   H     H_    0.228195 0.726158 0.373329 0.184463
H66   H     H_    0.993055 0.329933 0.720723 0.382777
H67   H     H_    0.374591 0.374712 0.653616 0.395562
H68   H     H_    0.355296 0.324831 0.961623 0.166416
H69   H     H_    0.275150 0.227708 0.918248 0.165856
H70   H     H_    0.301055 0.188039 0.964337 0.142460
H71   H     H_    0.415522 0.172114 0.911070 0.162447
H72   H     H_    0.494582 0.267705 0.954354 0.185647
H73   H     H_    0.502935 0.409891 0.914266 0.185239
H74   H     H_    0.426112 0.310354 0.873578 0.173296
H75   H     H_    0.984018 0.035910 0.681056 0.163757
H76   H     H_    0.240133 0.025153 0.403590 0.131598
H77   H     H_    0.893870 0.989730 0.720898 0.162996
H78   H     H_    0.008360 0.118415 0.729353 0.206542
H79   H     H_    0.045018 0.001439 0.764876 0.165608
H80   H     H_    0.131521 0.042508 0.724220 0.181083
H81   H     H_    0.006123 0.873087 0.678916 0.177782
H82   H     H_    0.923936 0.830905 0.720136 0.160510
H83   H     H_    0.108476 0.541665 0.751252 0.385148
H84   H     H_    0.018940 0.605305 0.476526 0.207246
H85   H     H_    0.903761 0.554628 0.506348 0.216278
H86   H     H_    0.919530 0.647066 0.473176 0.146867
H87   H     H_    0.097523 0.976987 0.190201 0.107622
H88   H     H_    0.967820 0.731599 0.545823 0.176663
H89   H     H_    0.080676 0.783634 0.515482 0.159597
H90   H     H_    0.144718 0.666391 0.541737 0.188345
H91   H     H_    0.030866 0.615700 0.570440 0.161758
H92   H     H_    0.864142 0.120258 0.179269 0.164835
H93   H     H_    0.987837 0.240362 0.194997 0.157062
H94   H     H_    0.952172 0.131873 0.221762 0.136002
H95   H     H_    0.918642 0.264621 0.261818 0.160882
H96   H     H_    0.794318 0.144394 0.246371 0.164516
H97   H     H_    0.749576 0.217172 0.191479 0.159484
H98   H     H_    0.053343 0.940923 0.116166 0.121929
H99   H     H_    0.881193 0.328713 0.199198 0.145935
H100  H     H_    0.584434 0.057084 0.761686 0.200420
H101  H     H_    0.549325 0.024645 0.707039 0.169988
H102  H     H_    0.446097 0.981481 0.741948 0.128674
H103  H     H_    0.477765 0.835881 0.711867 0.225531
H104  H     H_    0.511691 0.868303 0.766205 0.185097
H105  H     H_    0.706848 0.978127 0.753229 0.206512
H106  H     H_    0.670553 0.942916 0.699836 0.175194
H107  H     H_    0.495495 0.467058 0.748791 0.388096
H108  H     H_    0.668297 0.565635 0.595882 0.370738
O1    O     O_R   0.318160 0.824460 0.443680 -0.476357
O2    O     O_R   0.668160 0.499860 0.053480 -0.513687
O3    O     O_R   0.689170 0.693840 0.050110 -0.491946
O4    O     O_R   0.525040 0.857250 0.449830 -0.437211
O5    O     O_R   0.803860 0.812940 0.962540 -0.501582
O6    O     O_R   0.982950 0.787950 0.964120 -0.524877
O7    O     O_R   0.007050 0.649970 0.960540 -0.506226
O8    O     O_R   0.807910 0.482370 0.965590 -0.496724
O9    O     O_R   0.643310 0.460980 0.963840 -0.531973
O10   O     O_R   0.666140 0.657800 0.967020 -0.498439
O11   O     O_3   0.830520 0.660760 0.007110 -0.262574
O12   O     O_R   0.645130 0.163230 0.552140 -0.503102
O13   O     O_R   0.684760 0.998800 0.456360 -0.503202
O14   O     O_R   0.647540 0.166310 0.470260 -0.407485
O15   O     O_R   0.500960 0.181750 0.467450 -0.541687
O16   O     O_R   0.331100 0.981120 0.457080 -0.510372
O17   O     O_R   0.315560 0.821140 0.532010 -0.513537
O18   O     O_R   0.522630 0.854180 0.531710 -0.505899
O19   O     O_R   0.682160 0.995480 0.544690 -0.519559
O20   O     O_2   0.848508 0.221713 0.440445 -0.295328
O21   O     O_2   0.956466 0.408155 0.438496 -0.317725
O22   O     O_3   0.832278 0.351322 0.497363 -0.536822
O23   O     O_R   0.498360 0.178430 0.555780 -0.434028
O24   O     O_2   0.377817 0.678647 0.395894 -0.298005
O25   O     O_2   0.452073 0.571754 0.363255 -0.288827
O26   O     O_3   0.526895 0.666169 0.437474 -0.547969
O27   O     O_2   0.808777 0.169144 0.816261 -0.290915
O28   O     O_2   0.906273 0.344043 0.797877 -0.160465
O29   O     O_3   0.955603 0.316109 0.869224 -0.519987
O30   O     O_2   0.794095 0.165818 0.729700 -0.271591
O31   O     O_2   0.862763 0.170237 0.662371 -0.344260
O32   O     O_3   0.935710 0.344785 0.712107 -0.445920
O33   O     O_2   0.498569 0.358232 0.585946 -0.212039
O34   O     O_R   0.328690 0.978040 0.538950 -0.500590
O35   O     O_2   0.359540 0.207358 0.612347 -0.326603
O36   O     O_3   0.448174 0.386653 0.659704 -0.457910
O37   O     O_2   0.259483 0.639485 0.810275 -0.262021
O38   O     O_2   0.100362 0.507335 0.835753 -0.201887
O39   O     O_3   0.074627 0.573192 0.769962 -0.473885
O40   O     O_2   0.407670 0.470883 0.839254 -0.263971
O41   O     O_2   0.441089 0.587861 0.789160 -0.205247
O42   O     O_3   0.502969 0.447749 0.775625 -0.542350
O43   O     O_2   0.833089 0.684346 0.647124 -0.371157
O44   O     O_2   0.727780 0.518050 0.671434 -0.253404
O45   O     O_3   0.499990 0.999990 0.500010 -0.270351
O46   O     O_3   0.632429 0.573434 0.620465 -0.422316
O47   O     O_2   0.397950 0.548001 0.622426 -0.216360
O48   O     O_2   0.449432 0.627389 0.694271 -0.245160
O49   O     O_3   0.341699 0.685199 0.650330 -0.582250
O50   O     O_2   0.374343 0.200406 0.338595 -0.329748
O51   O     O_2   0.476364 0.361290 0.310123 -0.301404
O52   O     O_3   0.501356 0.202172 0.283442 -0.516230
O53   O     O_R   0.828710 0.851830 0.052170 -0.513170
O54   O     O_R   0.005980 0.823990 0.047210 -0.501565
O55   O     O_R   0.031900 0.688850 0.050170 -0.516837
O56   O     O_R   0.830940 0.518420 0.048680 -0.500389
S1    S     S_3+6 0.849685 0.324643 0.448014 -0.013414
S2    S     S_3+6 0.480394 0.270224 0.323738 -0.021627
S3    S     S_3+6 0.478321 0.670267 0.391645 -0.012756
S4    S     S_3+6 0.858699 0.283725 0.832072 0.051584
S5    S     S_3+6 0.830026 0.227359 0.695159 0.016421
S6    S     S_3+6 0.464397 0.306166 0.623091 0.069643
S7    S     S_3+6 0.142988 0.603071 0.815753 0.048447
S8    S     S_3+6 0.485847 0.531302 0.810382 0.036462
S9    S     S_3+6 0.725105 0.611559 0.659852 0.026584
S10   S     S_3+6 0.435462 0.647229 0.651958 0.022175

loop_
_geom_bond_atom_site_label_1
_geom_bond_atom_site_label_2
_ccdc_geom_bond_type
Cr1   O18   S    
C126  C127  A    
C16   C75   S    
C59   O16   A    
O21   S1    D    
C19   C20   S    
C5    C67   S    
Cr6   O3    S    
C114  C115  A    
C47   O15   A    
C15   H47   S    
C5    C6    A    
O24   S3    D    
C58   C60   A    
H11   O52   S    
C76   H15   S    
C108  C109  A    
C73   C74   A    
O42   S8    S    
C80   C86   A    
C14   H51   S    
C36   H10   S    
C31   H93   S    
C17   H59   S    
C20   H72   S    
C34   H102  S    
C95   O17   A    
O44   S9    D    
C2    O8    A    
C104  C105  A    
C77   C79   A    
C62   H32   S    
C46   C48   A    
C18   H58   S    
C19   H74   S    
Cr2   O45   S    
C3    C8    A    
C110  H26   S    
C120  C125  A    
C72   C73   A    
C116  H33   S    
C132  H37   S    
C47   C52   S    
C75   C76   A    
C37   C38   S    
C6    S9    S    
Cr2   O12   S    
Cr5   O56   S    
C118  C124  A    
C94   C96   A    
C97   C103  A    
C99   C101  S    
C82   C84   S    
C55   C57   A    
C58   H54   S    
C90   C91   A    
Cr6   O9    S    
C39   C40   A    
O28   S4    D    
C71   O18   A    
C54   H76   S    
C4    C5    A    
O38   S7    D    
C6    C7    A    
C92   S5    S    
Cr5   O11   S    
C1    C70   S    
C25   H75   S    
C32   C33   S    
C104  C110  A    
O29   S4    S    
C27   H89   S    
C30   C31   S    
O39   S7    S    
C77   C82   A    
O51   S2    D    
C30   H95   S    
C34   H100  S    
C118  C120  A    
C121  C123  A    
C35   C107  A    
C122  O6    A    
C61   C65   A    
C48   C52   A    
C20   C21   S    
C28   H84   S    
C98   C99   A    
C94   S4    S    
C8    C129  S    
C22   C23   S    
Cr4   O6    S    
C41   C51   S    
C11   C56   A    
O32   S5    S    
C22   H81   S    
C23   H79   S    
C18   H56   S    
C38   H5    S    
C33   H103  S    
C128  C129  A    
C122  O7    A    
C97   C98   A    
C10   C78   A    
C123  C124  A    
C53   C54   A    
C50   H20   S    
H108  O46   S    
C56   H38   S    
C10   H41   S    
Cr1   O45   S    
C36   C37   S    
C131  H44   S    
C104  C122  S    
C120  H35   S    
Cr3   O23   S    
C83   O12   A    
C29   H97   S    
C63   H98   S    
O47   S10   D    
C63   C69   A    
C119  C131  A    
C26   C121  S    
C9    C10   A    
C16   H62   S    
C89   O55   A    
Cr2   O19   S    
C96   H19   S    
C32   H106  S    
O22   S1    S    
C69   C89   S    
C77   H14   S    
C64   H87   S    
C53   C60   A    
C13   O5    A    
C25   H77   S    
C91   C92   A    
C16   C17   S    
C46   C51   A    
C21   H68   S    
C9    C67   A    
C121  C125  A    
C29   C30   S    
O36   S6    S    
O49   S10   S    
C126  C132  A    
C28   H86   S    
C17   C18   S    
C130  H42   S    
C88   S6    S    
C57   C68   S    
C3    C4    A    
C80   H17   S    
C129  C130  A    
O50   S2    D    
C54   C55   A    
C40   C41   A    
C95   O34   A    
C108  C117  S    
O27   S4    D    
C39   C44   A    
C86   C111  S    
C57   C58   A    
C106  C108  A    
C87   C93   A    
O25   S3    D    
C74   C85   S    
C61   C62   A    
C63   C64   A    
Cr3   O16   S    
C49   C50   A    
Cr4   O11   S    
C14   C15   S    
C59   O1    A    
O43   S9    D    
C83   C87   S    
C87   C88   A    
C101  C102  T    
H67   O36   S    
C41   C42   A    
C12   C48   S    
C2    O9    A    
C24   H21   S    
O40   S8    D    
C26   C27   S    
C19   H73   S    
C21   H70   S    
C112  C117  A    
Cr1   O17   S    
C26   H90   S    
Cr2   O13   S    
C105  H25   S    
Cr5   O55   S    
C37   H8    S    
Cr5   O8    S    
Cr4   O53   S    
Cr6   O10   S    
C107  C119  A    
C26   H91   S    
C19   C97   S    
C15   H48   S    
C49   S1    S    
C84   C85   T    
C13   O10   A    
Cr3   O34   S    
C62   C69   A    
C93   H22   S    
C130  C132  A    
C100  O2    A    
C35   H2    S    
C14   H50   S    
C36   H9    S    
C118  H34   S    
C49   C52   A    
C31   H94   S    
C50   C51   A    
C17   H60   S    
C20   H71   S    
C30   H96   S    
C34   H101  S    
C72   S3    S    
Cr1   O1    S    
C13   C126  S    
C90   H24   S    
C45   C131  A    
C111  O53   A    
C42   C43   A    
C127  C128  A    
O31   S5    D    
C98   H23   S    
C44   C45   S    
C113  C114  A    
C12   H53   S    
C22   H82   S    
C18   H57   S    
H55   O22   S    
C38   H6    S    
C113  H29   S    
O37   S7    D    
C105  C106  A    
C61   H43   S    
C119  H1    S    
C64   C65   A    
O46   S9    S    
C109  C110  A    
O33   S6    D    
C2    C103  S    
C73   H18   S    
C92   C93   A    
O41   S8    D    
C46   S2    S    
O48   S10   D    
C7    H40   S    
C96   C103  A    
O20   S1    D    
O26   S3    S    
H63   O26   S    
C79   C86   A    
C115  C116  A    
C89   O54   A    
C1    O13   A    
C66   C68   T    
C7    C8    A    
C4    C32   S    
C43   C44   A    
C81   C82   A    
C53   C59   S    
C9    S10   S    
C24   C45   A    
C11   C36   S    
O30   S5    D    
H3    O49   S    
C112  H30   S    
C31   H92   S    
C43   H46   S    
C128  S8    S    
C116  C117  A    
C83   O23   A    
Cr4   O5    S    
H66   O32   S    
C47   O14   A    
C40   H28   S    
C114  C124  S    
Cr6   O11   S    
C71   O19   A    
H107  O42   S    
C38   H4    S    
C33   H104  S    
C29   H99   S    
C112  C113  A    
C24   C35   A    
C74   C75   A    
C1    O4    A    
C15   H49   S    
C81   H16   S    
H83   O39   S    
C11   C78   A    
C95   C125  S    
C60   H65   S    
C29   C39   S    
C33   C34   S    
O52   S2    S    
C16   H61   S    
C22   C115  S    
C12   C14   S    
Cr3   O15   S    
C32   H105  S    
C70   C76   A    
C106  H31   S    
C91   C102  S    
C55   H12   S    
C79   H13   S    
C100  C107  S    
C25   H78   S    
C88   C90   A    
C80   C81   A    
C27   H88   S    
C42   H45   S    
C111  O3    A    
C56   C67   A    
C12   H52   S    
C21   H69   S    
C3    H39   S    
O35   S6    D    
C94   C99   A    
C127  H36   S    
C28   H85   S    
C23   C25   S    
C100  O56   A    
C23   H80   S    
Cr6   O2    S    
C123  H27   S    
H64   O29   S    
Cr2   O14   S    
C65   C66   S    
C109  S7    S    
C27   C28   S    
C70   C72   A    
C37   H7    S    
Cr3   O45   S    
Cr1   O4    S    
C71   C78   S    
Cr5   O7    S    
Cr4   O54   S    
