data_mof_unit_19300.cif
_audit_creation_date              2012-12-11T18:13:12-0500
_audit_creation_method            fapswitch 2.2
_symmetry_space_group_name_H-M    P1
_symmetry_Int_Tables_number       1
_space_group_crystal_system       triclinic
_cell_length_a                    8.204317
_cell_length_b                    12.820705
_cell_length_c                    18.709948
_cell_angle_alpha                 99.962248
_cell_angle_beta                  90.805212
_cell_angle_gamma                 98.618813
_cell_volume                      1914.82965329

loop_
_atom_site_label
_atom_site_type_symbol
_atom_type_description
_atom_site_fract_x
_atom_site_fract_y
_atom_site_fract_z
_atom_type_partial_charge
Ba1   Ba    Ba6+2 0.852780 0.548340 0.465070 1.645307
Ba2   Ba    Ba6+2 0.337060 0.451750 0.534940 1.659514
C1    C     C_3   0.605401 0.902906 0.255986 -0.129002
C2    C     C_3   0.649149 0.816494 0.297185 0.340006
C3    C     C_3   0.467442 0.277876 0.313959 0.335714
C4    C     C_3   0.461252 0.245845 0.231710 -0.385278
C5    C     C_3   0.106702 0.270447 0.736489 0.497048
C6    C     C_3   0.093937 0.270930 0.818127 -0.096358
C7    C     C_3   0.637591 0.205844 0.719039 0.391234
C8    C     C_3   0.672455 0.126861 0.767543 -0.330259
C9    C     C_R   0.995128 0.452161 0.048689 0.005994
C10   C     C_R   0.892617 0.398811 0.095251 0.032716
C11   C     C_R   0.729004 0.355940 0.072205 -0.082679
C12   C     C_3   0.139741 0.755454 0.264435 0.358830
C13   C     C_R   0.667658 0.365933 0.003985 -0.089309
C14   C     C_R   0.769518 0.417350 0.956742 0.026467
C15   C     C_R   0.934000 0.460742 0.978910 0.020747
C16   C     C_R   0.709677 0.423929 0.887359 -0.102943
C17   C     C_R   0.813504 0.469283 0.837529 -0.034710
C18   C     C_R   0.977798 0.517072 0.860441 -0.039880
C19   C     C_R   0.036923 0.512672 0.931537 -0.015821
C20   C     C_R   0.760333 0.464257 0.764504 -0.000629
C21   C     C_R   0.869558 0.501771 0.715613 -0.304290
C22   C     C_R   0.027067 0.555516 0.737435 0.067584
C23   C     C_3   0.121312 0.777210 0.187584 -0.383859
C24   C     C_R   0.083205 0.567514 0.812111 -0.021462
C25   C     C_R   0.158593 0.496321 0.071688 -0.007851
C26   C     C_R   0.217296 0.492978 0.143008 -0.007269
C27   C     C_R   0.111444 0.443929 0.191546 -0.044179
C28   C     C_R   0.953315 0.391083 0.164637 -0.039019
C29   C     C_R   0.239692 0.624936 0.840615 0.151996
C30   C     C_R   0.302965 0.612039 0.908929 0.017949
C31   C     C_R   0.200833 0.556359 0.954482 -0.011235
C32   C     C_R   0.261769 0.547419 0.024214 0.020445
C33   C     C_R   0.467122 0.654903 0.933074 -0.084366
C34   C     C_3   0.243968 0.780760 0.615931 0.273492
C35   C     C_R   0.528095 0.642922 0.000467 -0.085267
C36   C     C_R   0.425931 0.590903 0.046783 0.029871
C37   C     C_R   0.381278 0.540397 0.165824 -0.044688
C38   C     C_R   0.485423 0.584715 0.116010 -0.110931
C39   C     C_R   0.434861 0.545171 0.238446 0.000028
C40   C     C_R   0.326055 0.504495 0.287310 -0.301077
C41   C     C_R   0.166774 0.452127 0.265461 0.040091
C42   C     C_R   0.765953 0.180043 0.524168 -0.292044
C43   C     C_R   0.432516 0.806943 0.466536 -0.279623
C44   C     C_R   0.402068 0.982809 0.443890 -0.125628
C45   C     C_3   0.322384 0.898348 0.635467 0.254730
C46   C     C_R   0.339760 0.874489 0.438353 -0.017445
C47   C     C_R   0.580940 0.847670 0.506549 0.047934
C48   C     C_R   0.645728 0.959229 0.512671 -0.063656
C49   C     C_R   0.555275 0.026713 0.479668 -0.048899
C50   C     C_R   0.618065 0.137484 0.485702 0.050175
C51   C     C_R   0.858960 0.115118 0.553543 -0.018068
C52   C     C_R   0.797299 0.006150 0.550274 -0.078634
C53   C     C_3   0.978801 0.210392 0.379080 0.362162
C54   C     C_3   0.013945 0.095417 0.362000 -0.070938
C55   C     C_3   0.732088 0.711744 0.683387 0.302782
C56   C     C_3   0.774834 0.755351 0.763693 -0.405106
H1    H     H_    0.748476 0.852726 0.338910 0.079617
H2    H     H_    0.312552 0.938137 0.587946 -0.013523
H3    H     H_    0.454768 0.904310 0.650844 0.019206
H4    H     H_    0.851126 0.210339 0.396129 -0.069870
H5    H     H_    0.064581 0.253675 0.424320 0.059810
H6    H     H_    0.900562 0.041075 0.338825 0.066787
H7    H     H_    0.049432 0.070685 0.413335 0.068594
H8    H     H_    0.840715 0.681379 0.657973 0.000751
H9    H     H_    0.626381 0.645568 0.678442 0.061207
H10   H     H_    0.594299 0.976566 0.295586 0.090569
H11   H     H_    0.900817 0.802290 0.770807 0.175543
H12   H     H_    0.770424 0.688788 0.794649 0.046199
H13   H     H_    0.685779 0.808088 0.786767 0.141010
H14   H     H_    0.537661 0.788273 0.325606 -0.075151
H15   H     H_    0.483577 0.874744 0.226948 0.092425
H16   H     H_    0.345562 0.297871 0.331420 0.016152
H17   H     H_    0.563490 0.349559 0.329127 0.055487
H18   H     H_    0.364106 0.175576 0.213945 0.130272
H19   H     H_    0.433384 0.313226 0.206001 0.048156
H20   H     H_    0.582263 0.224754 0.213468 0.123587
H21   H     H_    0.178252 0.718634 0.149071 0.080662
H22   H     H_    0.237198 0.284839 0.723808 0.133439
H23   H     H_    0.045557 0.336878 0.723972 -0.106764
H24   H     H_    0.177079 0.342527 0.847373 0.070612
H25   H     H_    0.966471 0.278501 0.834719 0.039616
H26   H     H_    0.757501 0.254300 0.710826 -0.079482
H27   H     H_    0.587100 0.160661 0.665255 0.053130
H28   H     H_    0.766648 0.079283 0.743358 0.133185
H29   H     H_    0.560403 0.070269 0.773997 0.193457
H30   H     H_    0.066628 0.676051 0.267074 0.090439
H31   H     H_    0.717057 0.170558 0.822366 0.094091
H32   H     H_    0.647589 0.315581 0.107253 0.065771
H33   H     H_    0.540536 0.332489 0.987897 0.079676
H34   H     H_    0.829074 0.490655 0.659109 0.057083
H35   H     H_    0.582237 0.391079 0.872443 0.117610
H36   H     H_    0.873229 0.346692 0.197937 0.099465
H37   H     H_    0.551425 0.697330 0.900218 0.061173
H38   H     H_    0.655020 0.676470 0.016966 0.070043
H39   H     H_    0.613023 0.617113 0.130650 0.110911
H40   H     H_    0.271967 0.753331 0.276257 -0.080345
H41   H     H_    0.368071 0.511063 0.343221 0.069267
H42   H     H_    0.327022 0.032696 0.422303 0.093604
H43   H     H_    0.869711 0.959562 0.576603 0.132857
H44   H     H_    0.812384 0.264728 0.529123 0.059470
H45   H     H_    0.382808 0.722823 0.461547 0.070814
H46   H     H_    0.988735 0.769770 0.171561 0.142780
H47   H     H_    0.183521 0.859279 0.184346 0.109210
H48   H     H_    0.334971 0.733802 0.588577 -0.042652
H49   H     H_    0.135896 0.773501 0.578297 0.019549
O1    O     O_2   0.873090 0.425890 0.325140 -0.463560
O2    O     O_3   0.690093 0.794574 0.650557 -0.639710
O3    O     O_3   0.081304 0.836532 0.313122 -0.611025
O4    O     O_2   0.316610 0.574140 0.674900 -0.458814
O5    O     O_3   0.067290 0.565720 0.585630 -0.501708
O6    O     O_3   0.530210 0.372990 0.631200 -0.469477
O7    O     O_3   0.194691 0.744230 0.679392 -0.582245
O8    O     O_3   0.611340 0.366290 0.463630 -0.478467
O9    O     O_3   0.108550 0.314140 0.595200 -0.507484
O10   O     O_2   0.202521 0.122024 0.576988 -0.453809
O11   O     O_3   0.033656 0.172392 0.694889 -0.560116
O12   O     O_3   0.122420 0.434370 0.414380 -0.503589
O13   O     O_3   0.578370 0.633800 0.536380 -0.486522
O14   O     O_2   0.341510 0.231850 0.465510 -0.485685
O15   O     O_3   0.504953 0.191746 0.344888 -0.634447
O16   O     O_2   0.416914 0.452743 0.759456 -0.530085
O17   O     O_3   0.521216 0.268037 0.751446 -0.575149
O18   O     O_3   0.659500 0.627100 0.368810 -0.472219
O19   O     O_2   0.774890 0.542851 0.244231 -0.492160
O20   O     O_3   0.994043 0.255154 0.315976 -0.631888
O21   O     O_3   0.705518 0.734209 0.248581 -0.606414
O22   O     O_2   0.848200 0.768190 0.534530 -0.480050
O23   O     O_3   0.081160 0.685950 0.404810 -0.478063
O24   O     O_2   0.000460 0.876801 0.448199 -0.495255
P1    P     P_3+3 0.041040 0.394770 0.336330 0.973358
P2    P     P_3+3 0.672880 0.754030 0.556100 0.962454
P3    P     P_3+3 0.127827 0.821296 0.401865 0.934792
P4    P     P_3+3 0.148670 0.605320 0.663680 1.013857
P5    P     P_3+3 0.054319 0.179207 0.602320 1.004714
P6    P     P_3+3 0.642745 0.610177 0.274692 0.951539
P7    P     P_3+3 0.522241 0.230381 0.439412 0.945882
P8    P     P_3+3 0.557299 0.394432 0.726043 0.927351
S1    S     S_3+6 0.228204 0.970358 0.709808 -0.054013
O25   O     O_2   0.267743 0.933979 0.779280 -0.293189
O26   O     O_2   0.298967 0.085855 0.715709 -0.259262
O27   O     O_3   0.022752 0.955958 0.696585 -0.503672
H50   H     H_    0.991385 0.884283 0.666560 0.319484
N1    N     N_3   0.147227 0.088117 0.311089 -0.468572
H51   H     H_    0.096906 0.080259 0.258405 0.192153
H52   H     H_    0.197139 0.018603 0.312746 0.199182
N2    N     N_3   0.728365 0.929249 0.203340 -0.482909
H53   H     H_    0.846832 0.935251 0.226400 0.204051
H54   H     H_    0.715329 0.866425 0.158786 0.203992
N3    N     N_3   0.142728 0.175073 0.838717 -0.375066
H55   H     H_    0.157253 0.188450 0.895344 0.163112
H56   H     H_    0.044379 0.112251 0.825005 0.255424
N4    N     N_3   0.328525 0.703092 0.803717 -0.431827
H57   H     H_    0.348511 0.776961 0.838929 0.200059
H58   H     H_    0.442454 0.680370 0.789938 0.179137

loop_
_geom_bond_atom_site_label_1
_geom_bond_atom_site_label_2
_ccdc_geom_bond_type
C53   C54   S    
O19   P6    D    
O13   P2    S    
C11   H32   S    
C6    H25   S    
C39   C40   A    
C52   H43   S    
C1    H10   S    
S1    O27   S    
C55   H8    S    
O24   P3    D    
C34   O7    S    
N1    H51   S    
C23   H47   S    
C5    C6    S    
C37   C39   A    
C51   C52   A    
C10   C11   A    
Ba2   O5    S    
C48   C52   A    
C6    H24   S    
O12   P1    S    
C46   P3    S    
C41   P1    S    
C33   C35   A    
C35   C36   A    
N2    H54   S    
C16   C17   A    
Ba1   P1    S    
Ba1   O22   S    
Ba1   O5    S    
C3    C4    S    
Ba2   O6    S    
C56   H13   S    
C4    H20   S    
C19   C31   A    
C54   H7    S    
C53   H4    S    
O16   P8    D    
C54   N1    S    
C7    O17   S    
C34   C45   S    
Ba1   Ba2   S    
Ba1   O12   S    
C3    H16   S    
O20   P1    S    
C47   P2    S    
C43   H45   S    
C7    H27   S    
C45   H2    S    
Ba2   O9    S    
C42   C51   A    
O4    P4    D    
C55   O2    S    
C17   C18   A    
C8    H31   S    
C14   C15   A    
C53   H5    S    
C45   S1    S    
C50   P7    S    
C21   C22   A    
C54   H6    S    
C43   C47   A    
C7    C8    S    
C39   P6    S    
C42   C50   A    
C24   C29   A    
C32   C36   A    
C27   C41   A    
C34   H49   S    
C5    O11   S    
O23   P3    S    
C51   P5    S    
C55   H9    S    
Ba1   P2    S    
N1    H52   S    
C12   H40   S    
C20   C21   A    
C25   C32   A    
C8    H29   S    
C44   C46   A    
Ba2   O4    S    
C13   C14   A    
C2    O21   S    
O2    P2    S    
C49   C50   A    
C30   C33   A    
C6    N3    S    
S1    O25   D    
O15   P7    S    
Ba1   O23   S    
C38   H39   S    
C42   H44   S    
C56   H12   S    
C4    H19   S    
C7    H26   S    
C26   C37   A    
O18   P6    S    
O17   P8    S    
C34   H48   S    
C44   C49   A    
C15   C19   A    
C35   H38   S    
Ba1   O13   S    
O14   P7    D    
C3    H17   S    
O21   P6    S    
C27   C28   A    
Ba2   O14   S    
Ba2   O8    S    
C29   C30   A    
O8    P7    S    
C9    C25   A    
N3    H55   S    
C17   C20   A    
O6    P8    S    
C48   C49   A    
C56   H11   S    
N2    H53   S    
N4    H57   S    
O7    P4    S    
O22   P2    D    
C22   P4    S    
C5    H23   S    
C53   O20   S    
C11   C13   A    
O3    P3    S    
C40   C41   A    
O5    P4    S    
C1    C2    S    
C2    H14   S    
C29   N4    S    
O11   P5    S    
C43   C46   A    
C12   O3    S    
C44   H42   S    
C26   C27   A    
Ba2   O13   S    
C10   C28   A    
C23   H21   S    
N4    H58   S    
C22   C24   A    
C9    C15   A    
C45   H3    S    
Ba2   O12   S    
C23   H46   S    
C4    H18   S    
O9    P5    S    
C33   H37   S    
Ba2   P4    S    
Ba1   O18   S    
C30   C31   A    
C12   H30   S    
C28   H36   S    
C40   H41   S    
C36   C38   A    
C8    H28   S    
C55   C56   S    
C18   C24   A    
C20   P8    S    
C2    H1    S    
C31   C32   A    
N3    H56   S    
C12   C23   S    
C1    H15   S    
O1    P1    D    
Ba1   O1    S    
C13   H33   S    
C37   C38   A    
C1    N2    S    
C18   C19   A    
C14   C16   A    
C47   C48   A    
C25   C26   A    
C16   H35   S    
C21   H34   S    
Ba1   O8    S    
S1    O26   D    
O10   P5    D    
C3    O15   S    
O27   H50   S    
C9    C10   A    
C5    H22   S    
