data_mof_unit_52882.cif
_audit_creation_date              2013-03-05T16:19:49-0500
_audit_creation_method            fapswitch 2.2
_symmetry_space_group_name_H-M    P1
_symmetry_Int_Tables_number       1
_space_group_crystal_system       triclinic
_cell_length_a                    8.619263
_cell_length_b                    18.997694
_cell_length_c                    26.771826
_cell_angle_alpha                 99.688816
_cell_angle_beta                  92.408642
_cell_angle_gamma                 87.811857
_cell_volume                      4315.28179476

loop_
_atom_site_label
_atom_site_type_symbol
_atom_site_description
_atom_site_fract_x
_atom_site_fract_y
_atom_site_fract_z
_atom_type_partial_charge
P1    P     P_3+3 0.929380 0.335110 0.452880 0.508942
O1    O     O_2   0.106080 0.324280 0.466820 -0.374533
O2    O     O_3   0.859130 0.413620 0.470620 -0.347357
O3    O     O_3   0.376230 0.370290 0.556910 -0.342293
O4    O     O_2   0.332985 0.253964 0.489727 -0.375054
O5    O     O_3   0.905457 0.309323 0.385991 -0.652559
O6    O     O_3   0.305577 0.225852 0.580619 -0.613592
H1    H     H_    0.132403 0.272417 0.622215 0.052128
C1    C     C_3   0.273081 0.208073 0.668323 0.410070
H2    H     H_    0.198796 0.163209 0.650557 0.014616
P2    P     P_3+3 0.398530 0.559060 0.613740 0.474674
P3    P     P_3+3 0.951451 0.427369 0.649892 0.417401
O7    O     O_2   0.227190 0.537650 0.620070 -0.346265
O8    O     O_3   0.971110 0.406970 0.583250 -0.367405
O9    O     O_2   0.098408 0.466715 0.671289 -0.408796
O10   O     O_3   0.360928 0.651994 0.624984 -0.593428
O11   O     O_3   0.976729 0.348244 0.675745 -0.544891
C2    C     C_3   0.833048 0.314978 0.671066 0.202963
H3    H     H_    0.784457 0.311606 0.631516 0.072106
H4    H     H_    0.759274 0.347757 0.699733 0.150397
C3    C     C_3   0.840326 0.238879 0.684876 -0.415079
H5    H     H_    0.923792 0.236098 0.716687 0.205034
C4    C     C_3   0.898434 0.630282 0.637309 0.315299
H6    H     H_    0.790259 0.600683 0.631755 0.015049
H7    H     H_    0.993484 0.594748 0.621780 0.174757
C5    C     C_3   0.932070 0.656147 0.693934 -0.455659
H8    H     H_    0.834816 0.692207 0.709399 0.188349
H9    H     H_    0.940065 0.609518 0.714048 0.176510
Ba1   Ba    Ba6+2 0.160810 0.465630 0.521640 1.579031
C6    C     C_3   0.043215 0.303824 0.357979 0.878791
H10   H     H_    0.146761 0.306556 0.383351 0.074704
C7    C     C_3   0.065546 0.230859 0.321081 -0.103933
H11   H     H_    0.190004 0.229394 0.311306 0.081589
C8    C     C_3   0.483849 0.690879 0.651688 1.032392
H12   H     H_    0.592210 0.678782 0.630860 0.007208
C9    C     C_3   0.508283 0.674642 0.705791 -1.001605
H13   H     H_    0.399628 0.656323 0.719331 0.296824
H14   H     H_    0.545954 0.722775 0.732449 0.251968
H15   H     H_    0.600787 0.633085 0.707294 0.182404
P4    P     P_3+3 0.880940 0.664900 0.547160 0.454651
O12   O     O_2   0.704230 0.675760 0.533200 -0.362034
O13   O     O_3   0.951180 0.586390 0.529420 -0.414491
O14   O     O_3   0.434080 0.629720 0.443130 -0.403876
O15   O     O_3   0.879333 0.689452 0.613138 -0.592858
P5    P     P_3+3 0.857582 0.588863 0.351228 0.465916
O16   O     O_3   0.351080 0.462080 0.440130 -0.316654
O17   O     O_3   0.839200 0.593040 0.416790 -0.387274
O18   O     O_2   0.736592 0.536420 0.323794 -0.383348
O19   O     O_3   0.794811 0.674099 0.340596 -0.523026
Ba2   Ba    Ba6+2 0.649380 0.534380 0.478400 1.579188
P6    P     P_3+3 0.408459 0.276333 0.543242 0.466436
C10   C     C_3   0.256381 0.261034 0.628775 0.499592
O20   O     O_3   0.459240 0.537930 0.559910 -0.378059
C11   C     C_3   0.548864 0.306312 0.359657 1.107025
H16   H     H_    0.644969 0.343257 0.366934 0.071227
C12   C     C_3   0.551577 0.274033 0.303097 -1.198577
H17   H     H_    0.550774 0.317571 0.280075 0.245655
H18   H     H_    0.658389 0.240136 0.295281 0.271673
H19   H     H_    0.448358 0.241353 0.291014 0.257548
P7    P     P_3+3 0.408910 0.434436 0.377813 0.478535
O21   O     O_2   0.583120 0.462390 0.379940 -0.411567
O22   O     O_3   0.404730 0.340874 0.371169 -0.621017
H20   H     H_    0.725504 0.227676 0.699159 0.211017
C13   C     C_3   0.844143 0.723469 0.383461 0.565514
H21   H     H_    0.770464 0.720510 0.416086 0.153880
H22   H     H_    0.966654 0.712180 0.395185 -0.010911
C14   C     C_3   0.832899 0.799722 0.372515 -1.096801
H23   H     H_    0.730296 0.828610 0.390628 0.268860
H24   H     H_    0.935219 0.829385 0.389489 0.228711
H25   H     H_    0.827718 0.800578 0.331106 0.273718
P8    P     P_3+3 0.401858 0.723414 0.446456 0.393885
C15   C     C_3   0.401583 0.748790 0.346063 0.618117
O23   O     O_2   0.524291 0.752506 0.487630 -0.384868
O24   O     O_3   0.481229 0.756467 0.394811 -0.590698
H26   H     H_    0.369852 0.865031 0.348954 0.131897
C16   C     C_3   0.427858 0.819149 0.325221 0.073170
H27   H     H_    0.554296 0.828432 0.327940 0.101346
C17   C     C_R   0.990673 0.048287 0.476546 -0.153749
C18   C     C_R   0.082418 0.099846 0.459267 0.615056
C19   C     C_R   0.148267 0.939934 0.437245 0.656950
C20   C     C_R   0.032373 0.973219 0.470455 -0.126462
C21   C     C_R   0.223082 0.877034 0.446566 -0.415114
C22   C     C_R   0.152967 0.831724 0.474116 -0.075668
C23   C     C_R   0.011646 0.855652 0.497822 0.017972
C24   C     C_R   0.955464 0.928095 0.498220 -0.011302
C25   C     C_R   0.216637 0.762412 0.477125 0.223724
C26   C     C_R   0.137997 0.719701 0.505017 -0.536671
C27   C     C_R   0.985882 0.736050 0.520823 0.208311
C28   C     C_R   0.928338 0.807789 0.521562 -0.022536
C29   C     C_R   0.856477 0.074570 0.503838 -0.009005
C30   C     C_R   0.806811 0.148682 0.507411 0.019129
C31   C     C_R   0.890715 0.196354 0.484081 -0.135256
C32   C     C_R   0.026972 0.169950 0.460385 -0.238474
H28   H     H_    0.196491 0.672377 0.514583 0.161178
H29   H     H_    0.330588 0.861660 0.428584 0.188924
H30   H     H_    0.095828 0.203031 0.442022 0.200109
C33   C     C_R   0.794786 0.834461 0.547226 -0.067164
C34   C     C_R   0.742762 0.905366 0.549146 -0.216028
C35   C     C_R   0.822150 0.954242 0.525575 0.078520
C36   C     C_R   0.772668 0.027774 0.528410 0.098450
C37   C     C_R   0.646852 0.057638 0.557752 -0.232306
C38   C     C_R   0.671803 0.174858 0.533807 -0.003981
C39   C     C_R   0.600703 0.129180 0.561011 -0.172405
C40   C     C_R   0.614224 0.246061 0.532749 0.156177
C41   C     C_R   0.701022 0.292085 0.510670 -0.364577
C42   C     C_R   0.837966 0.269278 0.486445 0.299764
H31   H     H_    0.731340 0.801768 0.568008 0.166921
H32   H     H_    0.509683 0.147902 0.586148 0.216240
H33   H     H_    0.654927 0.345568 0.509229 0.164751
H34   H     H_    0.638385 0.919892 0.569632 0.115934
H35   H     H_    0.582604 0.027664 0.580146 0.120807
C43   C     C_R   0.371351 0.470882 0.181352 0.515015
O25   O     O_2   0.477182 0.467001 0.212667 -0.599345
N1    N     N_R   0.219590 0.486032 0.196711 -0.158141
C44   C     C_R   0.102686 0.492773 0.160185 0.536492
C45   C     C_2   0.077957 0.546590 0.271114 -0.239375
C46   C     C_3   0.059725 0.564041 0.327915 -0.039644
C47   C     C_1   0.263769 0.471400 0.335862 0.155475
C48   C     C_2   0.274539 0.454381 0.286112 -0.250152
C49   C     C_2   0.185053 0.496312 0.250787 0.120393
C50   C     C_R   0.291405 0.476153 0.093783 -0.070124
C51   C     C_R   0.406495 0.461173 0.129620 -0.049308
C52   C     C_R   0.555443 0.438208 0.113163 -0.057822
C53   C     C_R   0.139107 0.493338 0.109268 -0.088742
C54   C     C_2   0.146535 0.511953 0.356667 0.363507
H36   H     H_    0.335960 0.405221 0.270487 0.177394
H37   H     H_    0.646829 0.426441 0.139857 0.188938
C55   C     C_2   0.650249 0.485570 0.638342 -0.465267
C56   C     C_R   0.508087 0.437862 0.973248 0.054238
C57   C     C_R   0.271092 0.509130 0.959839 0.046353
C58   C     C_R   0.410974 0.474409 0.941495 0.091007
C59   C     C_R   0.634864 0.395985 0.951693 -0.230546
C60   C     C_R   0.669581 0.393848 0.901003 -0.107813
C61   C     C_R   0.583984 0.436277 0.870798 -0.031428
C62   C     C_R   0.456154 0.477730 0.891472 -0.085416
C63   C     C_R   0.374818 0.523364 0.862611 -0.043989
C64   C     C_R   0.427768 0.530005 0.814552 0.527291
N2    N     N_R   0.548533 0.486222 0.792932 -0.160985
C65   C     C_R   0.622966 0.437897 0.820319 0.500269
C66   C     C_2   0.745499 0.486504 0.728502 -0.232970
C67   C     C_3   0.788580 0.489764 0.674457 0.135612
C68   C     C_1   0.514938 0.510302 0.655899 0.265267
C69   C     C_2   0.472747 0.500351 0.701024 -0.223378
C70   C     C_2   0.593877 0.490481 0.741435 0.119222
O26   O     O_2   0.722237 0.395751 0.800719 -0.618331
C71   C     C_R   0.476311 0.445659 0.025545 0.053107
C72   C     C_R   0.328913 0.473612 0.042337 0.071184
C73   C     C_R   0.219203 0.499102 0.008034 -0.062472
C74   C     C_R   0.588424 0.428489 0.061904 -0.248018
H38   H     H_    0.838464 0.484308 0.756862 0.183630
H39   H     H_    0.767545 0.360636 0.886068 0.162147
H40   H     H_    0.706658 0.363001 0.973125 0.129201
H41   H     H_    0.705452 0.411075 0.051869 0.135657
O27   O     O_2   0.966591 0.497589 0.171753 -0.599630
C75   C     C_R   0.025142 0.508642 0.073292 -0.160008
H42   H     H_    0.017590 0.581408 0.248046 0.197721
H43   H     H_    0.905724 0.517378 0.084298 0.182164
C76   C     C_R   0.193579 0.555865 0.930577 -0.202139
C77   C     C_R   0.245278 0.563300 0.883142 -0.102756
O28   O     O_2   0.367467 0.575742 0.792349 -0.620081
C78   C     C_R   0.062981 0.512822 0.023251 0.144716
H44   H     H_    0.098055 0.590689 0.945032 0.163824
H45   H     H_    0.182576 0.600441 0.862449 0.157406
H46   H     H_    0.351410 0.496494 0.708286 0.205655
H47   H     H_    0.662068 0.461550 0.598748 0.172651
N3    N     N_2   0.075982 0.694266 0.702512 -0.049996
H48   H     H_    0.085507 0.733210 0.680298 0.245630
C79   C     C_3   0.114176 0.720241 0.755365 -0.809477
H49   H     H_    0.225438 0.748531 0.758818 0.251808
H50   H     H_    0.127124 0.674934 0.776747 0.273159
H51   H     H_    0.021990 0.758409 0.772168 0.228762
O29   O     O_3   0.053230 0.360712 0.330268 -0.707071
C80   C     C_3   0.907029 0.391693 0.319029 -0.108060
H52   H     H_    0.864729 0.426767 0.353426 0.223023
H53   H     H_    0.819623 0.351540 0.304247 0.106174
H54   H     H_    0.920557 0.424223 0.288953 0.171001
N4    N     N_2   0.042718 0.169496 0.345876 -0.118768
H55   H     H_    0.123476 0.128278 0.336790 0.190666
C81   C     C_3   0.886281 0.144745 0.347628 -0.847502
H56   H     H_    0.835220 0.126721 0.309063 0.252740
H57   H     H_    0.812131 0.187303 0.368121 0.307104
H58   H     H_    0.887958 0.099036 0.368496 0.221529
N5    N     N_2   0.974959 0.225699 0.273219 -0.079259
H59   H     H_    0.969922 0.271830 0.257865 0.209161
C82   C     C_3   0.020258 0.166766 0.234161 -0.915899
H60   H     H_    0.935825 0.163701 0.201402 0.249562
H61   H     H_    0.021764 0.114950 0.248083 0.257329
H62   H     H_    0.137657 0.175267 0.220954 0.244300
O30   O     O_3   0.448843 0.765230 0.656335 -0.642990
C83   C     C_3   0.405703 0.784790 0.608993 -0.181429
H63   H     H_    0.471093 0.753579 0.577364 0.170090
H64   H     H_    0.430161 0.842095 0.610502 0.137572
H65   H     H_    0.278841 0.778094 0.601430 0.161563
N6    N     N_2   0.210935 0.237296 0.718074 -0.118438
H66   H     H_    0.170862 0.197149 0.735592 0.138798
C84   C     C_3   0.300322 0.287552 0.754595 -0.791142
H67   H     H_    0.426833 0.272674 0.754967 0.271213
H68   H     H_    0.260002 0.287181 0.793581 0.224569
H69   H     H_    0.278915 0.343258 0.747382 0.237779
N7    N     N_2   0.326554 0.329226 0.646334 -0.071165
H70   H     H_    0.261942 0.366166 0.669852 0.219480
C85   C     C_3   0.488593 0.329694 0.659624 -0.918853
H71   H     H_    0.505667 0.348012 0.701022 0.240345
H72   H     H_    0.543289 0.366494 0.638707 0.233301
H73   H     H_    0.545281 0.276981 0.646800 0.272915
O31   O     O_3   0.428593 0.182249 0.674318 -0.613830
C86   C     C_3   0.431981 0.111683 0.685089 -0.255514
H74   H     H_    0.402691 0.072919 0.650172 0.131287
H75   H     H_    0.352557 0.105673 0.715854 0.136319
H76   H     H_    0.551361 0.098277 0.698367 0.167579
O32   O     O_3   0.582049 0.255370 0.392070 -0.668743
C87   C     C_3   0.476492 0.199164 0.384794 -0.128437
H77   H     H_    0.499521 0.161229 0.349228 0.122779
H78   H     H_    0.353559 0.218880 0.385324 0.148941
H79   H     H_    0.495351 0.168681 0.416610 0.181867
N8    N     N_2   0.234963 0.737461 0.347887 -0.141092
H80   H     H_    0.179900 0.770571 0.376204 0.142801
C88   C     C_3   0.142712 0.729756 0.300725 -0.884582
H81   H     H_    0.093539 0.782846 0.294105 0.270470
H82   H     H_    0.044199 0.694919 0.303169 0.261049
H83   H     H_    0.210320 0.704229 0.267449 0.268986
N9    N     N_2   0.476277 0.689909 0.312429 -0.090547
H84   H     H_    0.473754 0.693401 0.274359 0.187447
C89   C     C_3   0.450330 0.618830 0.321535 -0.651424
H85   H     H_    0.489319 0.579150 0.288911 0.266470
H86   H     H_    0.326634 0.611687 0.325645 0.164365
H87   H     H_    0.513614 0.609539 0.356602 0.306547
O33   O     O_3   0.370025 0.815642 0.274596 -0.605045
C90   C     C_3   0.443111 0.866712 0.251385 -0.197172
H88   H     H_    0.566455 0.849523 0.243518 0.137436
H89   H     H_    0.437211 0.921258 0.274886 0.134437
H90   H     H_    0.381677 0.869841 0.214534 0.165545
O34   O     O_3   0.191917 0.966947 0.395294 -0.582533
C91   C     C_3   0.073303 0.955707 0.357217 -0.241622
H91   H     H_    0.957016 0.975216 0.371241 0.126908
H92   H     H_    0.070068 0.898356 0.340414 0.144677
H93   H     H_    0.100275 0.985528 0.326549 0.174027
O35   O     O_3   0.230413 0.085289 0.441608 -0.596015
C92   C     C_3   0.334340 0.078915 0.482680 -0.150112
H94   H     H_    0.321204 0.028397 0.497413 0.115674
H95   H     H_    0.319248 0.124130 0.514134 0.176797
H96   H     H_    0.454367 0.078581 0.469199 0.162308
N10   N     N_2   0.874333 0.183920 0.641342 -0.078494
H97   H     H_    0.949224 0.197075 0.615466 0.182438
C93   C     C_3   0.896705 0.111506 0.651926 -0.852510
H98   H     H_    0.946344 0.076329 0.618420 0.238289
H99   H     H_    0.783709 0.090395 0.659980 0.257902
H100  H     H_    0.977890 0.109669 0.685091 0.220656
N11   N     N_2   0.941501 0.519356 0.986343 -0.116893
H101  H     H_    0.911360 0.471570 0.964290 0.182059
C94   C     C_3   0.813807 0.569789 0.999947 -0.923155
H102  H     H_    0.748508 0.579202 0.964909 0.257350
H103  H     H_    0.858299 0.621662 0.019846 0.259185
H104  H     H_    0.732578 0.548255 0.024283 0.255112
O36   O     O_3   0.106752 0.510314 0.405734 -0.599518
C95   C     C_3   0.149165 0.575622 0.435505 0.176951
H105  H     H_    0.176011 0.619077 0.414359 -0.034296
H106  H     H_    0.236098 0.567563 0.465235 0.167671
H107  H     H_    0.056236 0.597667 0.458374 0.141543

loop_
_geom_bond_atom_site_label_1
_geom_bond_atom_site_label_2
_geom_bond_distance
_ccdc_geom_bond_type
N6    C84   1.462787 S    
C26   C27   1.402083 A    
C52   C74   1.393404 A    
P4    O12   1.567234 D    
C83   H63   1.109874 S    
C34   H34   1.076054 S    
Ba1   O13   2.850534 S    
C75   H43   1.081575 S    
C2    C3    1.549764 S    
P2    O7    1.570118 D    
O12   Ba2   2.881359 S    
C7    N5    1.463079 S    
C40   C41   1.390936 A    
C72   C73   1.419066 A    
C60   H39   1.083385 S    
C15   C16   1.560146 S    
C89   H85   1.108032 S    
C43   N1    1.392684 Am   
C33   C34   1.396670 A    
C82   H60   1.111116 S    
C94   H102  1.110433 S    
C80   H52   1.108176 S    
C75   C78   1.407810 A    
N11   H101  1.031945 S    
C85   H72   1.097152 S    
C41   C42   1.390053 A    
O1    Ba1   2.880877 S    
C73   C78   1.424987 A    
O7    Ba1   2.804076 S    
C9    H13   1.107016 S    
N8    C88   1.452625 S    
O6    C10   1.422295 S    
C8    H12   1.104683 S    
C90   H90   1.109354 S    
C58   C62   1.422414 A    
C1    O31   1.421735 S    
N5    C82   1.451267 S    
C6    H10   1.096054 S    
C82   H61   1.109127 S    
C16   O33   1.416045 S    
C69   C70   1.501358 S    
C71   C74   1.411175 A    
C26   H28   1.077083 S    
C84   H67   1.116031 S    
C45   C46   1.514418 S    
P7    O22   1.757910 S    
P1    O1    1.566955 D    
C4    C5    1.531949 S    
C54   O36   1.377172 S    
C74   H41   1.080038 S    
C47   C48   1.322979 D    
O33   C90   1.416620 S    
C50   C53   1.403232 A    
C83   H65   1.111831 S    
O10   C8    1.413379 S    
O35   C92   1.407074 S    
C63   C77   1.403889 A    
C88   H82   1.106990 S    
C79   H51   1.111643 S    
C5    N3    1.450683 S    
C92   H94   1.108579 S    
N7    H70   1.024687 S    
N4    C81   1.450023 S    
C85   H73   1.104744 S    
C95   H106  1.095678 S    
P3    O11   1.760284 S    
C86   H76   1.108935 S    
C83   H64   1.110526 S    
C4    H6    1.099037 S    
C50   C72   1.420462 A    
P7    C47   1.843848 S    
C39   H32   1.066470 S    
C10   N7    1.447778 S    
C47   C54   1.329757 D    
C6    C7    1.571311 S    
C1    H2    1.114558 S    
H1    C10   1.094932 S    
C2    H4    1.109520 S    
O3    Ba1   2.791279 S    
P2    O20   1.537670 S    
P1    C42   1.872299 S    
C3    N10   1.459515 S    
C81   H58   1.108175 S    
P4    O13   1.591687 S    
N6    H66   1.036868 S    
C37   C39   1.390962 A    
O19   C13   1.415837 S    
C93   H98   1.114856 S    
C81   H57   1.097204 S    
N3    C79   1.446449 S    
N3    H48   1.031826 S    
N9    H84   1.031707 S    
C1    C10   1.577559 S    
C91   H92   1.107481 S    
C84   H69   1.114536 S    
C29   C36   1.425047 A    
C43   O25   1.221391 D    
O2    Ba2   2.851161 S    
N1    C44   1.391903 Am   
O17   Ba2   2.761174 S    
Ba1   Ba2   4.702985 S    
P5    O17   1.757197 S    
C66   C67   1.520603 S    
C11   C12   1.535833 S    
N11   C94   1.448348 S    
Ba2   O20   2.773973 S    
C3    H20   1.116365 S    
C85   H71   1.109714 S    
O3    P6    1.774267 S    
C57   C73   1.427901 A    
C14   H23   1.108074 S    
C13   C14   1.524343 S    
C62   C63   1.404846 A    
C23   C24   1.439879 A    
C15   O24   1.436678 S    
C61   C65   1.411797 A    
P8    O23   1.541384 D    
O31   C86   1.416889 S    
C2    H3    1.114729 S    
C82   H62   1.112121 S    
C95   H107  1.058825 S    
C11   O22   1.404013 S    
N10   C93   1.454783 S    
P6    C40   1.861374 S    
O5    C6    1.422023 S    
C17   C29   1.423085 A    
C4    O15   1.389678 S    
C86   H74   1.114706 S    
C28   C33   1.399515 A    
P7    O21   1.607322 D    
C14   H24   1.104497 S    
C91   H93   1.109849 S    
C13   H22   1.112223 S    
C76   C77   1.394267 A    
C38   C40   1.427338 A    
H26   C16   1.104755 S    
N5    H59   1.027497 S    
C43   C51   1.410275 A    
C90   H88   1.118216 S    
C24   C35   1.417099 A    
P8    C25   1.893898 S    
P2    O10   1.760228 S    
C52   H37   1.083596 S    
O32   C87   1.412503 S    
P3    O9    1.535735 D    
P5    O19   1.752453 S    
N8    H80   1.021061 S    
C15   N9    1.459885 S    
C95   H105  1.112865 S    
C1    N6    1.468852 S    
P1    Ba1   3.471123 S    
O11   C2    1.403151 S    
C56   C71   1.420037 A    
C92   H95   1.105011 S    
C16   H27   1.108037 S    
N9    C89   1.439204 S    
C6    O29   1.417135 S    
C50   C51   1.405655 A    
C80   H53   1.106015 S    
C44   C53   1.413516 A    
O13   Ba2   3.008661 S    
C31   C42   1.433472 A    
C79   H49   1.110060 S    
C15   N8    1.464331 S    
P3    O8    1.774743 S    
C21   C22   1.393222 A    
C32   H30   1.070467 S    
C93   H99   1.110167 S    
C44   O27   1.221923 D    
C5    H8    1.110515 S    
C60   C61   1.404194 A    
C59   H40   1.079995 S    
C77   H45   1.083588 S    
C7    N4    1.458535 S    
C22   C23   1.420820 A    
C91   H91   1.113273 S    
O8    Ba1   2.760515 S    
C29   C30   1.444597 A    
O36   C95   1.409098 S    
C8    O30   1.418862 S    
C89   H87   1.102455 S    
C66   H38   1.085007 S    
C69   H46   1.079204 S    
C30   C31   1.418332 A    
O2    Ba1   3.007775 S    
O29   C80   1.412802 S    
C88   H83   1.115799 S    
C46   C54   1.510955 S    
C71   C72   1.419257 A    
C55   C67   1.499070 S    
P5    O18   1.545376 D    
P5    C46   1.891345 S    
O30   C83   1.411069 S    
C12   H17   1.111248 S    
C41   H33   1.082949 S    
C11   H16   1.096146 S    
C65   O26   1.221699 D    
O14   P8    1.778854 S    
C21   H29   1.070140 S    
C64   O28   1.221413 D    
O16   P7    1.750036 S    
C25   C26   1.401390 A    
C87   H79   1.111085 S    
C19   O34   1.382221 S    
C9    H15   1.104777 S    
C66   C70   1.362055 D    
C87   H78   1.110134 S    
C19   C20   1.423163 A    
C94   H104  1.109947 S    
C89   H86   1.092318 S    
P8    O24   1.782832 S    
C48   C49   1.506375 S    
C12   H19   1.109950 S    
O14   Ba2   2.790633 S    
C18   C32   1.393625 A    
C61   C62   1.406679 A    
C37   H35   1.075751 S    
C64   N2    1.390266 Am   
O16   Ba2   3.020195 S    
C5    H9    1.110056 S    
C35   C36   1.435478 A    
Ba1   O16   2.774674 S    
C57   C76   1.411795 A    
C14   H25   1.110456 S    
C7    H11   1.113047 S    
C56   C59   1.411404 A    
N4    H55   1.032163 S    
C9    H14   1.111064 S    
C57   C58   1.417723 A    
C53   C75   1.403562 A    
O6    P6    1.780425 S    
P3    C67   1.869883 S    
C90   H89   1.118688 S    
N2    C70   1.464664 S    
C13   H21   1.111395 S    
C78   N11   1.425656 S    
C17   C18   1.428696 A    
C17   C20   1.441214 A    
P4    C27   1.900034 S    
C88   H81   1.117832 S    
C55   H47   1.088546 S    
Ba1   O20   3.021152 S    
P4    Ba2   3.471773 S    
C79   H50   1.110905 S    
C31   C32   1.394241 A    
C80   H54   1.106663 S    
C19   C21   1.390699 A    
C12   H18   1.109776 S    
C59   C60   1.395523 A    
C92   H96   1.109359 S    
C8    C9    1.535344 S    
C4    H7    1.091632 S    
C11   O32   1.418478 S    
C38   C39   1.396392 A    
P2    C68   1.823291 S    
N1    C49   1.469451 S    
C45   H42   1.083454 S    
C84   H68   1.115069 S    
C94   H103  1.112214 S    
N2    C65   1.390706 Am   
C76   H44   1.079050 S    
C81   H56   1.109598 S    
C33   H31   1.078045 S    
C48   H36   1.084813 S    
C45   C49   1.363998 D    
P4    O15   1.749865 S    
C22   C25   1.420683 A    
C27   C28   1.429677 A    
P2    Ba1   3.436324 S    
N7    C85   1.426691 S    
C34   C35   1.417972 A    
C23   C28   1.424465 A    
C93   H100  1.111559 S    
P1    O5    1.780632 S    
C86   H75   1.115836 S    
Ba2   O21   2.804381 S    
C68   C69   1.321536 D    
O4    P6    1.547310 D    
C36   C37   1.410532 A    
C30   C38   1.416843 A    
C18   O35   1.380900 S    
P1    O2    1.591717 S    
C51   C52   1.404543 A    
C3    H5    1.098353 S    
C55   C68   1.315976 D    
C20   C24   1.423410 A    
C63   C64   1.409967 A    
N10   H97   1.033047 S    
O34   C91   1.409175 S    
C87   H77   1.113280 S    
C56   C58   1.414164 A    
