data_mof_unit_63811.cif
_audit_creation_date              2012-12-10T17:10:54-0500
_audit_creation_method            fapswitch 2.2
_symmetry_space_group_name_H-M    P1
_symmetry_Int_Tables_number       1
_space_group_crystal_system       triclinic
_cell_length_a                    18.536498
_cell_length_b                    19.256551
_cell_length_c                    18.73964
_cell_angle_alpha                 110.377548
_cell_angle_beta                  109.549181
_cell_angle_gamma                 110.121515
_cell_volume                      5042.51440598

loop_
_atom_site_label
_atom_site_type_symbol
_atom_type_description
_atom_site_fract_x
_atom_site_fract_y
_atom_site_fract_z
_atom_type_partial_charge
C1    C     C_R   0.622617 0.619667 0.501714 0.957710
C2    C     C_3   0.191579 0.418446 0.182023 0.262879
C3    C     C_3   0.213529 0.453945 0.278728 0.219744
C4    C     C_3   0.313468 0.497691 0.309442 -0.314047
C5    C     C_R   0.812772 0.738204 0.652412 0.300268
C6    C     C_R   0.882356 0.812717 0.735935 0.255523
C7    C     C_R   0.910422 0.894508 0.746208 -0.186784
C8    C     C_R   0.880013 0.901367 0.671549 0.272402
C9    C     C_R   0.823551 0.825944 0.586648 -0.037401
C10   C     C_R   0.775110 0.747595 0.579617 -0.088499
C11   C     C_R   0.690621 0.684314 0.501175 -0.106672
C12   C     C_R   0.379255 0.498829 0.378369 0.989841
C13   C     C_R   0.665023 0.693429 0.427005 0.237599
C14   C     C_R   0.724600 0.763212 0.430086 -0.121421
C15   C     C_R   0.806877 0.826946 0.508399 -0.113864
C16   C     C_R   0.569117 0.338661 0.615906 -0.106177
C17   C     C_R   0.547453 0.257677 0.602925 -0.166938
C18   C     C_R   0.611198 0.247837 0.654784 -0.097913
C19   C     C_R   0.697203 0.319075 0.722601 0.273819
C20   C     C_R   0.721933 0.406002 0.740381 -0.011330
C21   C     C_R   0.655779 0.412385 0.681686 0.059626
C22   C     C_R   0.675608 0.493216 0.690756 -0.138928
C23   C     C_R   0.378979 0.380177 0.499412 0.877007
C24   C     C_R   0.750374 0.569609 0.765352 -0.132667
C25   C     C_R   0.814805 0.567395 0.825870 0.366687
C26   C     C_R   0.805723 0.486942 0.811238 -0.214862
C27   C     C_R   0.220647 0.231462 0.333674 -0.218370
C28   C     C_R   0.152810 0.153859 0.253705 0.400375
C29   C     C_R   0.101125 0.082146 0.254913 0.378846
C30   C     C_R   0.114811 0.090154 0.335944 -0.262190
C31   C     C_R   0.180639 0.169900 0.417405 -0.001364
C32   C     C_R   0.238244 0.239094 0.416580 0.006630
C33   C     C_R   0.311732 0.313983 0.498675 -0.176606
C34   C     C_R   0.618421 0.498944 0.622014 0.946469
C35   C     C_R   0.324640 0.322652 0.580446 0.210627
C36   C     C_R   0.261092 0.258427 0.580832 0.229843
C37   C     C_R   0.190026 0.182335 0.499645 -0.188652
C38   C     C_R   0.002776 0.619700 0.122748 0.860654
C39   C     C_R   0.125764 0.500579 0.123716 0.995199
C40   C     C_R   0.009915 0.381570 0.888575 0.913056
C41   C     C_R   0.880226 0.492622 0.877210 0.903368
C42   C     C_R   0.997148 0.116811 0.621446 0.934386
C43   C     C_R   0.878220 0.885863 0.504634 0.953525
C44   C     C_R   0.995032 0.875207 0.379226 0.899708
C45   C     C_3   0.317764 0.581634 0.317634 -0.286870
C46   C     C_R   0.121373 0.119235 0.500414 0.901626
C47   C     C_R   0.843278 0.628487 0.070384 -0.105874
C48   C     C_R   0.762042 0.624454 0.047974 -0.155849
C49   C     C_R   0.750398 0.670684 0.114153 -0.107356
C50   C     C_R   0.821381 0.725023 0.202502 0.389645
C51   C     C_R   0.908808 0.739531 0.225161 0.020258
C52   C     C_R   0.916477 0.684068 0.159006 0.055665
C53   C     C_R   0.997114 0.684512 0.183162 -0.045520
C54   C     C_R   0.072484 0.744307 0.267401 -0.138498
C55   C     C_R   0.068712 0.804358 0.329985 -0.170455
C56   C     C_3   0.216758 0.536903 0.285389 0.344286
C57   C     C_R   0.988471 0.803615 0.310484 -0.087954
C58   C     C_R   0.178002 0.374383 0.912844 0.335601
C59   C     C_R   0.242535 0.352145 0.935730 -0.210182
C60   C     C_R   0.219235 0.266330 0.893784 0.365844
C61   C     C_R   0.132894 0.202577 0.820346 0.394889
C62   C     C_R   0.071892 0.227580 0.784212 -0.112051
C63   C     C_R   0.088385 0.309293 0.840957 -0.069725
C64   C     C_R   0.013556 0.319749 0.821983 -0.078042
C65   C     C_R   0.935727 0.264516 0.738927 -0.183003
C66   C     C_R   0.927883 0.195858 0.673927 0.416178
C67   C     C_3   0.194903 0.501479 0.189198 -0.358606
C68   C     C_R   0.997212 0.178055 0.694352 -0.121437
C69   C     C_3   0.294937 0.545065 0.220306 0.364435
C70   C     C_3   0.292058 0.461865 0.213167 0.226350
H1    H     H_    0.954417 0.952420 0.811977 0.247671
H2    H     H_    0.705986 0.767672 0.371498 0.240864
H3    H     H_    0.759898 0.631793 0.775455 0.224789
H4    H     H_    0.515911 0.343023 0.574892 0.151403
H5    H     H_    0.480775 0.202078 0.552107 0.169054
H6    H     H_    0.592399 0.182984 0.642023 0.193348
H7    H     H_    0.370708 0.648537 0.374523 0.226247
H8    H     H_    0.258275 0.285564 0.329622 0.203863
H9    H     H_    0.073981 0.033025 0.334210 0.185388
H10   H     H_    0.134526 0.744402 0.284697 0.178483
H11   H     H_    0.848283 0.587936 0.017673 0.161600
H12   H     H_    0.706526 0.581718 0.979855 0.188998
H13   H     H_    0.684344 0.660787 0.097200 0.204044
H14   H     H_    0.129694 0.852410 0.394109 0.180720
H15   H     H_    0.881718 0.276878 0.723145 0.200390
H16   H     H_    0.311143 0.401919 0.988478 0.252909
O1    O     O_R   0.592050 0.539910 0.448690 -0.560935
O2    O     O_R   0.054880 0.643340 0.094680 -0.590861
O3    O     O_R   0.044450 0.448300 0.096090 -0.571838
O4    O     O_R   0.147910 0.551710 0.096070 -0.570971
O5    O     O_R   0.952850 0.356690 0.912870 -0.564913
O6    O     O_R   0.056310 0.460100 0.912850 -0.578304
O7    O     O_R   0.859820 0.448320 0.911480 -0.608355
O8    O     O_R   0.963280 0.551730 0.911460 -0.554195
O9    O     O_R   0.947150 0.091620 0.538830 -0.567377
O10   O     O_R   0.051390 0.091590 0.643040 -0.580738
O11   O     O_R   0.856260 0.908400 0.447890 -0.575510
O12   O     O_R   0.591210 0.643330 0.551330 -0.621548
O13   O     O_R   0.960490 0.908380 0.552100 -0.590369
O14   O     O_R   0.948610 0.908430 0.356980 -0.590509
O15   O     O_R   0.052850 0.908400 0.461190 -0.622982
O16   O     O_R   0.039510 0.091640 0.447910 -0.611088
O17   O     O_R   0.143740 0.091610 0.552120 -0.590458
O18   O     O_R   0.408100 0.448300 0.356370 -0.583340
O19   O     O_R   0.407270 0.551720 0.459020 -0.605181
O20   O     O_R   0.408790 0.356670 0.448670 -0.652039
O21   O     O_R   0.407950 0.460090 0.551310 -0.566219
O22   O     O_R   0.592730 0.448280 0.540980 -0.598249
O23   O     O_R   0.591900 0.551700 0.643630 -0.606746
O24   O     O_R   0.951420 0.539930 0.094700 -0.611323
Zn1   Zn    Zn3+2 0.500560 0.430950 0.431460 1.112148
Zn2   Zn    Zn3+2 0.499440 0.569050 0.568540 1.098372
Zn3   Zn    Zn3+2 0.934790 0.430970 0.003790 1.138151
Zn4   Zn    Zn3+2 0.072940 0.569060 0.003760 1.173461
Zn5   Zn    Zn3+2 0.930400 0.000020 0.430430 1.133938
Zn6   Zn    Zn3+2 0.069600 0.999990 0.569590 1.128505
Cl1   Cl    Cl    0.166190 0.587682 0.331811 -0.510215
Br1   Br    Br    0.878785 0.004222 0.687535 -0.406252
Br2   Br    Br    0.764789 0.278370 0.778134 -0.452075
Cl2   Cl    Cl    0.903899 0.668902 0.922147 -0.491897
Br3   Br    Br    0.431158 0.419810 0.692540 -0.396222
Cl3   Cl    Cl    0.135159 0.148120 0.153027 -0.372297
Cl4   Cl    Cl    0.017665 0.981759 0.155909 -0.436662
Br4   Br    Br    0.269469 0.277901 0.692791 -0.372760
Cl5   Cl    Cl    0.789022 0.752506 0.280406 -0.612655
Cl6   Cl    Cl    0.351510 0.609115 0.185612 -0.403925
Cl7   Cl    Cl    0.222225 0.486711 0.963043 -0.458935
Cl8   Cl    Cl    0.300495 0.240712 0.934800 -0.387556
Cl9   Cl    Cl    0.097848 0.095232 0.796628 -0.453996
Cl10  Cl    Cl    0.825661 0.130411 0.570816 -0.493637
Br5   Br    Br    0.342954 0.403433 0.159079 -0.258085
Cl11  Cl    Cl    0.107583 0.310656 0.090591 -0.411562
Br6   Br    Br    0.156374 0.388669 0.322459 -0.333885
Br7   Br    Br    0.550196 0.612401 0.319833 -0.349217
Cl12  Cl    Cl    0.788512 0.635107 0.634877 -0.579507
Br8   Br    Br    0.936172 0.806532 0.838397 -0.243416

loop_
_geom_bond_atom_site_label_1
_geom_bond_atom_site_label_2
_ccdc_geom_bond_type
C1    O1    A    
C66   C68   A    
C16   C21   A    
C11   C13   A    
O21   Zn2   S    
C35   C36   A    
C1    C11   S    
C12   O19   A    
C27   H8    S    
C4    C70   S    
O8    Zn4   S    
C8    Br1   S    
C7    C8    A    
C53   C54   A    
C46   O16   A    
C29   C30   A    
C56   Cl1   S    
C42   O10   A    
C28   C29   A    
C36   Br4   S    
C43   O13   A    
C12   O18   A    
C7    H1    S    
C5    C6    A    
C28   Cl3   S    
C24   H3    S    
O1    Zn1   S    
O15   Zn6   S    
C18   C19   A    
C13   Br7   S    
C6    Br8   S    
O16   Zn5   S    
C41   O7    A    
C41   O8    A    
C45   C56   S    
O9    Zn5   S    
C8    C9    A    
C23   C33   S    
C2    Cl11  S    
C51   C57   A    
C38   O24   A    
C9    C10   A    
C39   O4    A    
C61   Cl9   S    
C4    C45   S    
O4    Zn4   S    
C19   Br2   S    
C58   Cl7   S    
C21   C22   A    
C42   C68   S    
C69   C70   S    
O14   Zn5   S    
C14   H2    S    
C17   C18   A    
C54   H10   S    
O20   Zn1   S    
C22   C34   S    
O3    Zn3   S    
O12   Zn2   S    
C45   C69   S    
C42   O9    A    
C35   Br3   S    
C24   C25   A    
C2    C67   S    
O23   Zn2   S    
O13   Zn6   S    
C16   C17   A    
C58   C59   A    
C23   O20   A    
C51   C52   A    
C38   O2    A    
C60   C61   A    
C67   C69   S    
C62   C63   A    
C3    C56   S    
C47   C48   A    
C60   Cl8   S    
C44   C57   S    
O5    Zn3   S    
C23   O21   A    
C50   C51   A    
O2    Zn4   S    
C50   Cl5   S    
O7    Zn3   S    
C40   O6    A    
O24   Zn3   S    
C47   C52   A    
C30   H9    S    
C48   C49   A    
O19   Zn2   S    
C69   Cl6   S    
C49   C50   A    
C55   C57   A    
C16   H4    S    
C4    C12   S    
C3    C4    S    
C25   Cl2   S    
C52   C53   A    
C46   O17   A    
C58   C63   A    
C5    Cl12  S    
C54   C55   A    
C36   C37   A    
C18   H6    S    
C27   C32   A    
C39   C67   S    
C31   C32   A    
C43   O11   A    
C55   H14   S    
C1    O12   A    
O18   Zn1   S    
C44   O15   A    
C65   H15   S    
C6    C7    A    
C56   C67   S    
O11   Zn5   S    
C40   C64   S    
O22   Zn1   S    
C62   C68   A    
C34   O22   A    
C32   C33   A    
C49   H13   S    
C19   C20   A    
C2    C3    S    
C25   C26   A    
C59   H16   S    
C15   C43   S    
C5    C10   A    
C2    C70   S    
C64   C65   A    
C44   O14   A    
C30   C31   A    
C38   C53   S    
C20   C26   A    
C29   Cl4   S    
C70   Br5   S    
C33   C35   A    
C48   H12   S    
O17   Zn6   S    
C22   C24   A    
C47   H11   S    
C40   O5    A    
C9    C15   A    
C61   C62   A    
C10   C11   A    
C63   C64   A    
C31   C37   A    
C59   C60   A    
C20   C21   A    
C65   C66   A    
C27   C28   A    
C17   H5    S    
C34   O23   A    
C14   C15   A    
O10   Zn6   S    
C45   H7    S    
C3    Br6   S    
C37   C46   S    
C13   C14   A    
O6    Zn4   S    
C39   O3    A    
C26   C41   S    
C66   Cl10  S    
