data_mof_unit_38553.cif
_audit_creation_date              2012-10-26T19:59:11-0400
_audit_creation_method            fapswitch 2.2
_symmetry_space_group_name_H-M    P1
_symmetry_Int_Tables_number       1
_space_group_crystal_system       triclinic
_cell_length_a                    7.470049
_cell_length_b                    8.700257
_cell_length_c                    15.791346
_cell_angle_alpha                 95.173601
_cell_angle_beta                  74.808776
_cell_angle_gamma                 103.34101
_cell_volume                      963.227983746

loop_
_atom_site_label
_atom_site_type_symbol
_atom_type_description
_atom_site_fract_x
_atom_site_fract_y
_atom_site_fract_z
_atom_type_partial_charge
C1    C     C_R   0.545094 0.800084 0.502746 0.516422
C2    C     C_R   0.616340 0.511075 0.333466 0.528523
C3    C     C_R   0.310261 0.458432 0.760741 0.000889
C4    C     C_R   0.687716 0.524650 0.237311 -0.015440
C5    C     C_R   0.086027 0.316090 0.883192 -0.118032
C6    C     C_R   0.933244 0.612666 0.106153 -0.120986
C7    C     C_R   0.134541 0.356040 0.794733 0.244949
C8    C     C_R   0.880375 0.584550 0.196226 0.241583
C9    C     C_R   0.431670 0.521109 0.815311 -0.200046
C10   C     C_R   0.554494 0.485919 0.186372 -0.195260
C11   C     C_R   0.391277 0.472843 0.902191 0.007672
C12   C     C_R   0.455057 0.199933 0.497138 0.531388
C13   C     C_R   0.606542 0.508554 0.095520 0.014529
C14   C     C_R   0.212343 0.372677 0.936448 0.002870
C15   C     C_R   0.797149 0.581041 0.056734 0.003688
C16   C     C_R   0.526316 0.514439 0.954432 0.033645
C17   C     C_R   0.473193 0.464970 0.042797 0.043690
C18   C     C_3   0.065825 0.773613 0.263547 0.003784
C19   C     C_3   0.224724 0.804988 0.310578 -0.329723
C20   C     C_3   0.849135 0.308174 0.757686 0.006107
C21   C     C_3   0.739261 0.214034 0.694496 -0.329845
C22   C     C_3   0.956414 0.747009 0.619508 0.040530
C23   C     C_R   0.291671 0.367580 0.074548 -0.117584
C24   C     C_3   0.068811 0.830641 0.684345 -0.406262
C25   C     C_3   0.042028 0.261961 0.374927 0.065230
C26   C     C_3   0.929414 0.191829 0.307819 -0.385097
C27   C     C_R   0.715769 0.595949 0.920018 -0.148461
C28   C     C_R   0.164528 0.322260 0.022225 -0.133167
C29   C     C_R   0.849667 0.623251 0.969312 -0.137731
C30   C     C_2   0.569207 0.968149 0.505253 -0.175005
C31   C     C_2   0.431319 0.031933 0.494479 -0.165438
C32   C     C_R   0.383374 0.485131 0.666082 0.551272
Cu1   Cu    Cu3+1 0.322120 0.483240 0.490330 1.032039
Cu2   Cu    Cu3+1 0.677880 0.516760 0.509670 1.011350
H1    H     H_    0.028605 0.244441 0.048791 0.107332
H2    H     H_    0.299533 0.960416 0.483258 0.111859
H3    H     H_    0.940776 0.812330 0.308183 0.133137
H4    H     H_    0.116606 0.845056 0.203378 0.105143
H5    H     H_    0.350328 0.763709 0.268736 0.162193
H6    H     H_    0.266420 0.933748 0.324914 0.058086
H7    H     H_    0.175846 0.742059 0.373303 0.201336
H8    H     H_    0.861754 0.436020 0.749252 0.172893
H9    H     H_    0.766346 0.275624 0.825517 0.118162
H10   H     H_    0.725758 0.085467 0.700847 0.120056
H11   H     H_    0.594877 0.239005 0.709469 0.123534
H12   H     H_    0.994926 0.680664 0.939088 0.110822
H13   H     H_    0.814988 0.246985 0.626026 0.192218
H14   H     H_    0.803926 0.741163 0.650657 0.151882
H15   H     H_    0.000724 0.819263 0.559826 0.129616
H16   H     H_    0.223319 0.843307 0.654903 0.163023
H17   H     H_    0.038074 0.949936 0.702116 0.147018
H18   H     H_    0.029636 0.761749 0.744722 0.129106
H19   H     H_    0.991572 0.184584 0.432684 0.113534
H20   H     H_    0.193789 0.262873 0.344521 0.143861
H21   H     H_    0.963518 0.273397 0.252968 0.178526
H22   H     H_    0.965257 0.077807 0.280833 0.053498
H23   H     H_    0.407779 0.444739 0.219795 0.151711
H24   H     H_    0.774793 0.172018 0.338872 0.152839
H25   H     H_    0.560504 0.603694 0.786748 0.111641
H26   H     H_    0.955265 0.231592 0.908903 0.108537
H27   H     H_    0.081034 0.661201 0.075118 0.124864
H28   H     H_    0.247311 0.316483 0.138256 0.103767
H29   H     H_    0.768180 0.635201 0.853807 0.090192
H30   H     H_    0.700941 0.039587 0.516653 0.109756
N1    N     N_2   0.945180 0.542040 0.524240 0.080800
N2    N     N_2   0.054820 0.457960 0.475760 0.081618
O1    O     O_R   0.384450 0.714270 0.493720 -0.495353
O2    O     O_3   0.030750 0.272397 0.737986 -0.561407
O3    O     O_3   0.991940 0.594107 0.600074 -0.463114
O4    O     O_3   0.015757 0.416735 0.397413 -0.425303
O5    O     O_R   0.615550 0.285730 0.506280 -0.504039
O6    O     O_R   0.684880 0.742590 0.510050 -0.547530
O7    O     O_R   0.315120 0.257410 0.489950 -0.530084
O8    O     O_R   0.265540 0.477900 0.617090 -0.411893
O9    O     O_R   0.734460 0.522100 0.382910 -0.414196
O10   O     O_R   0.565970 0.506210 0.633420 -0.536925
O11   O     O_R   0.434030 0.493790 0.366580 -0.529007
O12   O     O_3   0.018517 0.610615 0.242654 -0.525790

loop_
_geom_bond_atom_site_label_1
_geom_bond_atom_site_label_2
_ccdc_geom_bond_type
C24   H18   S    
C22   H14   S    
C30   H30   S    
C27   C29   A    
C4    C8    A    
C26   H21   S    
C17   C23   A    
C6    H27   S    
C18   H3    S    
C25   H19   S    
C3    C7    A    
C32   O8    A    
C30   C31   D    
C11   C14   A    
C18   C19   S    
C6    C15   A    
C23   H28   S    
C28   H1    S    
C16   C17   A    
C22   O3    S    
Cu2   O9    S    
C24   H17   S    
C7    O2    S    
C12   O7    A    
C8    O12   S    
Cu2   N1    S    
Cu1   N2    S    
C15   C29   A    
C21   H11   S    
C24   H16   S    
C1    O6    A    
C10   H23   S    
C25   H20   S    
C5    C7    A    
C6    C8    A    
C25   C26   S    
C9    H25   S    
C2    C4    S    
C3    C9    A    
C21   H10   S    
C9    C11   A    
C11   C16   A    
C18   O12   S    
Cu1   Cu2   S    
C23   C28   A    
C26   H24   S    
C5    C14   A    
C19   H5    S    
C22   H15   S    
Cu1   O7    S    
C12   O5    A    
C13   C15   A    
C12   C31   S    
C22   C24   S    
C4    C10   A    
Cu2   O6    S    
C20   H9    S    
Cu1   O1    S    
C5    H26   S    
C20   O2    S    
C10   C13   A    
C26   H22   S    
C32   O10   A    
C20   H8    S    
C13   C17   A    
C29   H12   S    
C18   H4    S    
C2    O11   A    
Cu1   O11   S    
N2    O4    S    
C16   C27   A    
N1    O3    S    
C1    C30   S    
C1    O1    A    
C3    C32   S    
C19   H6    S    
Cu1   O8    S    
C20   C21   S    
N1    N2    D    
C31   H2    S    
C27   H29   S    
C25   O4    S    
C14   C28   A    
Cu2   O5    S    
C2    O9    A    
C19   H7    S    
Cu2   O10   S    
C21   H13   S    
