data_mof_unit_38541.cif
_audit_creation_date              2012-10-26T18:50:22-0400
_audit_creation_method            fapswitch 2.2
_symmetry_space_group_name_H-M    P1
_symmetry_Int_Tables_number       1
_space_group_crystal_system       triclinic
_cell_length_a                    9.593431
_cell_length_b                    10.910432
_cell_length_c                    15.47447
_cell_angle_alpha                 87.592195
_cell_angle_beta                  74.304058
_cell_angle_gamma                 91.50565
_cell_volume                      1556.7224076

loop_
_atom_site_label
_atom_site_type_symbol
_atom_type_description
_atom_site_fract_x
_atom_site_fract_y
_atom_site_fract_z
_atom_type_partial_charge
C1    C     C_R   0.000836 0.262938 0.494013 0.553941
C2    C     C_R   0.235793 0.572394 0.044585 0.050025
C3    C     C_R   0.332067 0.530525 0.093610 0.033475
C4    C     C_R   0.918178 0.499906 0.672124 0.560848
C5    C     C_R   0.089241 0.587802 0.088354 -0.144208
C6    C     C_R   0.036167 0.560712 0.180369 -0.145824
C7    C     C_R   0.274383 0.499242 0.185634 -0.135354
C8    C     C_R   0.268279 0.133418 0.414592 -0.084736
C9    C     C_R   0.400895 0.081218 0.409313 -0.102561
C10   C     C_R   0.404256 0.966057 0.450036 -0.106448
C11   C     C_R   0.275490 0.897809 0.487385 -0.100555
C12   C     C_R   0.677372 0.518850 0.908470 0.034696
C13   C     C_R   0.139863 0.944281 0.484630 0.022272
C14   C     C_R   0.136427 0.070204 0.460861 0.020399
C15   C     C_R   0.002037 0.129079 0.485040 -0.020105
C16   C     C_R   0.001709 0.737708 0.502748 0.534919
C17   C     C_R   0.871419 0.056657 0.510590 -0.041697
C18   C     C_R   0.876369 0.930220 0.516196 -0.163345
C19   C     C_R   0.007769 0.872218 0.504340 -0.021307
C20   C     C_R   0.703113 0.657169 0.375749 -0.096866
C21   C     C_R   0.660313 0.732205 0.313683 -0.186934
C22   C     C_R   0.516479 0.733151 0.314201 -0.174539
C23   C     C_R   0.776718 0.489862 0.958781 0.049402
C24   C     C_R   0.414612 0.659409 0.377007 -0.099830
C25   C     C_R   0.454083 0.577831 0.439205 0.131018
C26   C     C_R   0.603803 0.577108 0.438807 0.149185
C27   C     C_R   0.546720 0.427968 0.558957 0.004155
C28   C     C_R   0.081977 0.502449 0.327909 0.525171
C29   C     C_R   0.399157 0.426381 0.558395 0.080414
C30   C     C_R   0.872840 0.500238 0.770735 0.000818
C31   C     C_R   0.129102 0.517364 0.229529 -0.002012
C32   C     C_R   0.922281 0.470302 0.915070 -0.139149
C33   C     C_R   0.970502 0.477008 0.821646 -0.126904
C34   C     C_R   0.530249 0.540230 0.953918 0.034721
C35   C     C_R   0.727933 0.521122 0.814200 -0.131757
C36   C     C_1   0.728759 0.106465 0.531193 0.215437
C37   C     C_1   0.299073 0.343092 0.621220 0.254898
C38   C     C_R   0.481925 0.520493 0.049065 0.032796
C39   C     C_R   0.585488 0.494174 0.096670 -0.138458
C40   C     C_R   0.729888 0.479749 0.052158 -0.137454
C41   C     C_R   0.430489 0.582540 0.907693 -0.134927
C42   C     C_R   0.286631 0.599251 0.952538 -0.135625
Cu1   Cu    Cu3+1 0.140660 0.499990 0.500010 0.932464
Cu2   Cu    Cu3+1 0.859340 0.500010 0.499990 0.937209
H1    H     H_    0.805097 0.458707 0.091329 0.112456
H2    H     H_    0.739240 0.791713 0.265878 0.122577
H3    H     H_    0.340069 0.459505 0.225077 0.120264
H4    H     H_    0.482697 0.793936 0.267171 0.132155
H5    H     H_    0.306190 0.672849 0.375276 0.188517
H6    H     H_    0.923677 0.576265 0.213151 0.123650
H7    H     H_    0.214273 0.632634 0.914567 0.111978
H8    H     H_    0.998558 0.447975 0.953166 0.116403
H9    H     H_    0.083099 0.460946 0.789447 0.144761
H10   H     H_    0.655486 0.535340 0.772778 0.121613
H11   H     H_    0.559594 0.487273 0.168951 0.112142
H12   H     H_    0.016121 0.622756 0.051559 0.111131
H13   H     H_    0.460788 0.607577 0.836855 0.105625
H14   H     H_    0.270311 0.222946 0.381418 0.136741
H15   H     H_    0.500992 0.131926 0.376311 0.125302
H16   H     H_    0.507029 0.928393 0.451326 0.131012
H17   H     H_    0.285845 0.812042 0.521521 0.153732
H18   H     H_    0.774976 0.876470 0.532296 0.142984
H19   H     H_    0.580333 0.370066 0.607572 0.145140
H20   H     H_    0.815048 0.666735 0.371680 0.183182
N1    N     N_R   0.648320 0.501210 0.499140 -0.254917
N2    N     N_R   0.352470 0.501290 0.499110 -0.266500
N3    N     N_1   0.613617 0.144499 0.547787 -0.320400
N4    N     N_1   0.219366 0.275424 0.671764 -0.296417
O1    O     O_R   0.118810 0.319640 0.500010 -0.491928
O2    O     O_R   0.881240 0.319660 0.500000 -0.481855
O3    O     O_R   0.055570 0.499980 0.629840 -0.490799
O4    O     O_R   0.818000 0.500010 0.629830 -0.508952
O5    O     O_R   0.118760 0.680340 0.500000 -0.538116
O6    O     O_R   0.881190 0.680360 0.499990 -0.525116
O7    O     O_R   0.182000 0.499990 0.370170 -0.534297
O8    O     O_R   0.944430 0.500020 0.370160 -0.519736

loop_
_geom_bond_atom_site_label_1
_geom_bond_atom_site_label_2
_ccdc_geom_bond_type
Cu1   O5    S    
C22   H4    S    
C27   C29   A    
C41   C42   A    
C5    H12   S    
C36   N3    T    
C12   C23   A    
C30   C35   A    
C16   O6    A    
C3    C7    A    
C16   C19   S    
C5    C6    A    
C23   C40   A    
C37   N4    T    
C18   C19   A    
Cu2   O8    S    
C32   H8    S    
C8    H14   S    
C39   H11   S    
C3    C38   A    
C8    C9    A    
C8    C14   A    
Cu2   O2    S    
C1    C15   S    
C17   C36   S    
C9    C10   A    
C42   H7    S    
C6    C31   A    
Cu1   O1    S    
C13   C14   A    
C35   H10   S    
C33   H9    S    
Cu2   N1    S    
C34   C41   A    
Cu1   O7    S    
C40   H1    S    
C7    C31   A    
C13   C19   A    
C16   O5    A    
C24   C25   A    
C39   C40   A    
C18   H18   S    
C25   C26   A    
C1    O1    A    
C9    H15   S    
C7    H3    S    
C20   H20   S    
C10   H16   S    
Cu1   Cu2   S    
C27   N1    A    
C17   C18   A    
C6    H6    S    
C12   C35   A    
Cu2   O6    S    
C27   H19   S    
C22   C24   A    
C2    C5    A    
C12   C34   A    
C28   O8    A    
C4    O4    A    
C21   H2    S    
C24   H5    S    
C15   C17   A    
Cu1   O3    S    
C30   C33   A    
C34   C38   A    
C26   N1    A    
C28   C31   S    
C25   N2    A    
C11   H17   S    
C1    O2    A    
C23   C32   A    
C2    C3    A    
C41   H13   S    
C32   C33   A    
C11   C13   A    
C38   C39   A    
C20   C26   A    
C2    C42   A    
Cu1   N2    S    
Cu2   O4    S    
C10   C11   A    
C29   N2    A    
C20   C21   A    
C29   C37   S    
C14   C15   A    
C21   C22   A    
C28   O7    A    
C4    O3    A    
C4    C30   S    
