data_mof_unit_64804.cif
_audit_creation_date              2012-12-10T19:05:03-0500
_audit_creation_method            fapswitch 2.2
_symmetry_space_group_name_H-M    P1
_symmetry_Int_Tables_number       1
_space_group_crystal_system       triclinic
_cell_length_a                    13.060362
_cell_length_b                    13.626047
_cell_length_c                    15.753874
_cell_angle_alpha                 90.031432
_cell_angle_beta                  92.533107
_cell_angle_gamma                 85.728211
_cell_volume                      2793.04582161

loop_
_atom_site_label
_atom_site_type_symbol
_atom_type_description
_atom_site_fract_x
_atom_site_fract_y
_atom_site_fract_z
_atom_type_partial_charge
C1    C     C_R   0.481221 0.685156 0.499132 0.897011
C2    C     C_2   0.544537 0.020489 0.502869 -0.154653
C3    C     C_2   0.455464 0.979514 0.498393 -0.160564
C4    C     C_R   0.499220 0.499987 0.661976 0.905209
C5    C     C_1   0.457500 0.875762 0.498328 0.016187
C6    C     C_1   0.542502 0.124240 0.502562 0.011023
C7    C     C_1   0.466324 0.788334 0.498585 -0.170140
C8    C     C_2   0.033317 0.472912 0.476127 -0.242813
C9    C     C_2   0.966682 0.527087 0.523898 -0.236202
C10   C     C_1   0.854675 0.519577 0.517236 0.149862
C11   C     C_1   0.145325 0.480424 0.482778 0.141930
C12   C     C_3   0.406728 0.563357 0.046442 -0.400004
C13   C     C_R   0.518779 0.314843 0.500937 0.892307
C14   C     C_R   0.500791 0.500014 0.338012 0.901851
C15   C     C_3   0.405291 0.563254 0.948505 -0.489933
C16   C     C_3   0.600473 0.543138 0.954261 0.031400
C17   C     C_3   0.600382 0.543985 0.052424 -0.415489
C18   C     C_1   0.502330 0.500137 0.249229 -0.178581
C19   C     C_3   0.500285 0.500437 0.917536 0.206171
C20   C     C_3   0.553962 0.234713 0.911559 -0.305351
C21   C     C_3   0.502180 0.500301 0.082608 0.251259
C22   C     C_3   0.498708 0.393755 0.049134 -0.454988
C23   C     C_3   0.495610 0.393173 0.950564 0.369335
C24   C     C_1   0.502730 0.500220 0.173985 -0.072807
C25   C     C_1   0.498227 0.500340 0.825997 -0.019267
C26   C     C_1   0.497836 0.500107 0.750735 -0.141526
C27   C     C_1   0.533675 0.211667 0.501905 -0.175772
H1    H     H_    0.408021 0.640332 0.069994 0.197349
H2    H     H_    0.668222 0.495604 0.934469 0.183272
H3    H     H_    0.604107 0.620232 0.076986 0.205259
H4    H     H_    0.669941 0.500176 0.078750 0.170268
H5    H     H_    0.420262 0.367067 0.926858 0.069027
H6    H     H_    0.429453 0.360464 0.071681 0.141063
H7    H     H_    0.495648 0.228747 0.858550 0.163337
H8    H     H_    0.525760 0.205407 0.971447 0.159084
H9    H     H_    0.623767 0.188320 0.895381 0.206270
H10   H     H_    0.333300 0.532850 0.923161 0.172948
H11   H     H_    0.335204 0.533574 0.068197 0.180521
H12   H     H_    0.567118 0.347885 0.075042 0.202774
H13   H     H_    0.382195 0.023111 0.494670 0.160876
H14   H     H_    0.617807 0.976892 0.506542 0.164081
H15   H     H_    0.996171 0.578850 0.569573 0.168921
H16   H     H_    0.003825 0.421150 0.430452 0.165361
H17   H     H_    0.404195 0.640123 0.924644 0.228892
I1    I     I_    0.624351 0.687874 0.905984 -0.421564
N1    N     N_1   0.234540 0.484780 0.486630 -0.092248
N2    N     N_1   0.765460 0.515220 0.513370 -0.089939
O1    O     O_R   0.402510 0.634760 0.495110 -0.608299
O2    O     O_R   0.572960 0.644530 0.503690 -0.602208
O3    O     O_R   0.414740 0.495110 0.618560 -0.615973
O4    O     O_R   0.585180 0.504880 0.627150 -0.595038
O5    O     O_R   0.427040 0.355470 0.496310 -0.606553
O6    O     O_R   0.597490 0.365240 0.504890 -0.607335
O7    O     O_R   0.414820 0.495120 0.372850 -0.609372
O8    O     O_R   0.585260 0.504890 0.381440 -0.610448
O9    O     O_3   0.580114 0.332852 0.921085 -0.605221
Zn1   Zn    Zn3+2 0.386190 0.493480 0.494270 0.978349
Zn2   Zn    Zn3+2 0.613810 0.506520 0.505730 0.991093

loop_
_geom_bond_atom_site_label_1
_geom_bond_atom_site_label_2
_ccdc_geom_bond_type
C16   I1    S    
C3    H13   S    
C4    C26   S    
O6    Zn2   S    
C8    H16   S    
C1    O1    A    
C13   O5    A    
C9    C10   S    
C14   C18   S    
C19   C23   S    
C6    C27   T    
C12   C15   S    
C20   O9    S    
C20   H7    S    
C23   H5    S    
C14   O8    A    
C25   C26   T    
O1    Zn1   S    
O4    Zn2   S    
C21   C22   S    
C13   C27   S    
N2    Zn2   S    
C15   C19   S    
C17   H3    S    
O3    Zn1   S    
C9    H15   S    
C2    C6    S    
C12   H1    S    
C16   C19   S    
C18   C24   T    
C22   H12   S    
C14   O7    A    
C17   H4    S    
C15   H17   S    
C2    C3    D    
C13   O6    A    
C8    C11   S    
N1    Zn1   S    
C12   H11   S    
C19   C25   S    
C21   C24   S    
O5    Zn1   S    
C2    H14   S    
C20   H9    S    
C23   O9    S    
C8    C9    D    
O8    Zn2   S    
C10   N2    T    
C5    C7    T    
C22   H6    S    
C22   C23   S    
C15   H10   S    
C11   N1    T    
C4    O4    A    
C16   H2    S    
C1    C7    S    
C20   H8    S    
C1    O2    A    
C12   C21   S    
C17   C21   S    
O2    Zn2   S    
C4    O3    A    
C16   C17   S    
C3    C5    S    
O7    Zn1   S    
