data_mof_unit_56212.cif
_audit_creation_date              2012-12-10T20:34:10-0500
_audit_creation_method            fapswitch 2.2
_symmetry_space_group_name_H-M    P1
_symmetry_Int_Tables_number       1
_space_group_crystal_system       triclinic
_cell_length_a                    9.884112
_cell_length_b                    10.755727
_cell_length_c                    13.613048
_cell_angle_alpha                 90.1186
_cell_angle_beta                  82.724957
_cell_angle_gamma                 89.439342
_cell_volume                      1435.48693183

loop_
_atom_site_label
_atom_site_type_symbol
_atom_type_description
_atom_site_fract_x
_atom_site_fract_y
_atom_site_fract_z
_atom_type_partial_charge
C1    C     C_R   0.499116 0.739533 0.502097 0.886613
C2    C     C_1   0.457599 0.515961 0.788798 -0.169424
C3    C     C_R   0.378335 0.939381 0.523304 0.055356
C4    C     C_R   0.498947 0.870838 0.508119 -0.102081
C5    C     C_R   0.623810 0.934160 0.500568 -0.219208
C6    C     C_R   0.624274 0.062921 0.502516 -0.218843
C7    C     C_R   0.500491 0.129338 0.509645 -0.089810
C8    C     C_R   0.379616 0.063929 0.523811 0.026856
C9    C     C_3   0.227606 0.078139 0.538562 -0.268512
C10   C     C_3   0.225062 0.932794 0.538752 0.081089
C11   C     C_R   0.915035 0.555898 0.575302 0.199842
C12   C     C_R   0.475432 0.502276 0.685615 0.891613
C13   C     C_R   0.944365 0.453388 0.421764 -0.001952
C14   C     C_R   0.087531 0.454604 0.422095 -0.149648
C15   C     C_R   0.057698 0.555111 0.575401 0.254753
C16   C     C_3   0.045643 0.516600 0.680846 -0.506953
C17   C     C_3   0.892186 0.518690 0.681585 -0.478310
C18   C     C_R   0.500049 0.260542 0.502829 0.883617
C19   C     C_R   0.524278 0.497882 0.314316 0.921916
C20   C     C_1   0.539783 0.483135 0.211109 -0.162854
C21   C     C_2   0.530765 0.457423 0.022148 0.135221
C22   C     C_2   0.451620 0.537789 0.979370 -0.030526
C23   C     C_1   0.449805 0.528108 0.875984 -0.010233
C24   C     C_1   0.541668 0.469237 0.124396 -0.014196
H1    H     H_    0.154169 0.413742 0.361031 0.157455
H2    H     H_    0.089533 0.422669 0.689238 0.234963
H3    H     H_    0.083434 0.588070 0.728689 0.227252
H4    H     H_    0.844981 0.425695 0.692224 0.227894
H5    H     H_    0.840186 0.593074 0.729447 0.209613
H6    H     H_    0.720968 0.885247 0.492014 0.179720
H7    H     H_    0.720969 0.109310 0.497512 0.160181
H8    H     H_    0.190645 0.121179 0.472517 0.177546
N1    N     N_R   0.857130 0.500860 0.500650 -0.127074
N2    N     N_R   0.142770 0.500820 0.500650 -0.106204
O1    O     O_R   0.385310 0.683210 0.499990 -0.585743
O2    O     O_R   0.614650 0.683240 0.500000 -0.628521
O3    O     O_R   0.368820 0.499950 0.640340 -0.617394
O4    O     O_R   0.598170 0.499990 0.640350 -0.613575
O5    O     O_R   0.385350 0.316760 0.500000 -0.619630
O6    O     O_R   0.614690 0.316790 0.500010 -0.624989
O7    O     O_R   0.401830 0.500010 0.359650 -0.609557
O8    O     O_R   0.631180 0.500050 0.359660 -0.603592
Zn1   Zn    Zn3+2 0.346870 0.499980 0.499990 0.967186
Zn2   Zn    Zn3+2 0.653130 0.500020 0.500010 0.950136
C25   C     C_R   0.373067 0.640698 0.033145 0.115339
C26   C     C_R   0.404895 0.764684 0.008548 -0.176762
C27   C     C_R   0.327855 0.861968 0.056363 -0.141441
C28   C     C_R   0.218683 0.836086 0.128813 -0.079587
C29   C     C_R   0.186941 0.712902 0.154058 -0.107722
C30   C     C_R   0.263702 0.615315 0.106486 -0.153263
H9    H     H_    0.488580 0.785828 0.951890 0.133692
H10   H     H_    0.352288 0.957371 0.036809 0.149443
H11   H     H_    0.158706 0.911491 0.165383 0.149841
H12   H     H_    0.102618 0.693105 0.210339 0.146275
H13   H     H_    0.237173 0.520231 0.125977 0.133109
I1    I     I_    0.641875 0.309048 0.944709 -0.529441
C31   C     C_R   0.167185 0.139974 0.635313 0.179908
C32   C     C_R   0.025501 0.160755 0.651227 -0.178430
C33   C     C_R   0.961947 0.199507 0.743912 -0.134594
C34   C     C_R   0.039694 0.223429 0.820538 -0.101308
C35   C     C_R   0.181242 0.208083 0.804631 -0.162443
C36   C     C_R   0.244997 0.165879 0.712906 -0.104727
H14   H     H_    0.963433 0.141520 0.592966 0.121305
H15   H     H_    0.852275 0.211005 0.756153 0.166019
H16   H     H_    0.990390 0.254396 0.892046 0.154897
H17   H     H_    0.241494 0.226935 0.863960 0.151613
H18   H     H_    0.354104 0.150464 0.704284 0.122821
C37   C     C_R   0.162186 0.875181 0.636482 0.171600
C38   C     C_R   0.019039 0.870509 0.657579 -0.131283
C39   C     C_R   0.957014 0.837051 0.751636 -0.146514
C40   C     C_R   0.036796 0.805296 0.825497 -0.118473
C41   C     C_R   0.178744 0.804922 0.804773 -0.156877
C42   C     C_R   0.241504 0.839555 0.711173 -0.142054
H19   H     H_    0.954883 0.898039 0.602409 0.138254
H20   H     H_    0.846908 0.836508 0.767374 0.132714
H21   H     H_    0.988722 0.779238 0.898314 0.138444
H22   H     H_    0.240294 0.778398 0.861499 0.154004
H23   H     H_    0.351634 0.841949 0.699087 0.110936
I2    I     I_    0.147966 0.857345 0.410594 -0.485591
C43   C     C_R   0.895095 0.388323 0.338656 0.183371
C44   C     C_R   0.875390 0.259661 0.344500 -0.130778
C45   C     C_R   0.845406 0.192896 0.261933 -0.151019
C46   C     C_R   0.840203 0.253790 0.171906 -0.099174
C47   C     C_R   0.865307 0.381374 0.164414 -0.141384
C48   C     C_R   0.893326 0.448561 0.247438 -0.150654
H24   H     H_    0.889172 0.210928 0.411870 0.110349
H25   H     H_    0.829699 0.093550 0.267099 0.147224
H26   H     H_    0.819212 0.201622 0.107623 0.162235
H27   H     H_    0.863662 0.428114 0.094235 0.157571
H28   H     H_    0.914344 0.546933 0.240653 0.122562

loop_
_geom_bond_atom_site_label_1
_geom_bond_atom_site_label_2
_ccdc_geom_bond_type
C17   H5    S    
C19   C20   S    
C2    C12   S    
C44   C45   A    
C7    C8    A    
C25   C26   A    
O4    Zn2   S    
C33   H15   S    
C43   C48   A    
C36   H18   S    
C5    C6    A    
C43   C44   A    
C29   H12   S    
C12   O3    A    
C18   O6    A    
C9    H8    S    
C37   C38   A    
C11   C15   A    
C35   H17   S    
C27   C28   A    
C8    C9    S    
C42   H23   S    
C39   C40   A    
O1    Zn1   S    
C9    C10   S    
C15   N2    A    
C44   H24   S    
C19   O8    A    
C16   H3    S    
C46   H26   S    
C13   C43   S    
C33   C34   A    
C21   C22   D    
O7    Zn1   S    
C38   C39   A    
O8    Zn2   S    
C16   H2    S    
C28   H11   S    
C15   C16   S    
C20   C24   T    
C11   N1    A    
C47   C48   A    
C3    C8    A    
C4    C5    A    
O5    Zn1   S    
C31   C36   A    
C37   C42   A    
C26   H9    S    
C34   C35   A    
O3    Zn1   S    
C18   O5    A    
C13   N1    A    
C41   H22   S    
C46   C47   A    
C48   H28   S    
C7    C18   S    
C17   H4    S    
C38   H19   S    
C6    C7    A    
C28   C29   A    
C34   H16   S    
C29   C30   A    
O2    Zn2   S    
C47   H27   S    
C3    C4    A    
C40   H21   S    
C2    C23   T    
C1    O1    A    
C5    H6    S    
C32   H14   S    
C26   C27   A    
C11   C17   S    
N1    Zn2   S    
N2    Zn1   S    
C41   C42   A    
C14   N2    A    
C21   I1    S    
C10   I2    S    
C27   H10   S    
C10   C37   S    
C30   H13   S    
C1    C4    S    
C32   C33   A    
C40   C41   A    
C3    C10   S    
C31   C32   A    
C16   C17   S    
C25   C30   A    
C6    H7    S    
C9    C31   S    
C14   H1    S    
C12   O4    A    
C35   C36   A    
C19   O7    A    
O6    Zn2   S    
C22   C25   S    
C45   C46   A    
C21   C24   S    
C39   H20   S    
C22   C23   S    
C13   C14   A    
C45   H25   S    
C1    O2    A    
