data_mof_unit_31642.cif
_audit_creation_date              2012-12-11T14:49:46-0500
_audit_creation_method            fapswitch 2.2
_symmetry_space_group_name_H-M    P1
_symmetry_Int_Tables_number       1
_space_group_crystal_system       triclinic
_cell_length_a                    16.824839
_cell_length_b                    16.777258
_cell_length_c                    19.720941
_cell_angle_alpha                 116.252962
_cell_angle_beta                  63.401455
_cell_angle_gamma                 99.797956
_cell_volume                      4461.43653461

loop_
_atom_site_label
_atom_site_type_symbol
_atom_type_description
_atom_site_fract_x
_atom_site_fract_y
_atom_site_fract_z
_atom_type_partial_charge
C1    C     C_R   0.034977 0.759482 0.015278 -0.116180
C2    C     C_R   0.251260 0.533089 0.830856 -0.178138
C3    C     C_R   0.184886 0.486796 0.084973 -0.087084
C4    C     C_R   0.761082 0.425291 0.164901 -0.241684
C5    C     C_R   0.990186 0.340658 0.760996 0.523024
C6    C     C_R   0.261978 0.530759 0.058185 0.091804
C7    C     C_R   0.953995 0.260754 0.756850 -0.267533
C8    C     C_R   0.258968 0.484606 0.750928 -0.146168
C9    C     C_R   0.007306 0.226956 0.027146 -0.151302
C10   C     C_R   0.033508 0.180520 0.610548 -0.237851
C11   C     C_R   0.954044 0.193629 0.681151 0.180154
C12   C     C_R   0.762120 0.449190 0.240115 -0.070515
C13   C     C_R   0.879161 0.145425 0.677488 -0.266811
C14   C     C_R   0.887031 0.076063 0.602241 0.114190
C15   C     C_R   0.968899 0.060465 0.530949 0.119302
C16   C     C_R   0.804783 0.564015 0.964569 -0.165179
C17   C     C_R   0.040772 0.116204 0.534941 0.120797
C18   C     C_R   0.816939 0.019017 0.598152 -0.230437
C19   C     C_R   0.829711 0.943310 0.525297 -0.132104
C20   C     C_R   0.912396 0.924994 0.455653 -0.054768
C21   C     C_R   0.981529 0.985550 0.457674 -0.097297
C22   C     C_R   0.065560 0.968505 0.388569 -0.025252
C23   C     C_R   0.725176 0.555332 0.026856 0.101046
C24   C     C_R   0.133033 0.030016 0.391287 -0.116473
C25   C     C_R   0.120928 0.103358 0.464807 -0.245330
C26   C     C_R   0.928426 0.846036 0.384841 0.549109
C27   C     C_R   0.014298 0.827526 0.319080 -0.260791
C28   C     C_R   0.999608 0.665606 0.242767 0.618875
C29   C     C_R   0.082477 0.888036 0.319794 0.415681
C30   C     C_R   0.387822 0.398643 0.628456 -0.215816
C31   C     C_R   0.341032 0.479671 0.682379 0.098812
C32   C     C_R   0.367366 0.555889 0.668128 -0.247820
C33   C     C_R   0.437383 0.550036 0.594359 0.185840
C34   C     C_R   0.029921 0.748147 0.245669 -0.054681
C35   C     C_R   0.481985 0.466797 0.535622 -0.028965
C36   C     C_R   0.458643 0.390898 0.553387 -0.112368
C37   C     C_R   0.460574 0.625206 0.577108 -0.220450
C38   C     C_R   0.527525 0.618254 0.500927 -0.222870
C39   C     C_R   0.571113 0.536106 0.442019 0.208469
C40   C     C_R   0.740225 0.486991 0.041465 -0.117663
C41   C     C_R   0.548563 0.459629 0.458892 -0.018996
C42   C     C_R   0.592493 0.376417 0.398802 -0.142389
C43   C     C_R   0.568912 0.300539 0.416001 0.342112
C44   C     C_R   0.504143 0.308627 0.494806 0.444810
C45   C     C_R   0.253009 0.563035 0.007946 -0.137657
C46   C     C_R   0.638791 0.529702 0.367027 -0.310194
C47   C     C_R   0.684866 0.449043 0.310533 0.090332
C48   C     C_R   0.660580 0.371870 0.323485 -0.122919
C49   C     C_R   0.638426 0.602141 0.066134 -0.085185
C50   C     C_R   0.331685 0.552583 0.089010 -0.122194
C51   C     C_R   0.412776 0.524862 0.152956 0.441093
C52   C     C_R   0.060435 0.745857 0.167627 -0.203111
C53   C     C_R   0.342632 0.505342 0.128927 0.434097
C54   C     C_R   0.392644 0.617467 0.072900 -0.300591
C55   C     C_R   0.469605 0.626341 0.084705 0.052791
C56   C     C_R   0.932675 0.256906 0.831683 0.526500
C57   C     C_R   0.480961 0.577692 0.122574 -0.063547
C58   C     C_R   0.564478 0.572073 0.118439 -0.265269
C59   C     C_R   0.624198 0.665380 0.043102 0.633360
C60   C     C_R   0.539088 0.676595 0.052116 -0.301077
C61   C     C_R   0.810550 0.169987 0.130185 -0.205525
C62   C     C_R   0.952177 0.862405 0.998479 -0.051158
C63   C     C_R   0.876262 0.940551 0.963928 -0.134731
C64   C     C_R   0.839382 0.494031 0.241141 0.607172
C65   C     C_R   0.920775 0.865126 0.944338 -0.274346
C66   C     C_R   0.943566 0.940699 0.071175 0.532678
C67   C     C_R   0.173426 0.469057 0.752229 0.523627
C68   C     C_R   0.902464 0.019012 0.088782 -0.086141
C69   C     C_R   0.864442 0.017422 0.037027 -0.040953
C70   C     C_R   0.815565 0.092389 0.058922 0.493287
C71   C     C_R   0.850183 0.174047 0.180230 0.614377
C72   C     C_R   0.897445 0.098384 0.158336 -0.425939
C73   C     C_R   0.959987 0.691503 0.937066 -0.149179
C74   C     C_R   0.983550 0.775126 0.982874 0.088611
C75   C     C_3   0.921800 0.113229 0.815895 -0.275754
C76   C     C_3   0.209719 0.400244 0.608642 0.295019
C77   C     C_3   0.168176 0.370445 0.547008 -0.851042
C78   C     C_R   0.038223 0.310081 0.065769 0.657299
C79   C     C_3   0.095911 0.258203 0.126407 -0.201378
C80   C     C_3   0.939896 0.453799 0.753442 -0.096072
C81   C     C_3   0.813666 0.797238 0.346555 -0.326500
C82   C     C_3   0.219743 0.822017 0.260145 0.272019
C83   C     C_3   0.316686 0.836224 0.211059 -0.897964
C84   C     C_3   0.565723 0.169637 0.310656 0.328382
C85   C     C_3   0.605623 0.075372 0.257328 -0.922475
C86   C     C_3   0.538891 0.225908 0.543194 -0.204684
C87   C     C_3   0.712614 0.781256 0.071072 -0.297735
C88   C     C_3   0.382009 0.529838 0.278614 -0.212158
C89   C     C_R   0.960502 0.242106 0.990792 -0.216915
C90   C     C_3   0.327169 0.356292 0.073384 -0.153853
C91   C     C_3   0.718255 0.160340 0.042705 -0.165898
C92   C     C_3   0.066150 0.641669 0.311486 0.266967
C93   C     C_3   0.065491 0.579905 0.349484 -0.826506
C94   C     C_3   0.834816 0.245833 0.316885 -0.187548
C95   C     C_3   0.906174 0.929416 0.193281 0.212244
C96   C     C_3   0.930969 0.970495 0.266856 -0.887717
C97   C     C_3   0.828207 0.531701 0.372805 -0.058444
H1    H     H_    0.072372 0.807407 0.046628 0.151828
H2    H     H_    0.196821 0.019435 0.338269 0.165221
H3    H     H_    0.175359 0.147837 0.467819 0.134793
H4    H     H_    0.365150 0.341343 0.643131 0.164553
H5    H     H_    0.329618 0.618174 0.712335 0.132518
H6    H     H_    0.426313 0.688926 0.622110 0.130702
H7    H     H_    0.545189 0.676873 0.487990 0.129476
H8    H     H_    0.658785 0.588168 0.353736 0.119748
H9    H     H_    0.814648 0.605473 0.933130 0.158294
H10   H     H_    0.696714 0.310010 0.276224 0.193339
H11   H     H_    0.572794 0.533155 0.146211 0.184721
H12   H     H_    0.919750 0.194551 0.964246 0.207877
H13   H     H_    0.529378 0.718832 0.027618 0.154609
H14   H     H_    0.385321 0.655642 0.043903 0.156773
H15   H     H_    0.850481 0.937895 0.921568 0.176310
H16   H     H_    0.931464 0.101884 0.194743 0.193003
H17   H     H_    0.927704 0.807519 0.887421 0.155294
H18   H     H_    0.693643 0.458755 0.082947 0.103904
H19   H     H_    0.093730 0.797309 0.147096 0.181455
H20   H     H_    0.929462 0.677816 0.895472 0.098091
H21   H     H_    0.293522 0.611052 0.985708 0.097450
H22   H     H_    0.991069 0.117598 0.810601 0.122201
H23   H     H_    0.304171 0.561847 0.850276 0.134983
H24   H     H_    0.922311 0.078333 0.753207 0.157659
H25   H     H_    0.885267 0.071109 0.849903 0.205809
H26   H     H_    0.232682 0.340051 0.605984 0.073040
H27   H     H_    0.266106 0.441196 0.587260 0.112678
H28   H     H_    0.141668 0.429106 0.550515 0.256469
H29   H     H_    0.219365 0.334912 0.482687 0.189264
H30   H     H_    0.113529 0.324712 0.560129 0.280578
H31   H     H_    0.142731 0.210394 0.064679 0.114641
H32   H     H_    0.034023 0.225387 0.152783 0.170831
H33   H     H_    0.128256 0.280626 0.169726 0.174410
H34   H     H_    0.160687 0.469566 0.137203 0.214223
H35   H     H_    0.967272 0.510379 0.792478 0.139932
H36   H     H_    0.870914 0.440101 0.791088 0.098598
H37   H     H_    0.936376 0.473660 0.708147 0.143783
H38   H     H_    0.778173 0.863317 0.385036 0.139583
H39   H     H_    0.762722 0.745824 0.343607 0.168177
H40   H     H_    0.856453 0.789862 0.281665 0.148141
H41   H     H_    0.208874 0.843806 0.326089 0.068986
H42   H     H_    0.207465 0.749908 0.233646 0.094659
H43   H     H_    0.331349 0.907804 0.236849 0.245414
H44   H     H_    0.360443 0.797758 0.215395 0.218167
H45   H     H_    0.091235 0.218692 0.615343 0.135517
H46   H     H_    0.330819 0.813820 0.144557 0.257137
H47   H     H_    0.570388 0.199654 0.268751 0.064906
H48   H     H_    0.494287 0.165453 0.350744 0.107520
H49   H     H_    0.599060 0.042966 0.297906 0.257047
H50   H     H_    0.570261 0.036010 0.217493 0.214246
H51   H     H_    0.677086 0.076359 0.216748 0.247613
H52   H     H_    0.519942 0.167194 0.558380 0.158114
H53   H     H_    0.532665 0.285144 0.601600 0.121315
H54   H     H_    0.609265 0.214626 0.495884 0.156622
H55   H     H_    0.746106 0.754071 0.094265 0.141040
H56   H     H_    0.817648 0.158636 0.733426 0.162785
H57   H     H_    0.652379 0.822420 0.123654 0.141964
H58   H     H_    0.758960 0.826217 0.045188 0.196394
H59   H     H_    0.309452 0.540694 0.300981 0.144013
H60   H     H_    0.414615 0.594705 0.296540 0.117416
H61   H     H_    0.389771 0.493268 0.310491 0.169345
H62   H     H_    0.393874 0.343037 0.065923 0.149940
H63   H     H_    0.332120 0.355070 0.014730 0.115074
H64   H     H_    0.284600 0.301238 0.084401 0.153843
H65   H     H_    0.686311 0.148505 0.000732 0.172654
H66   H     H_    0.755876 0.222319 0.047074 0.151053
H67   H     H_    0.753842 0.030765 0.652234 0.132312
H68   H     H_    0.664478 0.168040 0.104662 0.119417
H69   H     H_    0.068906 0.711218 0.355316 0.077664
H70   H     H_    0.127507 0.624593 0.252043 0.053104
H71   H     H_    0.129205 0.584024 0.354783 0.194739
H72   H     H_    0.010131 0.599712 0.412709 0.230670
H73   H     H_    0.057627 0.510180 0.309345 0.287057
H74   H     H_    0.899755 0.232537 0.312555 0.123503
H75   H     H_    0.787073 0.193336 0.328075 0.156208
H76   H     H_    0.806681 0.309524 0.371971 0.164876
H77   H     H_    0.896650 0.857133 0.177048 0.103123
H78   H     H_    0.713888 0.382954 0.142823 0.131279
H79   H     H_    0.841474 0.961061 0.213536 0.090070
H80   H     H_    0.939406 0.043069 0.284993 0.246564
H81   H     H_    0.877808 0.960197 0.321101 0.202528
H82   H     H_    0.994283 0.939607 0.249714 0.268523
H83   H     H_    0.782865 0.481510 0.391422 0.115361
H84   H     H_    0.870727 0.550906 0.406793 0.161051
H85   H     H_    0.791379 0.593235 0.393067 0.123978
H86   H     H_    0.775617 0.898001 0.524708 0.162808
N1    N     N_R   0.036080 0.671900 0.995420 -0.047263
N2    N     N_R   0.867430 0.509300 0.948100 -0.065852
N3    N     N_R   0.003360 0.617250 0.167070 -0.114203
N4    N     N_R   0.825450 0.461270 0.995400 -0.039503
N5    N     N_R   0.045340 0.665280 0.119770 -0.086061
N6    N     N_R   0.883740 0.497640 0.167070 -0.103198
N7    N     N_R   0.987050 0.628910 0.948110 -0.047361
N8    N     N_R   0.174550 0.538730 0.004600 -0.047652
N9    N     N_R   0.954660 0.334720 0.880230 -0.124181
N10   N     N_R   0.116260 0.502360 0.832930 -0.087505
N11   N     N_R   0.012950 0.371090 0.051890 -0.100226
N12   N     N_R   0.963920 0.328100 0.004580 -0.070110
N13   N     N_R   0.165290 0.545350 0.880240 -0.065226
N14   N     N_R   0.132570 0.490700 0.051900 -0.065943
N15   N     N_R   0.996640 0.382750 0.832930 -0.148358
N16   N     N_R   0.834710 0.454650 0.119760 -0.069990
Ni1   Ni    Ni4+2 0.104370 0.604370 0.000010 0.187364
Ni2   Ni    Ni4+2 0.895630 0.395630 0.999990 0.214642
Ni3   Ni    Ni4+2 0.991920 0.505780 0.891500 0.205387
Ni4   Ni    Ni4+2 0.008080 0.494220 0.108500 0.283518
O1    O     O_3   0.877233 0.197366 0.860722 -0.615841
O2    O     O_3   0.422539 0.478367 0.191909 -0.606300
O3    O     O_3   0.287867 0.437294 0.142037 -0.612611
O4    O     O_3   0.775816 0.086851 0.008161 -0.634382
O5    O     O_3   0.988334 0.630741 0.298136 -0.589734
O6    O     O_3   0.846985 0.255535 0.245333 -0.601808
O7    O     O_3   0.976315 0.941703 0.124586 -0.645624
O8    O     O_3   0.883139 0.494749 0.286535 -0.572982
O9    O     O_3   0.146990 0.451949 0.689574 -0.610846
O10   O     O_3   0.076816 0.333174 0.120901 -0.629751
O11   O     O_3   0.996502 0.377760 0.708615 -0.585000
O12   O     O_3   0.862945 0.783520 0.382715 -0.598167
O13   O     O_3   0.165051 0.869643 0.252228 -0.625722
O14   O     O_3   0.613501 0.219595 0.358599 -0.625584
O15   O     O_3   0.481395 0.234310 0.512056 -0.611749
O16   O     O_3   0.692424 0.712599 0.007326 -0.633358

loop_
_geom_bond_atom_site_label_1
_geom_bond_atom_site_label_2
_ccdc_geom_bond_type
C45   H21   S    
C61   C70   A    
C66   C68   A    
C79   H31   S    
C63   C65   A    
C80   H35   S    
C6    C45   A    
C27   C29   A    
C75   H25   S    
C41   C42   A    
C14   C18   A    
C95   C96   S    
C85   H51   S    
C88   O2    S    
N13   Ni1   S    
C3    C6    A    
N2    N4    A    
C56   N9    A    
C64   N6    A    
C97   H85   S    
C39   C41   A    
C40   N4    A    
C84   H48   S    
N6    Ni4   S    
C81   H40   S    
C93   H72   S    
C26   C27   A    
C50   C54   A    
C86   H54   S    
C3    H34   S    
C1    C74   A    
C88   H59   S    
C22   C29   A    
C95   H77   S    
C5    O11   S    
C16   N2    A    
C86   H53   S    
C86   O15   S    
C30   C31   A    
C12   C64   A    
C23   C49   S    
C40   H18   S    
N5    Ni1   S    
C10   C17   A    
C23   C40   A    
C24   H2    S    
C46   H8    S    
C89   H12   S    
C63   H15   S    
C80   H37   S    
C76   H26   S    
C18   C19   A    
C10   H45   S    
C90   H62   S    
C38   H7    S    
C13   C14   A    
C94   H75   S    
C90   O3    S    
C18   H67   S    
C84   C85   S    
C45   N8    A    
C4    N16   A    
C63   C69   A    
C93   H71   S    
C68   C69   A    
N1    Ni1   S    
C4    H78   S    
N15   Ni3   S    
N9    Ni2   S    
C64   O8    S    
C51   C57   A    
C88   H61   S    
C96   H80   S    
C4    C12   A    
C2    N13   A    
C73   N7    A    
C77   H30   S    
C16   H9    S    
C76   O9    S    
N11   N12   A    
C28   C34   A    
C59   C60   A    
C95   H79   S    
C55   C60   A    
C95   O7    S    
C91   H66   S    
C43   O14   S    
C7    C56   A    
C12   C47   S    
C78   O10   S    
C83   H43   S    
C1    N1    A    
C81   H38   S    
C5    C7    A    
C52   H19   S    
C27   C34   S    
C85   H49   S    
C93   H73   S    
C50   C53   A    
C73   H20   S    
C62   C66   A    
C90   H64   S    
C76   H27   S    
N8    N14   A    
C75   H22   S    
C24   C25   A    
C84   O14   S    
C86   H52   S    
C9    C89   A    
C83   H44   S    
C2    H23   S    
N7    Ni3   S    
C97   H83   S    
C80   O11   S    
C71   O6    S    
C70   O4    S    
C79   H33   S    
C72   H16   S    
C33   C37   A    
C80   H36   S    
C26   O12   S    
C51   C53   A    
C35   C36   A    
C38   C39   A    
N2    Ni3   S    
C7    C11   S    
C43   C44   A    
C37   C38   A    
C92   O5    S    
C28   N3    A    
C94   H74   S    
C25   H3    S    
C47   C48   A    
C65   H17   S    
C79   O10   S    
C68   C72   A    
N10   N13   A    
C82   H42   S    
C53   O3    S    
C87   H57   S    
C44   O15   S    
C67   O9    S    
C91   H65   S    
C42   C48   A    
C88   H60   S    
C76   C77   S    
C13   H56   S    
C8    C67   A    
C39   C46   A    
C82   O13   S    
C16   C23   A    
C87   O16   S    
C87   H55   S    
C55   C57   A    
C78   N11   A    
C28   O5    S    
C22   C24   A    
C67   N10   A    
C36   C44   A    
C66   O7    S    
C42   C43   A    
C19   H86   S    
C73   C74   A    
C89   N12   A    
C77   H28   S    
C81   H39   S    
C37   H6    S    
C54   C55   A    
C15   C17   A    
C46   C47   A    
N1    N7    A    
N10   Ni3   S    
C97   O8    S    
C62   C65   A    
C75   H24   S    
C8    C31   S    
C91   H68   S    
C31   C32   A    
C2    C8    A    
C85   H50   S    
C29   O13   S    
C1    H1    S    
C3    N14   A    
C91   O4    S    
C75   O1    S    
C51   O2    S    
C97   H84   S    
C5    N15   A    
C56   O1    S    
C87   H58   S    
N4    Ni2   S    
C34   C52   A    
C49   C59   A    
C30   C36   A    
C17   C25   A    
C32   C33   A    
C19   C20   A    
N8    Ni1   S    
C82   H41   S    
C59   O16   S    
C32   H5    S    
N12   Ni2   S    
C83   H46   S    
C11   C13   A    
C92   H70   S    
C61   C71   A    
C57   C58   A    
C81   O12   S    
C20   C26   A    
N6    N16   A    
N11   Ni4   S    
C30   H4    S    
C92   C93   S    
C33   C35   A    
C54   H14   S    
N14   Ni4   S    
C58   H11   S    
C9    C78   A    
C96   H82   S    
C90   H63   S    
C69   C70   A    
C35   C41   A    
C60   H13   S    
C10   C11   A    
C49   C58   A    
C94   H76   S    
N9    N15   A    
C48   H10   S    
C6    C50   S    
C92   H69   S    
C15   C21   A    
C71   C72   A    
C20   C21   A    
C94   O6    S    
C82   C83   S    
N3    Ni4   S    
N16   Ni2   S    
C84   H47   S    
C14   C15   A    
C62   C74   S    
C52   N5    A    
C96   H81   S    
C21   C22   A    
N3    N5    A    
C77   H29   S    
C79   H32   S    
