data_mof_unit_47656.cif
_audit_creation_date              2012-12-10T16:57:07-0500
_audit_creation_method            fapswitch 2.2
_symmetry_space_group_name_H-M    P1
_symmetry_Int_Tables_number       1
_space_group_crystal_system       triclinic
_cell_length_a                    7.829665
_cell_length_b                    8.577322
_cell_length_c                    16.468757
_cell_angle_alpha                 93.811353
_cell_angle_beta                  78.053462
_cell_angle_gamma                 93.431384
_cell_volume                      1078.44940212

loop_
_atom_site_label
_atom_site_type_symbol
_atom_type_description
_atom_site_fract_x
_atom_site_fract_y
_atom_site_fract_z
_atom_type_partial_charge
C1    C     C_R   0.545647 0.794645 0.498332 0.976938
C2    C     C_R   0.454082 0.205450 0.502625 0.980367
C3    C     C_2   0.569764 0.957902 0.497878 -0.302154
C4    C     C_2   0.429630 0.042302 0.504212 -0.312088
C5    C     C_R   0.473286 0.504386 0.656116 0.929973
C6    C     C_R   0.525269 0.487714 0.344978 0.976693
C7    C     C_R   0.443756 0.489320 0.746892 -0.265883
C8    C     C_R   0.538303 0.436167 0.257876 -0.239094
C9    C     C_R   0.569391 0.425653 0.783334 0.272364
C10   C     C_R   0.473673 0.528307 0.205646 0.263684
C11   C     C_R   0.525457 0.388829 0.865669 -0.197703
C12   C     C_R   0.463400 0.469680 0.126436 -0.222523
C13   C     C_R   0.350929 0.384186 0.910277 -0.029575
C14   C     C_R   0.491290 0.310849 0.101504 -0.060836
C15   C     C_R   0.225773 0.454927 0.875287 0.288623
C16   C     C_R   0.570822 0.221106 0.151355 0.309150
C17   C     C_R   0.278827 0.521775 0.797706 0.237684
C18   C     C_R   0.597484 0.285725 0.228947 0.184955
C19   C     C_2   0.311103 0.322316 0.995992 0.154976
C20   C     C_2   0.435229 0.247635 0.023281 0.064829
H1    H     H_    0.424235 0.548225 0.085718 0.193131
H2    H     H_    0.631652 0.359346 0.893111 0.232177
H3    H     H_    0.702384 0.008130 0.491983 0.182757
H4    H     H_    0.297011 0.992113 0.510111 0.174552
N1    N     N_2   0.953500 0.457650 0.478520 0.008012
N2    N     N_2   0.046500 0.542350 0.521480 0.016331
O1    O     O_R   0.388470 0.738640 0.505270 -0.620769
O2    O     O_R   0.611530 0.261360 0.494730 -0.609303
O3    O     O_R   0.679650 0.711510 0.491500 -0.610066
O4    O     O_R   0.320350 0.288490 0.508500 -0.611286
O5    O     O_R   0.337210 0.515200 0.623500 -0.578364
O6    O     O_R   0.662790 0.484800 0.376500 -0.588159
O7    O     O_R   0.628380 0.488060 0.609730 -0.574340
O8    O     O_R   0.371620 0.511940 0.390270 -0.590548
Zn1   Zn    Zn3+2 0.305580 0.518120 0.509190 1.032353
Zn2   Zn    Zn3+2 0.694420 0.481880 0.490810 1.030830
Br1   Br    Br    0.802509 0.376521 0.726714 -0.415380
Br2   Br    Br    0.387110 0.731481 0.241966 -0.397399
Br3   Br    Br    0.703050 0.161610 0.297353 -0.442783
Br4   Br    Br    0.134588 0.674812 0.767828 -0.404804
N3    N     N_3   0.533671 0.133385 0.967753 -0.420897
H5    H     H_    0.666270 0.148443 0.969683 0.251948
H6    H     H_    0.485303 0.021770 0.985157 0.255836
N4    N     N_3   0.154022 0.365053 0.054271 -0.385299
H7    H     H_    0.156973 0.486125 0.066564 0.218054
H8    H     H_    0.142035 0.311257 0.110505 0.220825
Br5   Br    Br    0.980907 0.459258 0.927361 -0.420606
Br6   Br    Br    0.642256 0.010898 0.118237 -0.386501
N5    N     N_3   0.039280 0.335001 0.431527 -0.304021
H9    H     H_    0.026356 0.345518 0.370285 0.209377
H10   H     H_    0.970270 0.232010 0.451757 0.198393
N6    N     N_3   0.963222 0.670295 0.564180 -0.300195
H11   H     H_    0.970627 0.664696 0.626346 0.243772
H12   H     H_    0.036912 0.769986 0.542238 0.181991

loop_
_geom_bond_atom_site_label_1
_geom_bond_atom_site_label_2
_ccdc_geom_bond_type
C7    C17   A    
C2    C4    S    
C18   Br3   S    
C15   C17   A    
C14   C16   A    
N2    N6    S    
C11   C13   A    
N3    H5    S    
C11   H2    S    
C3    H3    S    
C19   C20   D    
C15   Br5   S    
C19   N4    S    
C10   Br2   S    
O1    Zn1   S    
C16   Br6   S    
C9    Br1   S    
C20   N3    S    
C16   C18   A    
N6    H11   S    
N3    H6    S    
O3    Zn2   S    
C9    C11   A    
C10   C12   A    
O4    Zn1   S    
O6    Zn2   S    
C1    O3    A    
C12   C14   A    
N5    H9    S    
N1    N5    S    
C13   C15   A    
C4    H4    S    
O5    Zn1   S    
C2    O2    A    
C2    O4    A    
C13   C19   S    
N1    Zn2   S    
C3    C4    D    
C7    C9    A    
N2    Zn1   S    
O7    Zn2   S    
N4    H7    S    
O2    Zn2   S    
C14   C20   S    
C1    O1    A    
O8    Zn1   S    
C1    C3    S    
C5    C7    S    
C6    O6    A    
C6    C8    S    
N4    H8    S    
C5    O5    A    
N1    N2    D    
C12   H1    S    
C8    C10   A    
C8    C18   A    
C6    O8    A    
N6    H12   S    
N5    H10   S    
C17   Br4   S    
C5    O7    A    
