data_mof_unit_44340.cif
_audit_creation_date              2012-12-10T17:07:43-0500
_audit_creation_method            fapswitch 2.2
_symmetry_space_group_name_H-M    P1
_symmetry_Int_Tables_number       1
_space_group_crystal_system       triclinic
_cell_length_a                    19.360263
_cell_length_b                    11.03578
_cell_length_c                    9.82857
_cell_angle_alpha                 111.402751
_cell_angle_beta                  97.294964
_cell_angle_gamma                 91.255803
_cell_volume                      1933.98526636

loop_
_atom_site_label
_atom_site_type_symbol
_atom_type_description
_atom_site_fract_x
_atom_site_fract_y
_atom_site_fract_z
_atom_type_partial_charge
C1    C     C_R   0.495183 0.254026 0.440279 0.726201
C2    C     C_R   0.505717 0.745969 0.559671 0.733440
C3    C     C_2   0.493130 0.114310 0.405888 0.422067
C4    C     C_2   0.509833 0.885703 0.593976 0.409635
C5    C     C_2   0.504716 0.069635 0.515255 -0.222993
C6    C     C_2   0.501982 0.930446 0.484328 -0.224756
C7    C     C_2   0.505438 0.511608 0.080943 0.557895
C8    C     C_2   0.493455 0.489818 0.918876 0.559068
C9    C     C_R   0.367937 0.502872 0.503157 0.827528
C10   C     C_R   0.632068 0.502015 0.498251 0.818635
C11   C     C_R   0.265735 0.616014 0.613227 0.098921
C12   C     C_R   0.741185 0.601902 0.458203 0.103542
C13   C     C_R   0.193220 0.612967 0.625626 0.066388
C14   C     C_R   0.813344 0.596397 0.443118 0.068408
C15   C     C_R   0.147707 0.507374 0.522170 -0.164997
C16   C     C_R   0.852189 0.503132 0.483032 -0.167204
C17   C     C_R   0.175377 0.401984 0.419021 0.579909
C18   C     C_R   0.817753 0.409898 0.522212 0.580180
C19   C     C_R   0.247133 0.397902 0.415296 -0.016460
C20   C     C_R   0.745679 0.406302 0.522748 -0.009599
C21   C     C_R   0.292470 0.505950 0.510269 -0.174362
C22   C     C_R   0.707478 0.503548 0.493140 -0.177049
C23   C     C_R   0.929229 0.503553 0.490756 0.459013
C24   C     C_R   0.070658 0.506101 0.514879 0.458462
Cu1   Cu    Cu3+1 0.512140 0.521810 0.644910 1.017005
Cu2   Cu    Cu3+1 0.487860 0.478190 0.355090 1.017590
H1    H     H_    0.492723 0.863325 0.369802 0.225476
H2    H     H_    0.515823 0.136785 0.629614 0.219482
H3    H     H_    0.568941 0.622321 0.932975 0.204019
H4    H     H_    0.431983 0.375741 0.066731 0.201525
N1    N     N_R   0.030946 0.392100 0.473358 -0.132660
N2    N     N_R   0.969041 0.617223 0.533658 -0.249773
N3    N     N_R   0.961670 0.390819 0.461185 -0.132183
N4    N     N_R   0.038090 0.618243 0.543048 -0.249877
N5    N     N_2   0.469620 0.445420 0.137370 -0.301580
N6    N     N_2   0.530380 0.554580 0.862630 -0.309765
O1    O     O_R   0.506480 0.332340 0.577400 -0.564114
O2    O     O_R   0.493520 0.667660 0.422600 -0.571277
O3    O     O_R   0.485980 0.295500 0.332650 -0.529594
O4    O     O_R   0.514020 0.704500 0.667350 -0.534629
O5    O     O_R   0.410390 0.518410 0.622410 -0.530447
O6    O     O_R   0.589610 0.481590 0.377590 -0.534997
O7    O     O_R   0.389900 0.481570 0.377660 -0.585425
O8    O     O_R   0.610100 0.518430 0.622340 -0.583902
C25   C     C_3   0.313965 0.739166 0.700522 -0.363098
C26   C     C_3   0.327523 0.814846 0.602567 -0.798517
H5    H     H_    0.361430 0.904942 0.668577 0.268568
H6    H     H_    0.353917 0.755274 0.509130 0.233953
H7    H     H_    0.277574 0.842906 0.557373 0.256772
H8    H     H_    0.293395 0.806403 0.797726 0.210778
H9    H     H_    0.364115 0.716184 0.749646 0.232831
C27   C     C_3   0.700781 0.716739 0.448598 -0.380543
C28   C     C_3   0.695950 0.816383 0.602567 -0.801778
H10   H     H_    0.665728 0.772866 0.664275 0.259028
H11   H     H_    0.748888 0.851038 0.666076 0.262849
H12   H     H_    0.669198 0.901492 0.592909 0.251170
H13   H     H_    0.723573 0.767561 0.384923 0.214690
H14   H     H_    0.647524 0.683718 0.388324 0.267501
C29   C     C_3   0.165399 0.715170 0.755072 -0.355114
C30   C     C_3   0.150209 0.841114 0.728359 -0.732945
H15   H     H_    0.123856 0.819813 0.614238 0.269402
H16   H     H_    0.115767 0.898081 0.807085 0.248830
H17   H     H_    0.198655 0.903432 0.746272 0.237011
H18   H     H_    0.117319 0.675625 0.779501 0.213306
H19   H     H_    0.201809 0.737138 0.859180 0.188234
C31   C     C_3   0.847130 0.680805 0.372732 -0.363029
C32   C     C_3   0.870744 0.819149 0.482931 -0.712132
H20   H     H_    0.826353 0.881891 0.502182 0.242303
H21   H     H_    0.895384 0.818066 0.590717 0.266532
H22   H     H_    0.909327 0.864361 0.437805 0.250978
H23   H     H_    0.892436 0.634667 0.321122 0.213552
H24   H     H_    0.811445 0.684682 0.276941 0.190473
F1    F     F_    0.132035 0.301269 0.319750 -0.653710
F2    F     F_    0.854625 0.321199 0.561300 -0.654576
C33   C     C_3   0.273547 0.274818 0.310144 -0.310310
C34   C     C_3   0.265621 0.273098 0.152804 -0.710573
H25   H     H_    0.294479 0.359774 0.149511 0.250581
H26   H     H_    0.286994 0.183838 0.079877 0.234391
H27   H     H_    0.209729 0.272553 0.109570 0.277189
H28   H     H_    0.328858 0.263271 0.346129 0.189456
H29   H     H_    0.243909 0.187396 0.310179 0.233507
C35   C     C_3   0.710949 0.296110 0.553958 -0.322643
C36   C     C_3   0.718697 0.324371 0.719454 -0.725057
H30   H     H_    0.774654 0.332887 0.766485 0.279465
H31   H     H_    0.695045 0.416408 0.777794 0.253279
H32   H     H_    0.691697 0.243310 0.738347 0.233544
H33   H     H_    0.654715 0.277887 0.507614 0.170941
H34   H     H_    0.734632 0.203226 0.498115 0.235644
F3    F     F_    0.521401 0.968683 0.737930 -0.638799
F4    F     F_    0.479251 0.031252 0.262158 -0.637356
F5    F     F_    0.442270 0.399702 0.828816 -0.667473
F6    F     F_    0.555349 0.604147 0.170912 -0.695852

loop_
_geom_bond_atom_site_label_1
_geom_bond_atom_site_label_2
_ccdc_geom_bond_type
C20   C35   S    
C10   O6    A    
C34   H27   S    
C7    C8    S    
C28   H10   S    
C10   C22   S    
C26   H7    S    
C29   H18   S    
H4    N5    S    
C3    F4    S    
C19   C21   A    
C34   H26   S    
Cu1   O4    S    
C5    C6    S    
Cu2   O3    S    
C25   H9    S    
C35   H33   S    
C12   C22   A    
C30   H16   S    
C8    N6    D    
Cu1   O1    S    
C31   H24   S    
C36   H30   S    
C23   N3    A    
N1    N3    A    
C33   H28   S    
C6    H1    S    
C1    O1    A    
C31   C32   S    
C29   C30   S    
C18   F2    S    
C17   F1    S    
Cu1   O8    S    
C12   C27   S    
Cu2   O7    S    
C28   H11   S    
C26   H6    S    
C9    O7    A    
C10   O8    A    
C32   H20   S    
C34   H25   S    
C4    C6    D    
Cu1   O5    S    
Cu2   O2    S    
Cu1   Cu2   S    
C25   C26   S    
C11   C21   A    
C24   N4    A    
C30   H15   S    
C1    C3    S    
N2    N4    A    
C2    C4    S    
C33   C34   S    
C5    H2    S    
C2    O2    A    
C31   H23   S    
H3    N6    S    
C14   C31   S    
C8    F5    S    
C27   H14   S    
C15   C24   S    
C36   H31   S    
C20   C22   A    
C16   C23   S    
C13   C15   A    
C14   C16   A    
C11   C25   S    
C27   C28   S    
Cu2   O6    S    
C4    F3    S    
C28   H12   S    
C15   C17   A    
C26   H5    S    
C7    N5    D    
C33   H29   S    
C12   C14   A    
C3    C5    D    
C13   C29   S    
C9    O5    A    
C32   H22   S    
C23   N2    A    
C19   C33   S    
C24   N1    A    
C29   H19   S    
C11   C13   A    
C9    C21   S    
C25   H8    S    
C35   H34   S    
C7    F6    S    
C17   C19   A    
C18   C20   A    
C30   H17   S    
C27   H13   S    
C1    O3    A    
Cu1   N6    S    
C2    O4    A    
Cu2   N5    S    
C36   H32   S    
C16   C18   A    
C35   C36   S    
C32   H21   S    
