data_mof_unit_10474.cif
_audit_creation_date              2013-03-05T16:33:10-0500
_audit_creation_method            fapswitch 2.2
_symmetry_space_group_name_H-M    P1
_symmetry_Int_Tables_number       1
_space_group_crystal_system       triclinic
_cell_length_a                    27.752244
_cell_length_b                    10.852803
_cell_length_c                    9.521552
_cell_angle_alpha                 89.216076
_cell_angle_beta                  90.100938
_cell_angle_gamma                 90.021935
_cell_volume                      2867.51973638

loop_
_atom_site_label
_atom_site_type_symbol
_atom_site_description
_atom_site_fract_x
_atom_site_fract_y
_atom_site_fract_z
_atom_type_partial_charge
O1    O     O_R   0.500000 0.319640 0.618810 -0.581100
O2    O     O_R   0.500010 0.319680 0.381230 -0.586230
C1    C     C_R   0.499588 0.262586 0.500650 0.819453
O3    O     O_R   0.430260 0.500000 0.618780 -0.592562
O4    O     O_R   0.430270 0.500040 0.381190 -0.555205
C2    C     C_R   0.407653 0.502018 0.499825 0.800058
Cu1   Cu    Cu3+1 0.500000 0.499980 0.640670 0.938150
Cu2   Cu    Cu3+1 0.500000 0.500020 0.359330 0.946555
O5    O     O_R   0.499990 0.680320 0.618770 -0.580653
O6    O     O_R   0.500000 0.680360 0.381190 -0.583924
O7    O     O_R   0.569730 0.499960 0.618810 -0.581180
O8    O     O_R   0.569740 0.500000 0.381220 -0.581600
C3    C     C_R   0.498650 0.737833 0.498149 0.789071
C4    C     C_R   0.592614 0.499197 0.499897 0.816897
C5    C     C_R   0.177552 0.395791 0.564689 0.539591
O9    O     O_2   0.201917 0.310468 0.640873 -0.546412
N1    N     N_R   0.202124 0.486997 0.494519 -0.455393
C6    C     C_R   0.178319 0.576306 0.418756 0.539084
C7    C     C_R   0.277522 0.587968 0.563272 -0.122652
C8    C     C_R   0.327911 0.597079 0.560656 0.010322
C9    C     C_R   0.330940 0.399556 0.438109 0.104901
C10   C     C_R   0.280488 0.395759 0.437769 -0.142444
C11   C     C_R   0.253833 0.489416 0.500114 0.292677
C12   C     C_R   0.101909 0.481528 0.480311 -0.047037
C13   C     C_R   0.127024 0.391092 0.558463 -0.018466
C14   C     C_R   0.101085 0.300573 0.631903 -0.153337
C15   C     C_R   0.127810 0.576110 0.411676 -0.021836
C16   C     C_R   0.354854 0.500454 0.499529 -0.066188
H1    H     H_    0.261703 0.320069 0.388778 0.147582
H2    H     H_    0.119232 0.233529 0.698652 0.185615
C17   C     C_R   0.645664 0.495295 0.498211 -0.094545
C18   C     C_R   0.974676 0.367949 0.512363 -0.002031
C19   C     C_R   0.974830 0.580621 0.415407 0.055766
C20   C     C_R   0.949449 0.475441 0.466620 0.044778
C21   C     C_R   0.947699 0.256555 0.533559 0.080567
C22   C     C_R   0.897273 0.262254 0.539433 -0.173925
C23   C     C_R   0.872556 0.372219 0.512957 -0.052902
C24   C     C_R   0.898405 0.477847 0.471270 -0.047793
C25   C     C_R   0.873066 0.585951 0.433713 -0.008829
C26   C     C_R   0.822608 0.587194 0.442513 0.524163
N2    N     N_R   0.798302 0.484102 0.486145 -0.468861
C27   C     C_R   0.822015 0.377343 0.519923 0.537527
C28   C     C_R   0.720048 0.452144 0.374514 -0.123822
C29   C     C_R   0.669907 0.456188 0.377337 -0.216594
C30   C     C_R   0.672527 0.530203 0.616280 -0.180828
C31   C     C_R   0.722864 0.526305 0.614127 0.195243
C32   C     C_R   0.746725 0.487061 0.492179 0.319226
O10   O     O_2   0.796733 0.276653 0.560057 -0.538793
C33   C     C_R   0.025371 0.377626 0.533138 0.035554
C34   C     C_R   0.050863 0.478167 0.472222 0.076396
C35   C     C_R   0.025772 0.576631 0.406016 0.041084
C36   C     C_R   0.051124 0.295620 0.621471 -0.229401
H3    H     H_    0.650136 0.427493 0.285301 0.157304
H4    H     H_    0.738305 0.421932 0.280646 0.147632
H5    H     H_    0.877061 0.178164 0.557928 0.187639
H6    H     H_    0.032974 0.228997 0.687048 0.167903
O11   O     O_2   0.203491 0.664605 0.349733 -0.551793
C37   C     C_R   0.102819 0.668007 0.337396 -0.147010
H7    H     H_    0.256238 0.659308 0.611834 0.147955
H8    H     H_    0.121890 0.740775 0.281755 0.184706
C38   C     C_R   0.948348 0.687297 0.377611 -0.223395
C39   C     C_R   0.898466 0.690053 0.387900 -0.147040
O12   O     O_2   0.797960 0.690354 0.407547 -0.538022
C40   C     C_R   0.052715 0.669072 0.335487 -0.216697
H9    H     H_    0.965367 0.772032 0.344243 0.133669
H10   H     H_    0.654637 0.562344 0.709461 0.158430
H11   H     H_    0.879860 0.774518 0.359345 0.185322
H12   H     H_    0.035989 0.742037 0.274857 0.140685
C41   C     C_R   0.512527 0.060876 0.617975 0.137813
C42   C     C_R   0.500623 0.129845 0.498931 -0.130230
C43   C     C_R   0.492033 0.069708 0.372216 -0.243070
H13   H     H_    0.483816 0.123295 0.278299 0.163734
C44   C     C_R   0.490343 0.941348 0.366201 0.071227
C45   C     C_R   0.499258 0.871648 0.492401 -0.140392
C46   C     C_R   0.512069 0.934184 0.614514 0.107219
C47   C     C_3   0.491535 0.924100 0.759482 -0.468926
C48   C     C_3   0.491701 0.063857 0.762361 -0.477253
H14   H     H_    0.454762 0.883461 0.761383 0.201193
H15   H     H_    0.517331 0.881736 0.835372 0.197761
H16   H     H_    0.454943 0.104623 0.764440 0.195914
H17   H     H_    0.517428 0.101876 0.840204 0.201781
C49   C     C_R   0.523074 0.591201 0.072441 0.222274
N3    N     N_R   0.500300 0.500930 0.147930 -0.183092
C50   C     C_R   0.473278 0.417324 0.075669 -0.066137
H18   H     H_    0.452415 0.348953 0.132656 0.150732
C51   C     C_R   0.473325 0.417223 0.926581 -0.076752
H19   H     H_    0.452547 0.348722 0.871458 0.139623
N4    N     N_R   0.500310 0.500890 0.852020 -0.183256
C52   C     C_R   0.523087 0.591202 0.924941 0.252343
C53   C     C_3   0.575521 0.620479 0.919705 -0.494842
C54   C     C_3   0.575307 0.622132 0.078826 -0.482687
H20   H     H_    0.597058 0.542973 0.878312 0.216559
H21   H     H_    0.582802 0.712104 0.870672 0.193262
H22   H     H_    0.597451 0.547249 0.126331 0.220105
H23   H     H_    0.581754 0.715227 0.122303 0.192259
N5    N     N_3   0.358198 0.301308 0.376586 -0.582108
H24   H     H_    0.335175 0.236023 0.332400 0.214915
H25   H     H_    0.376811 0.255964 0.457718 0.201908
N6    N     N_3   0.749148 0.562783 0.736219 -0.587582
H26   H     H_    0.771714 0.636149 0.708021 0.240843
H27   H     H_    0.770811 0.488909 0.768724 0.233549
C55   C     C_3   0.475272 0.887373 0.225981 -0.367434
C56   C     C_3   0.423137 0.840167 0.230477 -0.324850
C57   C     C_3   0.407825 0.787343 0.089516 -0.829548
H28   H     H_    0.410600 0.858764 0.005229 0.243386
H29   H     H_    0.430811 0.707542 0.062409 0.254745
H30   H     H_    0.369838 0.755640 0.095964 0.248294
H31   H     H_    0.418797 0.767808 0.312914 0.232152
H32   H     H_    0.398733 0.917861 0.256206 0.215304
H33   H     H_    0.477319 0.958838 0.141244 0.178609
H34   H     H_    0.500919 0.816056 0.191523 0.213086
C58   C     C_3   0.969163 0.127975 0.523091 -0.418542
C59   C     C_3   0.962710 0.052012 0.659538 -0.357843
C60   C     C_3   0.994478 0.937223 0.660166 -0.819115
H35   H     H_    0.985733 0.878709 0.568887 0.257843
H36   H     H_    0.033134 0.963700 0.655667 0.252352
H37   H     H_    0.988180 0.882877 0.758080 0.246663
H38   H     H_    0.971527 0.107870 0.752985 0.219562
H39   H     H_    0.924505 0.022541 0.669689 0.225038
H40   H     H_    0.950373 0.078883 0.436995 0.193495
H41   H     H_    0.007326 0.130200 0.489316 0.212796
C61   C     C_3   0.351106 0.712433 0.619504 -0.417236
C62   C     C_3   0.334697 0.828457 0.538192 -0.333711
C63   C     C_3   0.363195 0.942034 0.581795 -0.874550
H42   H     H_    0.360102 0.956161 0.696754 0.260870
H43   H     H_    0.401674 0.931379 0.553495 0.256267
H44   H     H_    0.348878 0.024727 0.525931 0.248055
H45   H     H_    0.339423 0.814739 0.423650 0.225714
H46   H     H_    0.295893 0.846030 0.558103 0.237262
H47   H     H_    0.340951 0.720693 0.731878 0.206005
H48   H     H_    0.390966 0.708166 0.615510 0.203640

loop_
_geom_bond_atom_site_label_1
_geom_bond_atom_site_label_2
_geom_bond_distance
_ccdc_geom_bond_type
C31   N6    1.431654 S    
C10   H1    1.083257 S    
Cu2   N3    2.012778 S    
N2    C27   1.366967 A    
C41   C48   1.493030 S    
C21   C22   1.402070 A    
C12   C15   1.407173 A    
C4    C17   1.473004 S    
C28   C29   1.392533 A    
C57   H29   1.109382 S    
C60   H35   1.109857 S    
C53   C54   1.515450 S    
C62   C63   1.526216 S    
C30   C31   1.397805 A    
Cu1   O7    1.946690 S    
N1    C11   1.436179 S    
C26   O12   1.349744 S    
C39   H11   1.083481 S    
C40   H12   1.078245 S    
C22   C23   1.396472 A    
C47   H14   1.111700 S    
C24   C25   1.409654 A    
O7    C4    1.299290 A    
C51   N4    1.368600 A    
C5    C13   1.404353 A    
C37   H8    1.083368 S    
C5    O9    1.349532 S    
Cu1   O5    1.965431 S    
C44   C45   1.432321 A    
C23   C27   1.405473 A    
Cu1   N4    2.012544 S    
O5    C3    1.300108 A    
C58   C59   1.539809 S    
C6    O11   1.349860 S    
C59   H39   1.111332 S    
C29   H3    1.082430 S    
C2    C16   1.465397 S    
N6    H26   1.045292 S    
N5    H25   1.046009 S    
C47   H15   1.111464 S    
C56   H31   1.109374 S    
C8    C61   1.520822 S    
C38   C39   1.388317 A    
O1    Cu1   1.971061 S    
C9    C10   1.400754 A    
C62   H46   1.110798 S    
C37   C40   1.390652 A    
C55   H34   1.105197 S    
C55   C56   1.535178 S    
O3    Cu1   1.946269 S    
C57   H28   1.110841 S    
C19   C20   1.422082 A    
C47   C48   1.517384 S    
C12   C34   1.419096 A    
C17   C29   1.404878 A    
C6    C15   1.403258 A    
C18   C21   1.433857 A    
Cu1   Cu2   2.678787 S    
C1    C42   1.441222 S    
C12   C13   1.407667 A    
O3    C2    1.293748 A    
C45   C46   1.399592 A    
C25   C26   1.403036 A    
C58   H40   1.112669 S    
C51   H19   1.081639 S    
C8    C16   1.419973 A    
C7    H7    1.083167 S    
C13   C14   1.398097 A    
O6    C3    1.284447 A    
C49   C54   1.489130 S    
O1    C1    1.291636 A    
C18   C20   1.423519 A    
C7    C11   1.397673 A    
C46   C47   1.496866 S    
C23   C24   1.405057 A    
C14   C36   1.390977 A    
C28   H4    1.082956 S    
C53   H20   1.109240 S    
N3    C50   1.368873 A    
C48   H17   1.111593 S    
Cu2   O8    1.946264 S    
C33   C36   1.410020 A    
N5    H24   1.046011 S    
N1    C6    1.369667 A    
N2    C32   1.433021 S    
C34   C35   1.415899 A    
C27   O10   1.349583 S    
C50   H18   1.081672 S    
C49   C52   1.404430 A    
C42   C43   1.399605 A    
C63   H44   1.110262 S    
C19   C38   1.413604 A    
C44   C55   1.523103 S    
N6    H27   1.045448 S    
C9    C16   1.413201 A    
O8    C4    1.295054 A    
C14   H2    1.083288 S    
C55   H33   1.113000 S    
C61   H48   1.107955 S    
C56   C57   1.526276 S    
C53   H21   1.111334 S    
C63   H43   1.108295 S    
C59   C60   1.526400 S    
C48   H16   1.112420 S    
C5    N1    1.369019 A    
C25   C39   1.396654 A    
C31   C32   1.408759 A    
C26   N2    1.366412 A    
C20   C24   1.417628 A    
O2    Cu2   1.965433 S    
C35   C40   1.413960 A    
C50   C51   1.419574 A    
C15   C37   1.398361 A    
O4    Cu2   1.946693 S    
C60   H36   1.111269 S    
C9    N5    1.439298 S    
C19   C35   1.417469 A    
C56   H32   1.111909 S    
C7    C8    1.402108 A    
O2    C1    1.287539 A    
C52   C53   1.490092 S    
C58   H41   1.107548 S    
C22   H5    1.083540 S    
C54   H22   1.109986 S    
C62   H45   1.110751 S    
O4    C2    1.293662 A    
C41   C46   1.375859 A    
C41   C42   1.389190 A    
C18   C33   1.424430 A    
C60   H37   1.110427 S    
C54   H23   1.111405 S    
C59   H38   1.110370 S    
C38   H9    1.077915 S    
C43   H13   1.083988 S    
N4    C52   1.363424 A    
Cu2   O6    1.971059 S    
C33   C34   1.418128 A    
C17   C30   1.404140 A    
C43   C44   1.395791 A    
C30   H10   1.079589 S    
C10   C11   1.396915 A    
C63   H42   1.110825 S    
C49   N3    1.362994 A    
C61   C62   1.537806 S    
C28   C32   1.398369 A    
C61   H47   1.111758 S    
C57   H30   1.110362 S    
C21   C58   1.522078 S    
C36   H6    1.074649 S    
C3    C45   1.452641 S    
