data_mof_unit_21556.cif
_audit_creation_date              2012-12-10T17:47:05-0500
_audit_creation_method            fapswitch 2.2
_symmetry_space_group_name_H-M    P1
_symmetry_Int_Tables_number       1
_space_group_crystal_system       triclinic
_cell_length_a                    9.936167
_cell_length_b                    10.582022
_cell_length_c                    13.620603
_cell_angle_alpha                 93.265272
_cell_angle_beta                  82.849625
_cell_angle_gamma                 90.670375
_cell_volume                      1418.67453389

loop_
_atom_site_label
_atom_site_type_symbol
_atom_type_description
_atom_site_fract_x
_atom_site_fract_y
_atom_site_fract_z
_atom_type_partial_charge
C1    C     C_R   0.503541 0.736997 0.483590 0.929887
C2    C     C_R   0.637084 0.929988 0.447236 0.318147
C3    C     C_R   0.635129 0.061476 0.457377 0.405147
C4    C     C_R   0.475523 0.500593 0.685571 0.911557
C5    C     C_R   0.510802 0.125111 0.455669 -0.281283
C6    C     C_R   0.846021 0.645759 0.656642 0.471298
C7    C     C_R   0.908410 0.675424 0.743895 0.329220
C8    C     C_R   0.050111 0.668861 0.737934 0.258600
C9    C     C_R   0.123102 0.636842 0.647379 -0.215735
C10   C     C_R   0.062662 0.569169 0.573116 -0.018420
C11   C     C_R   0.918162 0.570140 0.575381 -0.107376
C12   C     C_1   0.457166 0.504028 0.789491 -0.112959
C13   C     C_R   0.938618 0.434673 0.428021 0.578320
C14   C     C_R   0.082565 0.434139 0.429376 -0.244194
C15   C     C_R   0.502284 0.259478 0.486665 0.903483
C16   C     C_R   0.524536 0.499387 0.314392 0.870357
C17   C     C_1   0.543870 0.500942 0.210666 -0.166490
C18   C     C_2   0.563820 0.504210 0.018282 0.491403
C19   C     C_2   0.446374 0.509501 0.981244 -0.217575
C20   C     C_1   0.446940 0.507069 0.877373 0.121279
C21   C     C_1   0.557490 0.502550 0.122889 -0.156073
C22   C     C_3   0.705183 0.823345 0.681522 -0.191283
C23   C     C_R   0.297227 0.856641 0.375288 -0.252698
C24   C     C_3   0.863348 0.828610 0.873412 -0.271243
C25   C     C_3   0.048828 0.740836 0.338224 -0.294481
C26   C     C_3   0.794040 0.123261 0.559122 -0.246582
C27   C     C_3   0.938865 0.378445 0.261622 -0.305030
C28   C     C_R   0.188650 0.918864 0.341092 0.580227
C29   C     C_R   0.191470 0.050486 0.341766 -0.207136
C30   C     C_R   0.296923 0.119266 0.377929 -0.217976
C31   C     C_R   0.400963 0.058440 0.418975 0.047353
C32   C     C_R   0.401240 0.925419 0.417157 -0.020724
C33   C     C_R   0.512696 0.865257 0.449761 -0.246905
H1    H     H_    0.349814 0.513676 0.028655 0.113756
H2    H     H_    0.924168 0.889101 0.819746 0.144761
H3    H     H_    0.918047 0.817067 0.938473 0.195020
H4    H     H_    0.768995 0.880874 0.901545 0.171293
H5    H     H_    0.064543 0.665392 0.877389 0.357927
H6    H     H_    0.759968 0.495316 0.999846 0.333702
H7    H     H_    0.834006 0.919834 0.416295 0.376950
H8    H     H_    0.039721 0.749316 0.420652 0.170453
H9    H     H_    0.120494 0.664563 0.307668 0.156642
H10   H     H_    0.947666 0.712750 0.317735 0.220332
H11   H     H_    0.706164 0.128254 0.618734 0.121222
H12   H     H_    0.228300 0.659045 0.639900 0.253358
H13   H     H_    0.860023 0.206192 0.572437 0.193305
H14   H     H_    0.854906 0.037446 0.564449 0.152866
H15   H     H_    0.030319 0.318124 0.243949 0.148882
H16   H     H_    0.964206 0.479464 0.248859 0.131631
H17   H     H_    0.866518 0.347570 0.209120 0.202076
H18   H     H_    0.146452 0.379600 0.373098 0.143481
H19   H     H_    0.305589 0.755651 0.361334 0.175809
H20   H     H_    0.113572 0.100014 0.310408 0.173680
H21   H     H_    0.300353 0.219006 0.366256 0.175623
H22   H     H_    0.802318 0.877109 0.671986 0.104286
H23   H     H_    0.655751 0.832287 0.759060 0.186730
H24   H     H_    0.634695 0.868408 0.637631 0.155976
N1    N     N_R   0.857120 0.501200 0.500900 -0.122529
N2    N     N_R   0.142720 0.501280 0.500940 -0.101089
O1    O     O_R   0.385310 0.683220 0.500000 -0.664731
O2    O     O_3   0.827462 0.708501 0.832402 -0.564607
O3    O     O_3   0.120705 0.694621 0.817660 -0.758684
O4    O     O_3   0.686058 0.498438 0.957311 -0.716734
O5    O     O_3   0.757388 0.863432 0.438441 -0.752155
O6    O     O_3   0.086856 0.856413 0.295518 -0.615534
O7    O     O_3   0.755562 0.127798 0.462930 -0.554605
O8    O     O_3   0.876544 0.361100 0.358845 -0.542386
O9    O     O_R   0.614640 0.683250 0.500010 -0.491559
O10   O     O_R   0.368830 0.499960 0.640340 -0.626355
O11   O     O_R   0.598160 0.499980 0.640350 -0.555084
O12   O     O_R   0.385360 0.316750 0.499990 -0.626023
O13   O     O_R   0.614690 0.316780 0.500000 -0.536662
O14   O     O_R   0.401840 0.500020 0.359650 -0.647572
O15   O     O_R   0.631170 0.500040 0.359660 -0.575181
O16   O     O_3   0.719238 0.693955 0.649760 -0.533772
Zn1   Zn    Zn3+2 0.346870 0.499980 0.499990 0.920998
Zn2   Zn    Zn3+2 0.653130 0.500020 0.500010 1.062393

loop_
_geom_bond_atom_site_label_1
_geom_bond_atom_site_label_2
_ccdc_geom_bond_type
C27   H15   S    
C9    H12   S    
C24   O2    S    
C18   C21   S    
C19   C20   S    
C25   H10   S    
C22   H24   S    
C4    O11   A    
C1    C33   S    
C7    C8    A    
C14   N2    A    
C30   H21   S    
C24   H3    S    
C16   O15   A    
C28   C29   A    
C30   C31   A    
C18   O4    S    
C1    O9    A    
O10   Zn1   S    
C18   C19   D    
C7    O2    S    
N1    Zn2   S    
C14   H18   S    
C8    C9    A    
O15   Zn2   S    
C4    C12   S    
C29   C30   A    
C9    C10   A    
C27   H17   S    
C13   C14   A    
O11   Zn2   S    
C22   O16   S    
C4    O10   A    
C2    O5    S    
C24   H2    S    
C26   H11   S    
C16   O14   A    
C26   O7    S    
C6    O16   S    
C25   O6    S    
C1    O1    A    
C25   H8    S    
C6    C11   A    
C16   C17   S    
C22   H23   S    
C13   N1    A    
O1    Zn1   S    
C17   C21   T    
O13   Zn2   S    
C15   O13   A    
C31   C32   A    
C12   C20   T    
C24   H4    S    
C23   C28   A    
C6    C7    A    
C26   H14   S    
C2    C33   A    
O14   Zn1   S    
C3    O7    S    
C11   N1    A    
C15   O12   A    
C13   O8    S    
O9    Zn2   S    
C3    C5    A    
C19   H1    S    
C25   H9    S    
C22   H22   S    
H6    O4    S    
H7    O5    S    
C32   C33   A    
C28   O6    S    
C23   C32   A    
C23   H19   S    
O12   Zn1   S    
C29   H20   S    
C2    C3    A    
C5    C15   S    
C27   O8    S    
C10   C11   A    
C26   H13   S    
H5    O3    S    
C10   N2    A    
N2    Zn1   S    
C27   H16   S    
C8    O3    S    
C5    C31   A    
