data_mof_unit_9567.cif
_audit_creation_date              2013-03-05T15:55:47-0500
_audit_creation_method            fapswitch 2.2
_symmetry_space_group_name_H-M    P1
_symmetry_Int_Tables_number       1
_space_group_crystal_system       triclinic
_cell_length_a                    8.831128
_cell_length_b                    16.663431
_cell_length_c                    23.270125
_cell_angle_alpha                 99.366312
_cell_angle_beta                  90.472217
_cell_angle_gamma                 94.618845
_cell_volume                      3366.93981398

loop_
_atom_site_label
_atom_site_type_symbol
_atom_site_description
_atom_site_fract_x
_atom_site_fract_y
_atom_site_fract_z
_atom_type_partial_charge
P1    P     P_3+3 0.070660 0.431690 0.369620 0.535621
O1    O     O_2   0.899090 0.455560 0.360740 -0.319217
O2    O     O_3   0.139470 0.456390 0.431790 -0.360396
O3    O     O_3   0.652060 0.602710 0.395680 -0.378704
O4    O     O_2   0.754607 0.536622 0.294861 -0.342595
O5    O     O_3   0.061236 0.325457 0.339806 -0.580942
O6    O     O_3   0.690069 0.686239 0.294526 -0.548692
C1    C     C_3   0.754745 0.830912 0.311010 -0.382219
H1    H     H_    0.870061 0.814001 0.302825 0.184897
P2    P     P_3+3 0.630590 0.685720 0.544880 0.433825
P3    P     P_3+3 0.115823 0.750528 0.428874 0.415126
O7    O     O_2   0.805680 0.697590 0.527730 -0.314036
O8    O     O_3   0.061950 0.644310 0.424380 -0.366810
O9    O     O_2   0.005488 0.793484 0.472775 -0.406143
O10   O     O_3   0.640071 0.724871 0.620249 -0.638749
O11   O     O_3   0.069014 0.785088 0.363877 -0.586465
C2    C     C_3   0.141775 0.743611 0.315142 0.312600
H2    H     H_    0.235663 0.710469 0.328786 0.002172
C3    C     C_3   0.207778 0.806776 0.276180 -0.390991
C4    C     C_3   0.206117 0.733662 0.636879 0.283277
C5    C     C_3   0.184007 0.821020 0.672696 -0.230844
Ba1   Ba    Ba6+2 0.848660 0.538140 0.472240 1.565689
C6    C     C_3   0.978242 0.268983 0.368848 0.442101
C7    C     C_3   0.930191 0.188056 0.324780 -0.437356
H3    H     H_    0.818147 0.163253 0.338605 0.208125
C8    C     C_3   0.716275 0.680322 0.655922 0.176295
H4    H     H_    0.824650 0.662594 0.636080 0.119441
C9    C     C_3   0.751132 0.737696 0.715944 -0.350967
H5    H     H_    0.813595 0.794091 0.707185 0.135681
P4    P     P_3+3 0.119040 0.568370 0.630390 0.497503
O12   O     O_2   0.290610 0.544470 0.639300 -0.385206
O13   O     O_3   0.050220 0.543670 0.568220 -0.301388
O14   O     O_3   0.537630 0.397360 0.604330 -0.445427
O15   O     O_3   0.101293 0.674706 0.654926 -0.608666
P5    P     P_3+3 0.092525 0.249449 0.571412 0.423230
O16   O     O_3   0.634180 0.402670 0.470930 -0.355600
O17   O     O_3   0.127750 0.355750 0.575620 -0.342157
O18   O     O_2   0.222075 0.213040 0.534059 -0.424307
O19   O     O_3   0.127710 0.222477 0.640856 -0.618393
Ba2   Ba    Ba6+2 0.341160 0.461930 0.527770 1.597220
P6    P     P_3+3 0.632351 0.593410 0.319004 0.448835
C10   C     C_3   0.671886 0.758172 0.335630 0.442042
O20   O     O_3   0.555510 0.597400 0.529070 -0.421976
C11   C     C_3   0.485697 0.249671 0.324805 0.323042
C12   C     C_3   0.419781 0.160253 0.302343 -0.518721
H6    H     H_    0.330453 0.145216 0.332984 0.167934
P7    P     P_3+3 0.554733 0.299113 0.451671 0.509880
O21   O     O_2   0.384010 0.302440 0.472310 -0.311740
O22   O     O_3   0.572564 0.249477 0.377082 -0.588417
C13   C     C_3   0.044903 0.266206 0.685839 0.272079
H7    H     H_    0.947129 0.289523 0.666091 0.043189
C14   C     C_3   0.976769 0.208074 0.729733 -0.367767
P8    P     P_3+3 0.564571 0.402144 0.680226 0.518161
C15   C     C_3   0.526639 0.239168 0.651786 0.306756
O23   O     O_2   0.431648 0.450148 0.706305 -0.303459
O24   O     O_3   0.518155 0.303600 0.699955 -0.493807
H8    H     H_    0.458249 0.253350 0.614835 0.128426
C16   C     C_3   0.463730 0.150540 0.663678 -0.191946
C17   C     C_R   0.347843 0.507845 0.329666 -0.492210
C18   C     C_R   0.157172 0.540753 0.939019 -0.035479
C19   C     C_R   0.136896 0.530521 0.877729 0.579687
O25   O     O_2   0.238750 0.558164 0.850175 -0.571185
N1    N     N_R   0.011728 0.483998 0.849347 -0.153169
C20   C     C_R   0.941908 0.425727 0.880291 0.622291
O26   O     O_2   0.854288 0.371787 0.854622 -0.558302
C21   C     C_R   0.976705 0.424407 0.940923 -0.099677
C22   C     C_R   0.081797 0.485269 0.970570 0.001113
C23   C     C_R   0.258956 0.603268 0.968574 -0.192880
C24   C     C_R   0.285077 0.612470 0.028904 -0.085161
C25   C     C_R   0.211249 0.555500 0.061288 -0.017411
C26   C     C_R   0.117982 0.488826 0.031002 0.014300
C27   C     C_R   0.910135 0.364262 0.972896 -0.068616
C28   C     C_R   0.958247 0.362732 0.031529 -0.099999
C29   C     C_R   0.064311 0.425277 0.060915 -0.119798
C30   C     C_R   0.123374 0.425820 0.118818 0.534142
N2    N     N_R   0.193521 0.496745 0.151157 -0.158409
C31   C     C_R   0.224018 0.563315 0.122931 0.585492
C32   C     C_2   0.807776 0.467314 0.771642 -0.105196
C33   C     C_3   0.750758 0.465277 0.709518 0.254900
C34   C     C_1   0.006083 0.517440 0.685614 0.249125
C35   C     C_2   0.050639 0.531762 0.742630 -0.047590
C36   C     C_2   0.956278 0.491739 0.788647 0.063926
C37   C     C_R   0.397292 0.530672 0.230599 -0.206804
C38   C     C_R   0.442429 0.541849 0.290127 0.149009
C39   C     C_R   0.192480 0.483116 0.316027 0.198612
C40   C     C_R   0.141325 0.480481 0.257095 -0.106062
C41   C     C_R   0.244198 0.501149 0.212808 0.113781
O27   O     O_2   0.117068 0.362787 0.139301 -0.602444
O28   O     O_2   0.261247 0.629710 0.151549 -0.598713
C42   C     C_2   0.876003 0.475931 0.666706 -0.580111
H9    H     H_    0.319082 0.645816 0.944331 0.165851
H10   H     H_    0.723398 0.452132 0.802467 0.208591
H11   H     H_    0.836267 0.482822 0.624101 0.149368
C43   C     C_R   0.408855 0.731969 0.472347 -0.296818
C44   C     C_R   0.539134 0.759553 0.506842 0.269240
C45   C     C_R   0.583659 0.844687 0.519166 -0.194454
C46   C     C_R   0.497094 0.900123 0.496127 0.196962
C47   C     C_R   0.356442 0.871423 0.468255 -0.316284
C48   C     C_R   0.311248 0.787495 0.456545 0.214118
C49   C     C_R   0.620163 0.144899 0.480407 -0.195530
C50   C     C_R   0.661309 0.230305 0.490752 0.082014
C51   C     C_R   0.718566 0.090340 0.500064 0.136382
N3    N     N_2   0.540833 0.985784 0.505018 -0.051968
N4    N     N_2   0.677285 0.004061 0.494711 -0.049591
C52   C     C_R   0.804151 0.260145 0.517364 -0.449581
H12   H     H_    0.282522 0.914468 0.455363 0.184655
C53   C     C_R   0.905872 0.206712 0.534677 0.217657
C54   C     C_R   0.863958 0.121684 0.524519 -0.103392
N5    N     N_3   0.734610 0.751419 0.392911 -0.173798
H13   H     H_    0.754476 0.807453 0.420141 0.076244
H14   H     H_    0.833052 0.721632 0.387196 0.242988
N6    N     N_3   0.185038 0.817652 0.735500 -0.190481
H15   H     H_    0.291864 0.804226 0.748839 0.129313
H16   H     H_    0.167350 0.875124 0.758980 0.169933
N7    N     N_3   0.305385 0.881036 0.659335 -0.224311
H17   H     H_    0.412334 0.863633 0.668682 0.108916
H18   H     H_    0.295652 0.937284 0.685840 0.215905
C55   C     C_2   0.033884 0.850763 0.656269 0.526326
H19   H     H_    0.954861 0.812196 0.625719 0.044207
O29   O     O_2   0.999307 0.918738 0.677276 -0.620344
N8    N     N_3   0.840006 0.301893 0.388960 -0.182457
H20   H     H_    0.792179 0.323109 0.354143 0.212328
H21   H     H_    0.860517 0.352458 0.420277 0.196623
N9    N     N_3   0.066084 0.252521 0.418568 -0.121713
H22   H     H_    0.004154 0.206651 0.435685 0.116927
H23   H     H_    0.164837 0.226279 0.404003 0.163037
N10   N     N_3   0.909061 0.206156 0.265775 -0.197372
H24   H     H_    0.014299 0.222752 0.249051 0.159365
H25   H     H_    0.863883 0.153224 0.238594 0.119951
C56   C     C_2   0.029322 0.117843 0.323303 0.458035
H26   H     H_    0.089207 0.096252 0.284200 0.036322
O30   O     O_2   0.035380 0.081041 0.364453 -0.602439
C57   C     C_2   0.618907 0.604644 0.662406 0.414062
H27   H     H_    0.603550 0.555330 0.625907 0.098921
O31   O     O_2   0.555031 0.597972 0.707867 -0.559828
C58   C     C_2   0.770451 0.911560 0.352569 0.486295
H28   H     H_    0.851290 0.920348 0.388869 0.081577
O32   O     O_2   0.697826 0.968337 0.345059 -0.550893
N11   N     N_3   0.845383 0.702279 0.755540 -0.185869
H29   H     H_    0.814298 0.640170 0.753386 0.149460
H30   H     H_    0.957161 0.709356 0.742600 0.155203
C59   C     C_2   0.612861 0.767919 0.747120 0.761386
H31   H     H_    0.554161 0.814473 0.731193 -0.077399
O33   O     O_2   0.569157 0.743206 0.791274 -0.556308
N12   N     N_3   0.512229 0.771116 0.341224 -0.222809
H32   H     H_    0.502087 0.825264 0.370002 0.116700
H33   H     H_    0.462602 0.724039 0.360646 0.065038
N13   N     N_3   0.687042 0.839582 0.254826 -0.122572
H34   H     H_    0.586627 0.868368 0.261976 0.182501
H35   H     H_    0.760709 0.878358 0.234766 0.165571
C60   C     C_2   0.360852 0.303355 0.330303 0.499439
H36   H     H_    0.305880 0.317228 0.291573 -0.004346
O34   O     O_2   0.321776 0.333954 0.377617 -0.546292
C61   C     C_2   0.589290 0.277566 0.278516 0.357079
H37   H     H_    0.632930 0.233532 0.244614 0.062170
O35   O     O_2   0.623719 0.349867 0.277607 -0.541608
C62   C     C_2   0.346852 0.149266 0.241693 0.446464
H38   H     H_    0.260612 0.188352 0.232676 0.020572
O36   O     O_2   0.383197 0.096771 0.202452 -0.528225
N14   N     N_3   0.536683 0.102909 0.304334 -0.106859
H39   H     H_    0.613566 0.106844 0.270855 0.152800
H40   H     H_    0.484001 0.043619 0.296658 0.219336
C63   C     C_2   0.324676 0.768675 0.235511 0.687452
H41   H     H_    0.374781 0.714133 0.243605 0.017109
O37   O     O_2   0.368412 0.800122 0.194006 -0.536266
C64   C     C_2   0.141233 0.342540 0.711443 0.584789
H42   H     H_    0.176634 0.384744 0.682618 0.072244
O38   O     O_2   0.179771 0.359526 0.762555 -0.509890
C65   C     C_2   0.075571 0.195650 0.781118 0.494190
H43   H     H_    0.098473 0.134368 0.786347 0.093564
O39   O     O_2   0.112792 0.250469 0.821447 -0.503621
C66   C     C_2   0.836465 0.239341 0.758726 0.693500
H44   H     H_    0.781022 0.207714 0.791196 0.006663
O40   O     O_2   0.784319 0.300317 0.747810 -0.566197
N15   N     N_3   0.932149 0.127443 0.695148 -0.226371
H45   H     H_    0.028653 0.100572 0.678120 0.209417
H46   H     H_    0.883612 0.087915 0.721894 0.096715
N16   N     N_3   0.683491 0.234861 0.635263 -0.190245
H47   H     H_    0.723375 0.289321 0.622683 0.081278
H48   H     H_    0.682658 0.189906 0.599089 0.048456
N17   N     N_3   0.583320 0.101414 0.679461 -0.172413
H49   H     H_    0.639421 0.129886 0.717524 0.109381
H50   H     H_    0.658468 0.086478 0.645704 0.129860
N18   N     N_3   0.386622 0.102788 0.611291 -0.189928
H51   H     H_    0.442446 0.114769 0.573908 0.089487
H52   H     H_    0.274107 0.115440 0.607298 0.200533
N19   N     N_3   0.032291 0.682357 0.282141 -0.158431
H53   H     H_    0.087825 0.649972 0.247451 0.107548
H54   H     H_    0.998357 0.640094 0.309068 0.166641
C67   C     C_2   0.357220 0.155252 0.713193 0.617130
H55   H     H_    0.334817 0.213399 0.738147 0.098033
O41   O     O_2   0.303347 0.092139 0.727956 -0.635946
C68   C     C_2   0.883524 0.301341 0.064396 0.621445
H56   H     H_    0.847107 0.320227 0.108631 0.046603
O42   O     O_2   0.865470 0.229221 0.043046 -0.575665
C69   C     C_2   0.783398 0.305067 0.947265 0.697302
H57   H     H_    0.798947 0.240361 0.938117 0.042040
O43   O     O_2   0.659887 0.328627 0.937363 -0.526024
C70   C     C_2   0.402278 0.677947 0.053901 0.739551
H58   H     H_    0.412027 0.735103 0.037002 -0.014448
O44   O     O_2   0.495443 0.666948 0.090274 -0.526188
C71   C     C_2   0.515398 0.542751 0.187058 0.695141
H59   H     H_    0.607534 0.590123 0.196998 0.074066
O45   O     O_2   0.514322 0.497530 0.140137 -0.574911
N20   N     N_3   0.136418 0.608903 0.760413 -0.191740
H60   H     H_    0.101625 0.638739 0.800526 0.137391
H61   H     H_    0.252721 0.601334 0.759183 0.244497
N21   N     N_3   0.985268 0.454249 0.242718 -0.133106
H62   H     H_    0.945900 0.484437 0.210252 0.125132
H63   H     H_    0.975183 0.391345 0.228291 0.186273
C72   C     C_2   0.424146 0.486592 0.381216 0.792587
H64   H     H_    0.383448 0.501787 0.424207 0.034430
O46   O     O_2   0.540612 0.451590 0.375545 -0.480740
C73   C     C_2   0.477820 0.113549 0.446375 0.612439
H65   H     H_    0.379941 0.148814 0.449488 0.055108
O47   O     O_2   0.469559 0.049011 0.412714 -0.572512
N22   N     N_3   0.710154 0.876852 0.557282 -0.206675
H66   H     H_    0.807608 0.850271 0.541592 0.177419
H67   H     H_    0.688140 0.863903 0.598930 0.158525
N23   N     N_3   0.967214 0.067501 0.541811 -0.182633
H68   H     H_    0.913764 0.035772 0.572296 0.125813
H69   H     H_    0.989809 0.025181 0.505185 0.144951
N24   N     N_3   0.373370 0.646676 0.455260 -0.162163
H70   H     H_    0.337825 0.635914 0.411726 0.058029
H71   H     H_    0.287209 0.626283 0.480943 0.192037
C74   C     C_2   0.838165 0.348686 0.533061 0.602522
H72   H     H_    0.763719 0.382450 0.561023 0.024100
O48   O     O_2   0.939888 0.385843 0.510955 -0.510681
C75   C     C_2   0.085938 0.834901 0.239305 0.663281
H73   H     H_    0.052920 0.896965 0.249223 -0.023092
O49   O     O_2   0.022740 0.788531 0.198476 -0.542236
N25   N     N_3   0.283700 0.878389 0.313848 -0.203979
H74   H     H_    0.331690 0.919234 0.288046 0.132048
H75   H     H_    0.203945 0.909883 0.339620 0.178255
N26   N     N_3   0.359485 0.713939 0.646442 -0.217331
H76   H     H_    0.364598 0.692977 0.686225 0.165253
H77   H     H_    0.383242 0.666688 0.613600 0.152616
C76   C     C_2   0.180836 0.738595 0.574347 0.440646
H78   H     H_    0.230957 0.791342 0.558241 -0.027988
O50   O     O_2   0.096045 0.688377 0.543499 -0.470561

loop_
_geom_bond_atom_site_label_1
_geom_bond_atom_site_label_2
_geom_bond_distance
_ccdc_geom_bond_type
C11   O22   1.433401 S    
C37   C41   1.434809 A    
C67   H55   1.079261 S    
P7    C50   1.877932 S    
C28   C68   1.490361 S    
C1    C58   1.518301 S    
O14   P8    1.768131 S    
N26   H77   1.039904 S    
C65   H43   1.082492 S    
C56   O30   1.221246 D    
C44   C45   1.423112 A    
C5    N7    1.476441 S    
C14   C66   1.505056 S    
N6    H16   1.046557 S    
C35   C36   1.563171 S    
C6    N8    1.429602 S    
C1    N13   1.466359 S    
N17   H49   1.035945 S    
N18   H51   1.042768 S    
C52   C53   1.414795 A    
C31   O28   1.213932 D    
C8    H4    1.106733 S    
N21   H62   1.045087 S    
Ba1   O13   2.829546 S    
C16   N17   1.466660 S    
C43   C48   1.402965 A    
N9    H23   1.041492 S    
C9    H5    1.099833 S    
C63   O37   1.222644 D    
C10   N5    1.463855 S    
N13   H35   1.045990 S    
P3    C48   1.858463 S    
O17   Ba2   2.839198 S    
P2    O10   1.767759 S    
N5    H14   1.034279 S    
C39   C40   1.433028 A    
P4    O12   1.617461 D    
C34   C35   1.358418 D    
P3    O9    1.547939 D    
C73   O47   1.219676 D    
O3    P6    1.771553 S    
N7    H17   1.041491 S    
C47   C48   1.404885 A    
O7    Ba1   2.815095 S    
P3    O8    1.781382 S    
C23   H9    1.085071 S    
O12   Ba2   2.789765 S    
P8    C33   1.935050 S    
O16   P7    1.794150 S    
C16   N18   1.471837 S    
P1    O1    1.617178 D    
C28   C29   1.425273 A    
O6    C10   1.427515 S    
C19   N1    1.393690 Am   
C55   H19   1.084572 S    
N6    H15   1.043149 S    
C33   C42   1.513766 S    
C23   C24   1.402323 A    
Ba2   O20   2.822877 S    
C21   C27   1.434780 A    
C63   H41   1.084620 S    
C18   C22   1.402435 A    
C66   O40   1.210956 D    
C1    H1    1.088443 S    
C68   O42   1.220656 D    
O1    Ba1   2.789189 S    
C7    N10   1.466534 S    
C13   C14   1.606865 S    
N26   H76   1.043154 S    
C51   C54   1.424238 A    
C25   C26   1.413382 A    
N20   H60   1.044595 S    
C3    N25   1.470673 S    
N22   H67   1.043082 S    
C61   O35   1.222204 D    
C46   C47   1.407945 A    
C4    O15   1.411620 S    
N20   H61   1.044901 S    
C21   C22   1.405692 A    
C60   H36   1.086311 S    
Ba1   Ba2   4.850789 S    
C70   H58   1.085551 S    
C62   O36   1.221514 D    
C25   C31   1.421785 A    
C64   O38   1.216055 D    
C65   O39   1.220949 D    
C64   H42   1.078816 S    
C24   C25   1.426680 A    
C12   N14   1.467493 S    
C37   C71   1.484912 S    
P2    O7    1.604949 D    
N23   H69   1.045640 S    
N23   H68   1.045465 S    
N12   H33   1.036824 S    
C75   H73   1.086212 S    
C17   C72   1.477118 S    
N12   H32   1.043047 S    
C15   O24   1.427367 S    
N2    C31   1.387951 Am   
P8    O23   1.546302 D    
C50   C52   1.416997 A    
C76   O50   1.212826 D    
O14   Ba2   2.866304 S    
N8    H21   1.023356 S    
C71   H59   1.082909 S    
P4    O15   1.790851 S    
N1    C36   1.519756 S    
P1    O5    1.788148 S    
C11   C60   1.468356 S    
N16   H47   1.034406 S    
O16   Ba2   3.076293 S    
P5    O18   1.545652 D    
C12   C62   1.523830 S    
C7    H3    1.111773 S    
N24   H70   1.040908 S    
N15   H46   1.047515 S    
C29   C30   1.439217 A    
N17   H50   1.044490 S    
C40   N21   1.431818 S    
C40   C41   1.444500 A    
C69   H57   1.084601 S    
O10   C8    1.401729 S    
N7    H18   1.044990 S    
N22   H66   1.041211 S    
C12   H6    1.108646 S    
P6    C38   1.887919 S    
P2    Ba1   3.475191 S    
C9    N11   1.460675 S    
C15   N16   1.444816 S    
C62   H38   1.081671 S    
C18   C19   1.416676 A    
P1    O2    1.543706 S    
N14   H40   1.044807 S    
P5    O19   1.777781 S    
C30   N2    1.389868 Am   
N10   H25   1.046326 S    
C72   H64   1.064067 S    
C13   C64   1.505769 S    
C5    C55   1.519383 S    
O3    Ba1   2.867028 S    
P3    O11   1.761160 S    
C32   C36   1.376655 D    
P7    O21   1.588566 D    
N2    C41   1.487856 S    
C6    C7    1.581375 S    
C4    N26   1.443086 S    
C49   C73   1.491113 S    
C45   C46   1.411843 A    
C49   C51   1.430739 A    
C2    H2    1.104428 S    
C61   H37   1.082327 S    
P4    Ba2   3.457600 S    
P4    C34   1.899065 S    
C13   H7    1.101499 S    
C3    C63   1.513457 S    
C52   C74   1.466921 S    
C17   C38   1.404071 A    
C51   N4    1.439430 S    
C3    C75   1.520063 S    
C14   N15   1.471643 S    
N8    H20   1.035092 S    
C46   N3    1.429426 S    
C71   O45   1.221039 D    
C69   O43   1.221146 D    
C72   O46   1.220361 D    
O2    Ba2   2.830234 S    
C68   H56   1.085517 S    
C43   C44   1.399571 A    
C74   O48   1.215190 D    
C57   H27   1.080748 S    
C59   O33   1.221850 D    
C37   C38   1.416826 A    
P1    C39   1.915339 S    
C9    C59   1.505231 S    
C53   C54   1.416141 A    
N10   H24   1.044636 S    
O13   Ba2   3.086886 S    
C24   C70   1.483807 S    
C66   H44   1.087437 S    
C42   H11   1.075671 S    
C35   N20   1.436072 S    
C15   C16   1.603035 S    
P8    O24   1.793129 S    
Ba2   O21   2.815224 S    
O4    P6    1.542161 D    
C76   H78   1.075295 S    
O6    P6    1.772461 S    
C67   O41   1.220698 D    
P5    O17   1.760194 S    
P2    O20   1.550323 S    
C32   C33   1.521128 S    
C11   C12   1.560126 S    
C1    C10   1.556581 S    
C27   C28   1.430490 A    
N25   H75   1.046516 S    
C14   C65   1.525252 S    
C27   C69   1.483605 S    
C26   C29   1.412477 A    
N16   H48   1.031302 S    
N11   H29   1.042172 S    
N24   H71   1.040953 S    
C6    N9    1.462339 S    
P7    O22   1.811014 S    
Ba1   O16   2.823546 S    
C8    C9    1.571775 S    
C47   H12   1.082978 S    
C32   H10   1.082268 S    
C5    N6    1.471611 S    
C56   H26   1.081265 S    
C11   C61   1.524460 S    
N19   H53   1.044385 S    
C75   O49   1.222315 D    
N15   H45   1.045512 S    
N5    H13   1.040840 S    
N14   H39   1.044228 S    
P4    O13   1.543738 S    
N11   H30   1.037636 S    
C8    C57   1.497288 S    
C43   N24   1.420763 S    
O11   C2    1.416017 S    
P2    C44   1.858005 S    
C2    N19   1.462904 S    
C4    C76   1.486773 S    
O5    C6    1.408397 S    
C73   H65   1.080145 S    
C20   O26   1.212042 D    
N25   H74   1.045992 S    
C2    C3    1.578011 S    
N18   H52   1.038743 S    
O8    Ba1   2.838553 S    
C22   C26   1.430232 A    
N13   H34   1.043601 S    
C60   O34   1.201297 D    
C34   C42   1.325253 D    
C19   O25   1.212958 D    
C55   O29   1.221940 D    
N19   H54   1.044578 S    
P5    C53   1.882697 S    
N1    C20   1.407131 Am   
C54   N23   1.432959 S    
C7    C56   1.512874 S    
C30   O27   1.219623 D    
P1    Ba1   3.457023 S    
O19   C13   1.418308 S    
C16   C67   1.489555 S    
C4    C5    1.582833 S    
C18   C23   1.404259 A    
N21   H63   1.043698 S    
C74   H72   1.058117 S    
C58   O32   1.219282 D    
N3    N4    1.253706 D    
C70   O44   1.220742 D    
C57   O31   1.219711 D    
C59   H31   1.078460 S    
C58   H28   1.085172 S    
O2    Ba1   3.085964 S    
C49   C50   1.420947 A    
C10   N12   1.447161 S    
C17   C39   1.418519 A    
Ba1   O20   3.077204 S    
C45   N22   1.433312 S    
C20   C21   1.445553 A    
N9    H22   1.037956 S    
C15   H8    1.113790 S    
