data_mof_unit_56744.cif
_audit_creation_date              2012-12-10T16:50:10-0500
_audit_creation_method            fapswitch 2.2
_symmetry_space_group_name_H-M    P1
_symmetry_Int_Tables_number       1
_space_group_crystal_system       triclinic
_cell_length_a                    23.487352
_cell_length_b                    8.701573
_cell_length_c                    7.488993
_cell_angle_alpha                 102.868939
_cell_angle_beta                  95.449511
_cell_angle_gamma                 93.471185
_cell_volume                      1480.11554509

loop_
_atom_site_label
_atom_site_type_symbol
_atom_type_description
_atom_site_fract_x
_atom_site_fract_y
_atom_site_fract_z
_atom_type_partial_charge
C1    C     C_R   0.497397 0.200215 0.454311 0.837640
C2    C     C_R   0.502498 0.799741 0.545672 0.851008
C3    C     C_R   0.252848 0.682630 0.593409 0.401008
C4    C     C_R   0.758414 0.445257 0.340119 0.405919
C5    C     C_R   0.311377 0.660167 0.600704 0.317785
C6    C     C_R   0.698019 0.435087 0.338850 0.242354
C7    C     C_R   0.329762 0.517989 0.503006 -0.344622
C8    C     C_R   0.672947 0.504960 0.500091 -0.307256
C9    C     C_R   0.289415 0.405243 0.386076 0.289303
C10   C     C_R   0.709576 0.577447 0.663092 0.286006
C11   C     C_R   0.230659 0.425857 0.387546 0.364314
C12   C     C_R   0.769046 0.571227 0.667395 0.309652
C13   C     C_R   0.211800 0.550777 0.520291 -0.070592
C14   C     C_R   0.793453 0.509215 0.505591 0.089968
C15   C     C_2   0.488135 0.033790 0.434077 0.144848
C16   C     C_2   0.511529 0.966135 0.566005 0.139386
C17   C     C_R   0.391293 0.500777 0.500505 0.926102
C18   C     C_R   0.609392 0.501471 0.499761 0.905259
C19   C     C_R   0.886318 0.656838 0.548674 0.730030
C20   C     C_R   0.122408 0.397100 0.545068 0.717876
C21   C     C_R   0.880741 0.375070 0.478818 0.692950
C22   C     C_R   0.127566 0.668878 0.666035 0.645111
C23   C     C_R   0.940702 0.376819 0.477401 -0.179021
C24   C     C_R   0.067453 0.671294 0.642382 -0.092159
C25   C     C_R   0.973897 0.523614 0.540807 -0.101861
C26   C     C_R   0.034283 0.527348 0.563956 -0.123126
C27   C     C_R   0.946640 0.665946 0.585317 -0.122296
C28   C     C_R   0.061834 0.385713 0.520370 -0.175421
C29   C     C_R   0.968461 0.236312 0.422296 0.404854
C30   C     C_R   0.040627 0.812864 0.695592 0.421165
C31   C     C_R   0.028399 0.240306 0.447172 0.391091
C32   C     C_R   0.980090 0.810266 0.668465 0.330935
Cu1   Cu    Cu3+1 0.506340 0.517380 0.684380 1.227616
Cu2   Cu    Cu3+1 0.493660 0.482620 0.315620 1.223435
N1    N     N_R   0.854936 0.513582 0.508775 -0.433457
N2    N     N_R   0.153065 0.541503 0.573642 -0.447476
N3    N     N_2   0.484110 0.456420 0.038520 0.120727
N4    N     N_2   0.515890 0.543580 0.961480 0.130807
O1    O     O_R   0.504120 0.286130 0.619770 -0.554440
O2    O     O_R   0.495880 0.713870 0.380230 -0.564820
O3    O     O_R   0.493410 0.256770 0.308360 -0.516480
O4    O     O_R   0.506590 0.743230 0.691640 -0.514668
O5    O     O_R   0.423230 0.514630 0.655730 -0.547533
O6    O     O_R   0.576770 0.485370 0.344270 -0.531619
O7    O     O_R   0.412530 0.485280 0.344320 -0.539076
O8    O     O_R   0.587470 0.514720 0.655680 -0.527586
O9    O     O_2   0.858665 0.788629 0.552250 -0.375603
O10   O     O_2   0.150577 0.267359 0.549751 -0.388809
O11   O     O_2   0.848391 0.237161 0.456242 -0.412752
O12   O     O_2   0.158663 0.783553 0.794857 -0.354730
O13   O     O_3   0.938443 0.093866 0.335855 -0.582183
H1    H     H_    0.909270 0.115141 0.241706 0.388765
O14   O     O_3   0.074890 0.951863 0.770501 -0.579544
H2    H     H_    0.053354 0.044761 0.763590 0.379514
Cl1   Cl    Cl    0.059133 0.061179 0.361529 -0.407496
Cl2   Cl    Cl    0.947372 0.984426 0.763523 -0.444059
O15   O     O_3   0.238730 0.836917 0.623471 -0.541612
H3    H     H_    0.204749 0.840085 0.535219 0.368366
O16   O     O_3   0.785177 0.391235 0.184046 -0.623870
H4    H     H_    0.757621 0.379344 0.072633 0.398532
Cl3   Cl    Cl    0.361289 0.821402 0.711689 -0.379440
Cl4   Cl    Cl    0.655340 0.322358 0.139226 -0.414201
Cl5   Cl    Cl    0.311951 0.236215 0.239546 -0.324194
Cl6   Cl    Cl    0.683388 0.685698 0.863434 -0.353977
Cl7   Cl    Cl    0.182442 0.311605 0.202337 -0.371503
Cl8   Cl    Cl    0.813697 0.640137 0.878140 -0.415650
Cl9   Cl    Cl    0.437278 0.934670 0.246357 -0.395024
Cl10  Cl    Cl    0.562234 0.065132 0.754004 -0.408361
Cl11  Cl    Cl    0.433133 0.315219 0.906098 -0.305486
Cl12  Cl    Cl    0.565565 0.687508 0.095252 -0.310322

loop_
_geom_bond_atom_site_label_1
_geom_bond_atom_site_label_2
_ccdc_geom_bond_type
C11   Cl7   S    
C7    C17   S    
C23   C29   A    
C17   O5    A    
N3    N4    D    
C21   N1    A    
C18   O6    A    
C25   C27   A    
Cu2   N3    S    
C2    C16   S    
C26   C28   A    
Cu1   N4    S    
C3    C13   A    
C22   O12   S    
C15   Cl9   S    
C6    Cl4   S    
C21   O11   S    
Cu1   Cu2   S    
C27   C32   A    
C3    C5    A    
C5    Cl3   S    
O16   H4    S    
C29   C31   A    
Cu2   O7    S    
C19   N1    A    
O14   H2    S    
C30   C32   A    
Cu1   O8    S    
C9    C11   A    
C24   C26   A    
C20   O10   S    
O15   H3    S    
Cu1   O1    S    
Cu2   O3    S    
C10   C12   A    
C2    O4    A    
C1    C15   S    
Cu1   O4    S    
C18   O8    A    
C4    O16   S    
C1    O3    A    
N4    Cl12  S    
C12   C14   A    
C8    C18   S    
N3    Cl11  S    
C21   C23   A    
C4    C14   A    
C16   Cl10  S    
C30   O14   S    
C22   C24   A    
C24   C30   A    
C28   C31   A    
C1    O1    A    
C15   C16   D    
C20   N2    A    
C2    O2    A    
C11   C13   A    
C23   C25   A    
C22   N2    A    
C13   N2    S    
C4    C6    A    
C29   O13   S    
C19   O9    S    
C14   N1    S    
C7    C9    A    
Cu2   O6    S    
C5    C7    A    
Cu2   O2    S    
C6    C8    A    
C20   C28   A    
C31   Cl1   S    
C25   C26   A    
C9    Cl5   S    
C12   Cl8   S    
C32   Cl2   S    
C8    C10   A    
C10   Cl6   S    
O13   H1    S    
C17   O7    A    
C19   C27   A    
C3    O15   S    
Cu1   O5    S    
