data_mof_unit_14941.cif
_audit_creation_date              2012-12-10T20:27:10-0500
_audit_creation_method            fapswitch 2.2
_symmetry_space_group_name_H-M    P1
_symmetry_Int_Tables_number       1
_space_group_crystal_system       triclinic
_cell_length_a                    10.637612
_cell_length_b                    10.687664
_cell_length_c                    9.862817
_cell_angle_alpha                 90.219222
_cell_angle_beta                  103.041163
_cell_angle_gamma                 89.661591
_cell_volume                      1092.37234431

loop_
_atom_site_label
_atom_site_type_symbol
_atom_type_description
_atom_site_fract_x
_atom_site_fract_y
_atom_site_fract_z
_atom_type_partial_charge
C1    C     C_R   0.505876 0.259956 0.501140 0.895801
C2    C     C_R   0.530352 0.128794 0.507001 -0.083660
C3    C     C_R   0.551329 0.064032 0.390155 -0.211839
C4    C     C_R   0.550331 0.934509 0.390433 -0.193292
C5    C     C_R   0.528149 0.871484 0.507475 -0.102620
C6    C     C_R   0.533408 0.936806 0.631274 0.013956
C7    C     C_3   0.442823 0.934098 0.727607 -0.168028
C8    C     C_3   0.445520 0.075731 0.727313 -0.556175
C9    C     C_R   0.419784 0.422282 0.051837 0.183252
C10   C     C_R   0.588272 0.566899 0.093705 -0.061741
C11   C     C_R   0.588533 0.566582 0.949771 -0.041793
C12   C     C_R   0.258103 0.505787 0.442825 0.907197
C13   C     C_R   0.419855 0.421664 0.909128 0.110817
C14   C     C_3   0.275440 0.421540 0.870814 -0.216867
C15   C     C_3   0.276412 0.421765 0.025190 -0.552104
C16   C     C_R   0.504742 0.740225 0.501337 0.859317
C17   C     C_R   0.741720 0.505622 0.556942 0.920865
C18   C     C_2   0.119053 0.522644 0.411434 -0.183829
C19   C     C_2   0.062835 0.591193 0.497312 -0.007225
C20   C     C_2   0.878354 0.531710 0.585459 -0.304252
C21   C     C_2   0.925320 0.583724 0.484128 -0.190879
C22   C     C_R   0.534448 0.064944 0.630530 0.118863
H1    H     H_    0.863780 0.606887 0.383412 0.168573
H2    H     H_    0.493173 0.119732 0.828127 0.193193
H3    H     H_    0.657270 0.623636 0.165001 0.124835
H4    H     H_    0.657739 0.623027 0.912503 0.127216
H5    H     H_    0.234109 0.508247 0.817401 0.211217
H6    H     H_    0.236805 0.509729 0.059902 0.232758
H7    H     H_    0.239875 0.334762 0.064137 0.198646
H8    H     H_    0.940055 0.508527 0.686021 0.176701
H9    H     H_    0.558218 0.112317 0.295742 0.171740
H10   H     H_    0.556973 0.885046 0.296187 0.182612
H11   H     H_    0.346766 0.896154 0.677545 0.195830
H12   H     H_    0.351116 0.117647 0.675699 0.218720
N1    N     N_R   0.499160 0.499140 0.142600 -0.097078
N2    N     N_R   0.499160 0.499180 0.856960 -0.102478
O1    O     O_R   0.500020 0.316790 0.614700 -0.609748
O2    O     O_R   0.500000 0.316760 0.385350 -0.620399
O3    O     O_R   0.317820 0.500020 0.571850 -0.585595
O4    O     O_R   0.317800 0.499980 0.342510 -0.614244
O5    O     O_R   0.500000 0.683240 0.614650 -0.615201
O6    O     O_R   0.499980 0.683210 0.385300 -0.616975
O7    O     O_R   0.682200 0.500020 0.657490 -0.621389
O8    O     O_R   0.682180 0.499980 0.428150 -0.615456
Zn1   Zn    Zn3+2 0.500010 0.500020 0.653140 0.975302
Zn2   Zn    Zn3+2 0.499990 0.499980 0.346860 0.959287
C23   C     C_2   0.221513 0.303475 0.798129 0.441397
H13   H     H_    0.249408 0.213156 0.845826 0.063369
O9    O     O_2   0.144889 0.308324 0.685693 -0.576799
C24   C     C_1   0.133340 0.668392 0.609750 0.183154
N3    N     N_1   0.187772 0.729994 0.700533 -0.186768
C25   C     C_1   0.043750 0.457198 0.291310 0.178488
N4    N     N_1   0.983724 0.405067 0.195470 -0.207633
C26   C     C_2   0.502472 0.878972 0.867257 0.463137
H14   H     H_    0.603371 0.895259 0.915410 0.041910
O10   O     O_2   0.436953 0.816999 0.928535 -0.574084

loop_
_geom_bond_atom_site_label_1
_geom_bond_atom_site_label_2
_ccdc_geom_bond_type
C2    C22   A    
C8    C22   S    
C17   O7    A    
C12   O4    A    
C14   C23   S    
C14   H5    S    
C7    H11   S    
C26   H14   S    
C23   H13   S    
C11   H4    S    
C1    O1    A    
O3    Zn1   S    
C12   O3    A    
C2    C3    A    
C9    C15   S    
C17   O8    A    
C18   C25   S    
N2    Zn1   S    
C23   O9    D    
C20   H8    S    
C13   C14   S    
C25   N4    T    
C3    H9    S    
O7    Zn1   S    
C19   C24   S    
C15   H6    S    
C4    H10   S    
C1    O2    A    
C10   H3    S    
C11   N2    A    
C8    H2    S    
O8    Zn2   S    
C15   H7    S    
C6    C7    S    
C21   H1    S    
C5    C6    A    
C10   N1    A    
C26   O10   D    
O2    Zn2   S    
C10   C11   A    
O4    Zn2   S    
O1    Zn1   S    
C3    C4    A    
C6    C22   A    
C16   O6    A    
C7    C8    S    
C17   C20   S    
C20   C21   D    
C13   N2    A    
C1    C2    S    
O6    Zn2   S    
C12   C18   S    
C9    N1    A    
O5    Zn1   S    
C14   C15   S    
C18   C19   D    
C5    C16   S    
C9    C13   A    
C7    C26   S    
C24   N3    T    
C8    H12   S    
N1    Zn2   S    
C16   O5    A    
C4    C5    A    
C19   C21   S    
