data_mof_unit_23959.cif
_audit_creation_date              2012-12-11T16:26:26-0500
_audit_creation_method            fapswitch 2.2
_symmetry_space_group_name_H-M    P1
_symmetry_Int_Tables_number       1
_space_group_crystal_system       triclinic
_cell_length_a                    6.937524
_cell_length_b                    17.526942
_cell_length_c                    19.456825
_cell_angle_alpha                 108.611397
_cell_angle_beta                  89.591838
_cell_angle_gamma                 90.588356
_cell_volume                      2241.96739389

loop_
_atom_site_label
_atom_site_type_symbol
_atom_type_description
_atom_site_fract_x
_atom_site_fract_y
_atom_site_fract_z
_atom_type_partial_charge
O1    O     O_R   0.494330 0.415720 0.413720 -0.535723
O2    O     O_R   0.819330 0.430070 0.560210 -0.543021
O3    O     O_R   0.994320 0.584280 0.586280 -0.537112
C1    C     C_R   0.650260 0.415622 0.582358 0.701378
O4    O     O_R   0.823730 0.406300 0.412670 -0.537464
O5    O     O_R   0.998760 0.560340 0.437690 -0.542463
C2    C     C_R   0.654908 0.383408 0.385095 0.694373
O6    O     O_R   0.489890 0.439660 0.562310 -0.543768
O7    O     O_3   0.662340 0.550560 0.508380 -0.369231
V1    V     V_3+5 0.935370 0.490620 0.498450 1.417514
O8    O     O_R   0.328750 0.569930 0.439790 -0.543731
C3    C     C_R   0.160743 0.584989 0.418112 0.706563
O9    O     O_R   0.324340 0.593700 0.587330 -0.537829
C4    C     C_R   0.155485 0.616525 0.614956 0.694416
V2    V     V_3+5 0.435940 0.509380 0.501550 1.415547
O10   O     O_3   0.159100 0.449440 0.491620 -0.368496
H1    H     H_    0.880819 0.853096 0.570029 0.112229
C5    C     C_R   0.286231 0.600890 0.750738 -0.154740
C6    C     C_R   0.348742 0.591167 0.815298 -0.119628
C7    C     C_R   0.336419 0.654604 0.879879 -0.117215
C8    C     C_R   0.261495 0.728251 0.880401 -0.132853
C9    C     C_R   0.198357 0.740240 0.815591 0.070872
C10   C     C_R   0.211092 0.675228 0.749370 0.068485
C11   C     C_R   0.119925 0.814915 0.816233 -0.185236
C12   C     C_R   0.054194 0.824550 0.750630 0.068197
C13   C     C_R   0.067031 0.759557 0.684407 0.070758
C14   C     C_R   0.145554 0.684905 0.683759 -0.184436
C15   C     C_R   0.978696 0.898830 0.749275 -0.145770
C16   C     C_R   0.916047 0.908525 0.684722 -0.123842
C17   C     C_R   0.928542 0.845112 0.620133 -0.121131
C18   C     C_R   0.003786 0.771521 0.619598 -0.132206
H2    H     H_    0.296420 0.549263 0.702220 0.113435
H3    H     H_    0.405956 0.533894 0.815234 0.141526
H4    H     H_    0.384031 0.646595 0.929987 0.118662
H5    H     H_    0.252296 0.775232 0.932267 0.101158
H6    H     H_    0.968298 0.950434 0.797799 0.108471
H7    H     H_    0.858581 0.965758 0.684797 0.116672
H8    H     H_    0.013110 0.724565 0.567723 0.099006
C19   C     C_R   0.307377 0.633425 0.321008 -0.187586
C20   C     C_R   0.153128 0.634211 0.368667 -0.069876
C21   C     C_R   0.990303 0.681326 0.368119 -0.207550
C22   C     C_R   0.981867 0.727986 0.321400 0.101187
C23   C     C_R   0.136242 0.726189 0.273265 0.058866
C24   C     C_R   0.298972 0.678305 0.272766 0.092305
C25   C     C_R   0.821918 0.776625 0.322050 -0.196010
C26   C     C_R   0.813812 0.822455 0.274934 -0.184778
C27   C     C_R   0.965242 0.820334 0.226135 0.089934
C28   C     C_R   0.127899 0.772391 0.225574 0.052067
C29   C     C_R   0.282372 0.770689 0.177501 0.089877
C30   C     C_R   0.442147 0.721913 0.176752 -0.190983
C31   C     C_R   0.450232 0.676059 0.223862 -0.175721
C32   C     C_R   0.957200 0.865530 0.178161 -0.217738
C33   C     C_R   0.111765 0.865059 0.130725 -0.084073
C34   C     C_R   0.274315 0.817694 0.131045 -0.229030
H9    H     H_    0.432611 0.596750 0.320582 0.124714
H10   H     H_    0.871176 0.682571 0.404837 0.119207
H11   H     H_    0.702348 0.778920 0.358781 0.129745
H12   H     H_    0.688273 0.859235 0.276375 0.133344
H13   H     H_    0.832052 0.902285 0.178685 0.123554
H14   H     H_    0.393558 0.816594 0.094413 0.125788
H15   H     H_    0.561726 0.719624 0.140026 0.136340
H16   H     H_    0.575759 0.639266 0.222415 0.153705
C35   C     C_R   0.784359 0.182537 0.867238 -0.209578
C36   C     C_R   0.623022 0.133791 0.868459 -0.080050
C37   C     C_R   0.466320 0.132629 0.822563 -0.213724
C38   C     C_R   0.469991 0.179225 0.775820 0.109394
C39   C     C_R   0.630656 0.229360 0.775925 0.052117
C40   C     C_R   0.787819 0.231102 0.821984 0.014322
C41   C     C_R   0.315489 0.176515 0.728990 -0.194035
C42   C     C_R   0.319075 0.223428 0.682856 -0.140006
C43   C     C_R   0.476993 0.274078 0.682816 0.147236
C44   C     C_R   0.634215 0.277377 0.729684 0.012884
C45   C     C_R   0.794818 0.328083 0.730008 -0.013953
C46   C     C_R   0.948192 0.332301 0.779390 0.342766
C47   C     C_R   0.944623 0.282370 0.823067 -0.191388
C48   C     C_R   0.480496 0.320851 0.636212 -0.210005
C49   C     C_R   0.642284 0.368481 0.633506 -0.085719
C50   C     C_R   0.798974 0.371133 0.679838 -0.213778
H17   H     H_    0.905081 0.184164 0.902793 0.124512
H18   H     H_    0.341956 0.094641 0.822628 0.121710
H19   H     H_    0.191294 0.138217 0.728181 0.124767
H20   H     H_    0.197615 0.220303 0.647307 0.118872
H21   H     H_    0.359644 0.318371 0.600493 0.119403
H22   H     H_    0.923795 0.406902 0.675772 0.128884
H23   H     H_    0.064451 0.285027 0.859262 0.152179
H24   H     H_    0.358234 0.147625 0.428877 0.111691
C51   C     C_R   0.796961 0.398843 0.249929 -0.148260
C52   C     C_R   0.866168 0.409111 0.185921 0.398975
C53   C     C_R   0.853892 0.344870 0.120990 -0.212507
C54   C     C_R   0.773336 0.271470 0.120276 -0.177098
C55   C     C_R   0.704091 0.259651 0.184727 0.070809
C56   C     C_R   0.716248 0.324632 0.250907 -0.005365
C57   C     C_R   0.620097 0.185129 0.183753 -0.167901
C58   C     C_R   0.548286 0.175668 0.249050 0.067012
C59   C     C_R   0.560528 0.240677 0.315282 0.074804
C60   C     C_R   0.644562 0.315137 0.316225 -0.164225
C61   C     C_R   0.467315 0.101528 0.250122 -0.148459
C62   C     C_R   0.398653 0.092027 0.314383 -0.122582
C63   C     C_R   0.410573 0.155468 0.378985 -0.120230
C64   C     C_R   0.491241 0.228887 0.379819 -0.136175
H25   H     H_    0.806295 0.450248 0.298703 0.128053
H26   H     H_    0.905587 0.351672 0.070594 0.115184
H27   H     H_    0.764707 0.224465 0.068401 0.121053
H28   H     H_    0.457274 0.049853 0.201622 0.110201
H29   H     H_    0.337020 0.034909 0.314081 0.117661
H30   H     H_    0.499939 0.275831 0.431725 0.100964
O11   O     O_R   0.775200 0.060470 0.937800 -0.545022
O12   O     O_R   0.441110 0.093720 0.087350 -0.536915
O13   O     O_R   0.266330 0.939630 0.062280 -0.544923
C65   C     C_R   0.609893 0.116751 0.114925 0.694866
O14   O     O_R   0.445750 0.069950 0.939820 -0.541493
O15   O     O_R   0.271000 0.915700 0.913700 -0.536644
C66   C     C_R   0.614890 0.084830 0.918035 0.701677
O16   O     O_R   0.770530 0.084400 0.086380 -0.536629
O17   O     O_3   0.602830 0.949510 0.991680 -0.368794
V3    V     V_3+5 0.329710 0.009370 0.001550 1.413903
O18   O     O_R   0.940990 0.906170 0.912570 -0.537692
C67   C     C_R   0.109916 0.883323 0.885031 0.696067
O19   O     O_R   0.936350 0.929940 0.060100 -0.541456
C68   C     C_R   0.104358 0.914722 0.081644 0.704066
V4    V     V_3+5 0.829160 0.990450 0.998310 1.412886
O20   O     O_3   0.105910 0.050480 0.008320 -0.367965
O21   O     O_3   0.104387 0.383663 0.786929 -0.645508
H31   H     H_    0.061792 0.433468 0.778279 0.281131
O22   O     O_3   0.943693 0.482838 0.188670 -0.648809
H32   H     H_    0.985702 0.480486 0.139210 0.286178

loop_
_geom_bond_atom_site_label_1
_geom_bond_atom_site_label_2
_ccdc_geom_bond_type
C51   C52   A    
C57   C58   A    
O17   V4    S    
C53   H26   S    
C21   C22   A    
C59   C60   A    
C1    O6    A    
C61   C62   A    
C33   C68   S    
O21   H31   S    
C35   H17   S    
C33   C34   A    
C40   C47   A    
C2    C60   S    
C25   H11   S    
C13   C14   A    
C52   O22   S    
C62   H29   S    
V3    O20   S    
C8    C9    A    
C15   C16   A    
C39   C44   A    
O5    C3    A    
C17   C18   A    
C38   C41   A    
C29   C34   A    
C62   C63   A    
C56   C60   A    
C5    C6    A    
C45   C46   A    
O18   V4    S    
O11   C66   A    
O13   V3    S    
C51   H25   S    
O16   V4    S    
O8    V2    S    
C47   H23   S    
C19   H9    S    
C63   C64   A    
C45   C50   A    
C42   C43   A    
O1    V2    S    
C10   C14   A    
C4    C14   S    
C23   C28   A    
C65   O16   A    
C55   C56   A    
C57   C65   S    
C7    H4    S    
C52   C53   A    
C46   O21   S    
C13   C18   A    
C37   H18   S    
O9    C4    A    
C26   H12   S    
H1    C17   S    
C41   C42   A    
C31   H16   S    
C48   H21   S    
O19   V4    S    
C46   C47   A    
C5    C10   A    
C11   C12   A    
C6    H3    S    
C19   C20   A    
O4    C2    A    
C59   C64   A    
C34   H14   S    
C58   C61   A    
C12   C13   A    
C49   C50   A    
C39   C40   A    
C12   C15   A    
C22   C25   A    
C3    C20   S    
O2    C1    A    
C23   C24   A    
C21   H10   S    
C16   C17   A    
C32   H13   S    
C50   H22   S    
C55   C57   A    
C27   C28   A    
O19   C68   A    
C30   C31   A    
O14   C66   A    
C26   C27   A    
C48   C49   A    
H24   C63   S    
V4    O20   S    
C27   C32   A    
O3    C4    A    
C24   C31   A    
C28   C29   A    
C37   C38   A    
O6    V2    S    
O9    V2    S    
O22   H32   S    
C9    C11   A    
C5    H2    S    
C22   C23   A    
O11   V4    S    
O2    V1    S    
O15   V3    S    
C32   C33   A    
O7    V1    S    
C35   C40   A    
C20   C21   A    
C36   C66   S    
O1    C2    A    
C11   C67   S    
C44   C45   A    
O5    V1    S    
O8    C3    A    
C19   C24   A    
C8    H5    S    
C64   H30   S    
C18   H8    S    
O14   V3    S    
C36   C37   A    
O12   V3    S    
C6    C7    A    
O7    V2    S    
C1    C49   S    
O3    V1    S    
V1    O10   S    
O18   C67   A    
O15   C67   A    
C54   C55   A    
C43   C48   A    
O12   C65   A    
C38   C39   A    
C58   C59   A    
C42   H20   S    
C54   H27   S    
C61   H28   S    
C41   H19   S    
C35   C36   A    
C25   C26   A    
O4    V1    S    
C43   C44   A    
C7    C8    A    
C15   H6    S    
C29   C30   A    
C16   H7    S    
C30   H15   S    
C9    C10   A    
O17   V3    S    
C53   C54   A    
C51   C56   A    
V2    O10   S    
O13   C68   A    
