data_mof_unit_46420.cif
_audit_creation_date              2012-12-10T21:30:27-0500
_audit_creation_method            fapswitch 2.2
_symmetry_space_group_name_H-M    P1
_symmetry_Int_Tables_number       1
_space_group_crystal_system       triclinic
_cell_length_a                    13.090418
_cell_length_b                    16.065224
_cell_length_c                    16.742475
_cell_angle_alpha                 92.301226
_cell_angle_beta                  88.998726
_cell_angle_gamma                 108.363933
_cell_volume                      3338.90659048

loop_
_atom_site_label
_atom_site_type_symbol
_atom_type_description
_atom_site_fract_x
_atom_site_fract_y
_atom_site_fract_z
_atom_type_partial_charge
C1    C     C_R   0.501605 0.489090 0.347129 0.966376
C2    C     C_R   0.018486 0.460339 0.507147 0.157102
C3    C     C_R   0.122749 0.473383 0.535024 -0.020512
C4    C     C_R   0.971996 0.528621 0.520831 0.022822
C5    C     C_R   0.025583 0.605762 0.568516 -0.074739
C6    C     C_R   0.129986 0.615360 0.598105 0.104827
C7    C     C_R   0.171586 0.545896 0.586397 -0.233422
C8    C     C_R   0.872820 0.521523 0.487334 -0.315486
C9    C     C_R   0.872021 0.659373 0.548902 0.368391
C10   C     C_R   0.180326 0.417308 0.505917 -0.245854
C11   C     C_R   0.493339 0.477744 0.261431 -0.185449
C12   C     C_R   0.297894 0.451063 0.503860 0.897557
C13   C     C_R   0.415677 0.504739 0.223690 -0.300483
C14   C     C_R   0.405111 0.494877 0.141842 -0.235157
C15   C     C_R   0.472378 0.457706 0.096976 0.151407
C16   C     C_R   0.544506 0.423297 0.135008 0.375017
C17   C     C_R   0.557944 0.436182 0.218107 0.349397
C18   C     C_R   0.410443 0.446588 0.860512 -0.278415
C19   C     C_R   0.419681 0.441744 0.778287 0.450258
C20   C     C_R   0.461434 0.525286 0.903469 0.202976
C21   C     C_R   0.483424 0.515448 0.738617 -0.189029
C22   C     C_R   0.527716 0.595895 0.780230 -0.311142
C23   C     C_R   0.497162 0.510539 0.652928 0.895934
C24   C     C_R   0.515809 0.602325 0.863409 0.104543
C25   C     C_R   0.546252 0.780606 0.539542 -0.166307
C26   C     C_R   0.538354 0.865663 0.535147 0.353842
C27   C     C_R   0.463432 0.881200 0.481519 0.154284
C28   C     C_R   0.400889 0.809651 0.433239 -0.063267
C29   C     C_R   0.415818 0.727086 0.438425 -0.057673
C30   C     C_R   0.434151 0.136135 0.457919 0.316359
C31   C     C_R   0.449588 0.227325 0.455295 -0.206471
C32   C     C_R   0.476773 0.104924 0.523316 0.084108
C33   C     C_R   0.558757 0.256581 0.571254 0.096884
C34   C     C_R   0.702385 0.548990 0.497659 0.936307
C35   C     C_R   0.530804 0.165619 0.583434 0.323242
C36   C     C_R   0.970835 0.668555 0.585681 0.352503
C37   C     C_R   0.819217 0.581163 0.506477 -0.256400
C38   C     C_R   0.126696 0.336557 0.466093 0.503484
C39   C     C_R   0.018202 0.318407 0.447264 -0.255678
C40   C     C_R   0.965689 0.379710 0.465616 -0.271306
H1    H     H_    0.363722 0.388635 0.891231 0.159785
H2    H     H_    0.572810 0.652253 0.747060 0.176904
H3    H     H_    0.346474 0.518321 0.113028 0.178951
H4    H     H_    0.364006 0.534404 0.257632 0.179745
H5    H     H_    0.407579 0.251298 0.411079 0.191340
H6    H     H_    0.368443 0.672125 0.401459 0.159159
H7    H     H_    0.600670 0.767937 0.581852 0.174195
H8    H     H_    0.831649 0.467511 0.447834 0.176750
H9    H     H_    0.883778 0.361164 0.445906 0.148011
H10   H     H_    0.975946 0.259730 0.412533 0.150338
H11   H     H_    0.247782 0.551853 0.614142 0.158591
N1    N     N_2   0.473224 0.458652 0.013201 -0.163538
N2    N     N_2   0.461167 0.526601 0.987471 -0.184223
N3    N     N_R   0.487340 0.714070 0.490410 -0.119909
N4    N     N_2   0.456160 0.967423 0.470309 -0.147500
N5    N     N_2   0.470360 0.014981 0.532590 -0.095418
N6    N     N_R   0.512670 0.285920 0.509580 -0.146044
O1    O     O_R   0.504530 0.423560 0.387290 -0.608859
O2    O     O_R   0.496400 0.561030 0.381140 -0.625576
O3    O     O_R   0.352460 0.397130 0.504630 -0.575631
O4    O     O_R   0.344330 0.534610 0.498470 -0.622998
O5    O     O_R   0.503600 0.438970 0.618860 -0.602994
O6    O     O_R   0.495470 0.576440 0.612710 -0.622327
O7    O     O_R   0.655670 0.465390 0.501530 -0.641213
O8    O     O_R   0.647540 0.602870 0.495370 -0.582828
Zn1   Zn    Zn3+2 0.505430 0.408200 0.504110 0.937579
Zn2   Zn    Zn3+2 0.494570 0.591800 0.495890 0.935196
O9    O     O_3   0.822771 0.723265 0.562816 -0.638046
C41   C     C_3   0.836751 0.775655 0.494831 0.128647
H12   H     H_    0.764770 0.797391 0.490102 0.150744
H13   H     H_    0.841198 0.739217 0.437269 0.120016
C42   C     C_3   0.936300 0.857051 0.504314 -0.332288
H14   H     H_    0.928029 0.895289 0.559510 0.232659
H15   H     H_    0.009257 0.836569 0.509948 0.244444
C43   C     C_3   0.950810 0.915474 0.432506 -1.018813
H16   H     H_    0.956728 0.878001 0.376429 0.273556
H17   H     H_    0.025755 0.971873 0.439411 0.277229
H18   H     H_    0.881791 0.941008 0.427611 0.257821
O10   O     O_3   0.612710 0.388620 0.090606 -0.616584
C44   C     C_3   0.553440 0.304042 0.060058 0.054845
H19   H     H_    0.496949 0.308363 0.012744 0.162992
H20   H     H_    0.506507 0.262354 0.108284 0.098572
C45   C     C_3   0.631468 0.259653 0.023175 -0.301203
H21   H     H_    0.677444 0.299731 0.973991 0.231489
H22   H     H_    0.689453 0.255248 0.069267 0.218190
C46   C     C_3   0.571851 0.167545 0.989964 -0.986725
H23   H     H_    0.527275 0.125652 0.038519 0.268428
H24   H     H_    0.630510 0.137362 0.963046 0.268843
H25   H     H_    0.514316 0.170545 0.943089 0.273860
O11   O     O_3   0.645322 0.423266 0.255278 -0.624165
C47   C     C_3   0.627413 0.332935 0.265505 0.134877
H26   H     H_    0.644425 0.301699 0.208749 0.167557
H27   H     H_    0.543446 0.298745 0.285288 0.104008
C48   C     C_3   0.705001 0.323095 0.329027 -0.325179
H28   H     H_    0.788371 0.363306 0.313390 0.231102
H29   H     H_    0.683464 0.347538 0.387854 0.241378
C49   C     C_3   0.701970 0.227900 0.335813 -1.025239
H30   H     H_    0.620945 0.186764 0.354665 0.258579
H31   H     H_    0.760688 0.223965 0.381412 0.261098
H32   H     H_    0.723221 0.201743 0.277632 0.271607
C50   C     C_3   0.563564 0.687842 0.911634 -0.386859
C51   C     C_3   0.608854 0.770345 0.862284 -0.369280
C52   C     C_3   0.647531 0.852886 0.916280 -0.869040
H33   H     H_    0.579698 0.861530 0.952827 0.259300
H34   H     H_    0.712156 0.848545 0.956476 0.263123
H35   H     H_    0.680198 0.911155 0.879038 0.253952
H36   H     H_    0.678237 0.765186 0.825537 0.222953
H37   H     H_    0.545391 0.777139 0.822125 0.234207
H38   H     H_    0.499243 0.697911 0.951470 0.206195
H39   H     H_    0.628529 0.680731 0.950065 0.213605
O12   O     O_3   0.361219 0.077520 0.407001 -0.635185
C53   C     C_3   0.399088 0.086928 0.327208 0.071730
H40   H     H_    0.460102 0.052365 0.318030 0.153946
H41   H     H_    0.435663 0.156555 0.311226 0.116900
C54   C     C_3   0.304782 0.046172 0.270511 -0.321362
H42   H     H_    0.265978 0.976065 0.283666 0.220435
H43   H     H_    0.243944 0.080814 0.279677 0.220464
C55   C     C_3   0.341826 0.052878 0.183383 -0.986313
H44   H     H_    0.378264 0.122732 0.168156 0.255636
H45   H     H_    0.271734 0.022591 0.143763 0.269991
H46   H     H_    0.401886 0.017823 0.172610 0.264114
C56   C     C_3   0.314842 0.817784 0.378008 -0.399593
C57   C     C_3   0.202431 0.772294 0.412407 -0.329663
C58   C     C_3   0.114550 0.774155 0.354635 -0.884166
H47   H     H_    0.121048 0.842987 0.342106 0.264533
H48   H     H_    0.121646 0.738501 0.297623 0.263612
H49   H     H_    0.034393 0.741653 0.381514 0.251206
H50   H     H_    0.192934 0.702677 0.424513 0.224695
H51   H     H_    0.191889 0.806151 0.469732 0.228703
H52   H     H_    0.323199 0.887485 0.368673 0.238548
H53   H     H_    0.324184 0.787612 0.318493 0.193361
C59   C     C_3   0.209775 0.701252 0.629165 -0.357002
C60   C     C_3   0.232862 0.699812 0.718573 -0.338299
C61   C     C_3   0.314839 0.785991 0.747484 -0.880577
H54   H     H_    0.392080 0.797106 0.714430 0.271182
H55   H     H_    0.283871 0.841817 0.738392 0.260796
H56   H     H_    0.330149 0.783239 0.812196 0.248325
H57   H     H_    0.157652 0.688716 0.753808 0.228869
H58   H     H_    0.265613 0.645450 0.729974 0.212047
H59   H     H_    0.286754 0.711500 0.595722 0.195429
H60   H     H_    0.186678 0.759578 0.615526 0.239948
C62   C     C_3   0.638445 0.319317 0.627893 -0.307985
C63   C     C_3   0.750620 0.308684 0.619671 -0.362039
C64   C     C_3   0.832978 0.377796 0.670872 -0.887948
H61   H     H_    0.835522 0.444899 0.655048 0.260945
H62   H     H_    0.812159 0.368664 0.735213 0.263090
H63   H     H_    0.914077 0.371287 0.660433 0.263820
H64   H     H_    0.749286 0.242825 0.638159 0.266168
H65   H     H_    0.776209 0.315435 0.556219 0.221313
H66   H     H_    0.648086 0.387708 0.615973 0.250062
H67   H     H_    0.609482 0.308825 0.690455 0.198124
O13   O     O_3   0.600801 0.931148 0.586067 -0.625311
C65   C     C_3   0.694154 0.979621 0.544674 0.108534
H68   H     H_    0.672803 0.017752 0.497218 0.156357
H69   H     H_    0.736629 0.935685 0.516785 0.108610
C66   C     C_3   0.771029 0.043116 0.603702 -0.285183
H70   H     H_    0.726862 0.079779 0.640328 0.268519
H71   H     H_    0.804097 0.005238 0.644585 0.210140
C67   C     C_3   0.863558 0.108611 0.560457 -1.031009
H72   H     H_    0.907250 0.073197 0.521960 0.270540
H73   H     H_    0.920464 0.151203 0.604819 0.278716
H74   H     H_    0.832532 0.150760 0.522928 0.265943
O14   O     O_3   0.562503 0.136715 0.652985 -0.651704
C68   C     C_3   0.471621 0.098700 0.702198 0.113999
H75   H     H_    0.493697 0.054456 0.743147 0.177552
H76   H     H_    0.400231 0.056952 0.668116 0.144253
C69   C     C_3   0.440993 0.169098 0.752757 -0.380123
H77   H     H_    0.510824 0.207482 0.789822 0.230413
H78   H     H_    0.418978 0.214333 0.712921 0.254720
C70   C     C_3   0.345425 0.128252 0.807533 -0.967503
H79   H     H_    0.273484 0.092016 0.771622 0.259228
H80   H     H_    0.326546 0.180840 0.844059 0.273512
H81   H     H_    0.364558 0.082393 0.848281 0.263418
O15   O     O_3   0.008801 0.736386 0.641851 -0.652390
C71   C     C_3   0.953917 0.711842 0.714983 0.117068
H82   H     H_    0.970914 0.653436 0.737945 0.120140
H83   H     H_    0.865229 0.695849 0.708019 0.165304
C72   C     C_3   0.991654 0.788439 0.775974 -0.334171
H84   H     H_    0.080671 0.808979 0.781363 0.230125
H85   H     H_    0.969054 0.845045 0.755036 0.227880
C73   C     C_3   0.941139 0.763446 0.857982 -0.972902
H86   H     H_    0.851989 0.742467 0.854185 0.266908
H87   H     H_    0.968135 0.820972 0.900365 0.269065
H88   H     H_    0.966248 0.709143 0.881300 0.266698
O16   O     O_3   0.185708 0.285406 0.432613 -0.644390
C74   C     C_3   0.149296 0.198524 0.459919 0.068841
H89   H     H_    0.186173 0.158575 0.420331 0.191335
H90   H     H_    0.060933 0.167678 0.454245 0.124526
C75   C     C_3   0.185292 0.194413 0.546024 -0.353699
H91   H     H_    0.272212 0.231300 0.552386 0.255533
H92   H     H_    0.139258 0.225175 0.587054 0.207147
C76   C     C_3   0.166113 0.100131 0.570331 -0.954972
H93   H     H_    0.078879 0.063052 0.569302 0.270988
H94   H     H_    0.196263 0.100358 0.631916 0.257405
H95   H     H_    0.209551 0.066611 0.529421 0.296921
O17   O     O_3   0.364088 0.365170 0.736806 -0.645652
C77   C     C_3   0.258924 0.366522 0.719724 0.076370
H96   H     H_    0.247927 0.358708 0.654078 0.149993
H97   H     H_    0.242753 0.428999 0.738146 0.112556
C78   C     C_3   0.176022 0.289702 0.759337 -0.341964
H98   H     H_    0.184976 0.226927 0.735142 0.233576
H99   H     H_    0.190521 0.293930 0.824781 0.218786
C79   C     C_3   0.061439 0.290305 0.744762 -0.976296
H100  H     H_    0.049059 0.349957 0.773484 0.268681
H101  H     H_    0.003032 0.231533 0.770801 0.272195
H102  H     H_    0.045653 0.289304 0.679764 0.256140

loop_
_geom_bond_atom_site_label_1
_geom_bond_atom_site_label_2
_ccdc_geom_bond_type
N4    N5    D    
C36   O15   S    
C50   C51   S    
C75   C76   S    
C34   C37   S    
O14   C68   S    
C1    C11   S    
N6    Zn1   S    
C4    C8    A    
C49   H32   S    
C61   H56   S    
C53   H41   S    
C49   H30   S    
O16   C74   S    
C57   C58   S    
C71   H83   S    
C22   H2    S    
C73   H86   S    
C79   H101  S    
C26   C27   A    
C68   H75   S    
C19   C21   A    
C18   C19   A    
C3    C7    A    
C64   H63   S    
C67   H72   S    
C5    C6    A    
C46   H24   S    
C29   N3    A    
C77   H96   S    
C50   H38   S    
C63   C64   S    
C5    C36   A    
O17   C77   S    
C53   C54   S    
C75   H92   S    
C24   C50   S    
C62   C63   S    
C77   H97   S    
O15   C71   S    
O7    Zn1   S    
O2    Zn2   S    
C55   H44   S    
C66   H71   S    
O1    Zn1   S    
C23   O5    A    
C11   C17   A    
C20   C24   A    
C78   H98   S    
C54   H43   S    
C9    C36   A    
C67   H73   S    
C51   H37   S    
C13   C14   A    
C65   H69   S    
C25   H7    S    
C18   C20   A    
C47   H26   S    
C42   H14   S    
C23   O6    A    
O3    Zn1   S    
C60   H57   S    
C21   C22   A    
C57   H51   S    
C69   H78   S    
C51   C52   S    
C42   C43   S    
C34   O8    A    
C34   O7    A    
C53   H40   S    
C49   H31   S    
C72   H84   S    
C69   C70   S    
C73   H87   S    
C63   H64   S    
C79   H102  S    
O6    Zn2   S    
C41   H13   S    
C15   C16   A    
O5    Zn1   S    
C76   H95   S    
C51   H36   S    
C25   N3    A    
C42   H15   S    
C18   H1    S    
C39   C40   A    
C71   C72   S    
C16   C17   A    
C61   H55   S    
N3    Zn2   S    
C48   C49   S    
O8    Zn2   S    
C50   H39   S    
C75   H91   S    
C35   O14   S    
C55   H46   S    
C66   H70   S    
C62   H67   S    
C77   C78   S    
C2    C4    A    
C43   H16   S    
C32   C35   A    
C47   H27   S    
C64   H62   S    
O4    Zn2   S    
C45   H21   S    
C63   H65   S    
C30   C31   A    
C54   C55   S    
C45   C46   S    
C9    C37   A    
C67   H74   S    
C48   H28   S    
C52   H34   S    
C64   H61   S    
C15   N1    S    
C65   C66   S    
C48   H29   S    
C43   H17   S    
C40   H9    S    
C61   H54   S    
C10   C12   S    
C74   H89   S    
C58   H49   S    
C20   N2    S    
C6    C59   S    
C45   H22   S    
C1    O2    A    
C60   H58   S    
C21   C23   S    
C31   H5    S    
C60   C61   S    
C22   C24   A    
C8    C37   A    
C74   H90   S    
C56   H53   S    
C69   H77   S    
C41   C42   S    
N1    N2    D    
C58   H48   S    
C73   H88   S    
C59   H60   S    
C28   C29   A    
C33   N6    A    
O12   C53   S    
C46   H23   S    
O9    C41   S    
C66   C67   S    
C17   O11   S    
C44   H19   S    
C46   H25   S    
C72   H85   S    
C56   C57   S    
C6    C7    A    
C33   C62   S    
C59   H59   S    
C38   O16   S    
C30   O12   S    
C27   N4    S    
C29   H6    S    
C10   C38   A    
C16   O10   S    
C76   H93   S    
C62   H66   S    
C74   C75   S    
C68   H76   S    
C2    C3    A    
C25   C26   A    
C9    O9    S    
C7    H11   S    
C71   H82   S    
C8    H8    S    
C47   C48   S    
C30   C32   A    
C12   O4    A    
C11   C13   A    
C31   N6    A    
O11   C47   S    
C38   C39   A    
C70   H80   S    
C78   C79   S    
C4    C5    A    
C26   O13   S    
C44   C45   S    
C33   C35   A    
C44   H20   S    
C32   N5    S    
C59   C60   S    
C52   H35   S    
C28   C56   S    
C68   C69   S    
C41   H12   S    
C43   H18   S    
C55   H45   S    
C72   C73   S    
O10   C44   S    
C12   O3    A    
C2    C40   A    
C19   O17   S    
C39   H10   S    
O13   C65   S    
C78   H99   S    
C70   H79   S    
C57   H50   S    
C52   H33   S    
C3    C10   A    
C14   C15   A    
C58   H47   S    
C79   H100  S    
C65   H68   S    
C1    O1    A    
C56   H52   S    
C13   H4    S    
C54   H42   S    
C76   H94   S    
C14   H3    S    
C27   C28   A    
C70   H81   S    
