data_mof_unit_40232.cif
_audit_creation_date              2013-03-05T16:19:34-0500
_audit_creation_method            fapswitch 2.2
_symmetry_space_group_name_H-M    P1
_symmetry_Int_Tables_number       1
_space_group_crystal_system       triclinic
_cell_length_a                    8.394603
_cell_length_b                    19.248884
_cell_length_c                    27.257019
_cell_angle_alpha                 101.63798
_cell_angle_beta                  91.920591
_cell_angle_gamma                 88.353833
_cell_volume                      4310.31760414

loop_
_atom_site_label
_atom_site_type_symbol
_atom_site_description
_atom_site_fract_x
_atom_site_fract_y
_atom_site_fract_z
_atom_type_partial_charge
P1    P     P_3+3 0.926760 0.336170 0.451740 0.433842
O1    O     O_2   0.103290 0.325410 0.465600 -0.364358
O2    O     O_3   0.857760 0.414170 0.470020 -0.418634
O3    O     O_3   0.374170 0.371120 0.556000 -0.389963
O4    O     O_2   0.288360 0.247766 0.506847 -0.402128
O5    O     O_3   0.932487 0.324372 0.386424 -0.593189
O6    O     O_3   0.330208 0.252593 0.603124 -0.496052
H1    H     H_    0.299041 0.353294 0.645847 0.164432
C1    C     C_3   0.335803 0.276664 0.692825 -0.824183
H2    H     H_    0.207221 0.265818 0.693992 0.301105
H3    H     H_    0.406301 0.227135 0.693508 0.249577
P2    P     P_3+3 0.399470 0.558680 0.614150 0.536105
P3    P     P_3+3 0.957474 0.425316 0.648129 0.447779
O7    O     O_2   0.227790 0.537410 0.620340 -0.343948
O8    O     O_3   0.969630 0.407570 0.582610 -0.373189
O9    O     O_2   0.118080 0.456568 0.669937 -0.412794
O10   O     O_3   0.360954 0.650535 0.630884 -0.517852
O11   O     O_3   0.960931 0.344203 0.667693 -0.521426
C2    C     C_3   0.858839 0.297823 0.635852 0.362329
H4    H     H_    0.915696 0.278068 0.599241 0.131835
H5    H     H_    0.744706 0.324972 0.628813 -0.031654
C3    C     C_3   0.822846 0.235583 0.660496 -0.165178
H6    H     H_    0.823845 0.252783 0.701941 0.201867
C4    C     C_3   0.905193 0.626275 0.636123 0.452580
H7    H     H_    0.788644 0.604644 0.641244 -0.011657
H8    H     H_    0.975214 0.583116 0.613761 0.166648
C5    C     C_3   0.987647 0.648208 0.687320 -0.908309
H9    H     H_    0.912114 0.687189 0.712494 0.242417
H10   H     H_    0.009799 0.601156 0.704553 0.224111
H11   H     H_    0.103361 0.672718 0.683526 0.288314
Ba1   Ba    Ba6+2 0.160260 0.465850 0.521400 1.566318
C6    C     C_3   0.785845 0.299461 0.364290 0.409159
H12   H     H_    0.747013 0.333689 0.337655 0.134631
H13   H     H_    0.688462 0.301358 0.391161 0.075577
C7    C     C_3   0.808198 0.224011 0.334771 -1.003948
H14   H     H_    0.904714 0.221806 0.307559 0.273145
H15   H     H_    0.696017 0.206193 0.313878 0.248865
H16   H     H_    0.839978 0.187653 0.360556 0.247705
C8    C     C_3   0.501669 0.688752 0.638115 0.389195
H17   H     H_    0.476540 0.740461 0.626976 0.109709
H18   H     H_    0.595497 0.662493 0.613544 0.126357
C9    C     C_3   0.553655 0.703759 0.693269 -0.987812
H19   H     H_    0.453073 0.728227 0.716662 0.281240
H20   H     H_    0.653802 0.741203 0.699284 0.244313
H21   H     H_    0.593148 0.654138 0.705208 0.254453
P4    P     P_3+3 0.883550 0.663840 0.548300 0.505413
O12   O     O_2   0.707020 0.674640 0.534420 -0.347517
O13   O     O_3   0.952550 0.585840 0.530020 -0.414394
O14   O     O_3   0.436140 0.628890 0.444040 -0.300447
O15   O     O_3   0.883578 0.686103 0.614196 -0.567275
P5    P     P_3+3 0.841454 0.580894 0.350565 0.449875
O16   O     O_3   0.350480 0.462320 0.439870 -0.378981
O17   O     O_3   0.840680 0.592440 0.417430 -0.433723
O18   O     O_2   0.675540 0.552513 0.331289 -0.378192
O19   O     O_3   0.838720 0.663672 0.333219 -0.498192
Ba2   Ba    Ba6+2 0.649930 0.534160 0.478640 1.561645
P6    P     P_3+3 0.401368 0.280102 0.550643 0.431963
C10   C     C_3   0.370211 0.304040 0.645803 0.437703
H22   H     H_    0.498148 0.316551 0.647356 0.004363
H23   H     H_    0.368855 0.317153 0.726481 0.229137
O20   O     O_3   0.459840 0.537690 0.560170 -0.333349
C11   C     C_3   0.340256 0.312054 0.386079 0.389343
H24   H     H_    0.382273 0.326697 0.425904 0.128426
H25   H     H_    0.213575 0.326341 0.381599 0.145121
C12   C     C_3   0.357517 0.231957 0.369318 -0.984832
H26   H     H_    0.481194 0.214039 0.376698 0.238170
H27   H     H_    0.275152 0.205680 0.390561 0.247000
H28   H     H_    0.327262 0.215940 0.328682 0.273252
P7    P     P_3+3 0.404746 0.437848 0.375717 0.442605
O21   O     O_2   0.582520 0.462630 0.379680 -0.342639
O22   O     O_3   0.429016 0.345865 0.355683 -0.589218
H29   H     H_    0.702485 0.215389 0.648530 0.111041
C13   C     C_3   0.869453 0.716432 0.375752 0.530505
H30   H     H_    0.779777 0.716462 0.404828 0.147099
H31   H     H_    0.990405 0.707745 0.391250 -0.005147
C14   C     C_3   0.860099 0.788553 0.360825 -0.964319
H32   H     H_    0.876712 0.831576 0.394063 0.217600
H33   H     H_    0.953299 0.791908 0.333593 0.293259
H34   H     H_    0.741480 0.797215 0.343846 0.261106
P8    P     P_3+3 0.412035 0.719966 0.447624 0.459457
C15   C     C_3   0.371590 0.717224 0.353287 0.256296
H35   H     H_    0.247433 0.733681 0.363509 0.040905
O23   O     O_2   0.534689 0.750655 0.488955 -0.394680
O24   O     O_3   0.479010 0.743036 0.393112 -0.560293
H36   H     H_    0.377889 0.658354 0.344053 0.103166
C16   C     C_3   0.411262 0.749174 0.307926 0.127919
H37   H     H_    0.443774 0.805376 0.322465 0.114156
C17   C     C_R   0.937241 0.802633 0.520861 -0.321537
H38   H     H_    0.841829 0.823305 0.545611 0.171592
C18   C     C_R   0.991021 0.731598 0.520607 0.233956
C19   C     C_R   0.130356 0.809529 0.458547 -0.423477
H39   H     H_    0.160915 0.825652 0.424579 0.160222
C20   C     C_R   0.211500 0.750183 0.470581 0.159394
C21   C     C_R   0.675481 0.188092 0.537482 -0.315894
H40   H     H_    0.635475 0.164786 0.567503 0.158241
C22   C     C_R   0.605791 0.253394 0.532272 0.207737
C23   C     C_R   0.855913 0.197424 0.472175 -0.333497
H41   H     H_    0.940925 0.176078 0.443867 0.140649
C24   C     C_R   0.815795 0.270864 0.478842 0.296673
C25   C     C_R   0.007503 0.845055 0.489161 0.116751
C26   C     C_R   0.140917 0.712847 0.502333 0.012526
C27   C     C_R   0.791780 0.153805 0.503682 0.130645
C28   C     C_R   0.683181 0.296298 0.506108 -0.411513
H42   H     H_    0.636853 0.349257 0.505724 0.162904
C29   C     C_R   0.209550 0.963100 0.457858 -0.169999
C30   C     C_R   0.299928 0.015277 0.444357 -0.123383
C31   C     C_R   0.260555 0.085556 0.462063 -0.141168
C32   C     C_R   0.122819 0.102734 0.488912 -0.097708
C33   C     C_R   0.005760 0.051793 0.489019 0.065303
C34   C     C_R   0.055503 0.977879 0.478156 0.101393
C35   C     C_R   0.846077 0.074681 0.501320 -0.036719
C36   C     C_R   0.740347 0.019938 0.507852 0.105371
C37   C     C_R   0.791184 0.946276 0.498235 0.054281
C38   C     C_R   0.951823 0.923381 0.487372 -0.056831
C39   C     C_R   0.581181 0.034850 0.523263 -0.158202
C40   C     C_R   0.486874 0.983285 0.535686 -0.101284
C41   C     C_R   0.529120 0.912887 0.519809 -0.100030
C42   C     C_R   0.673314 0.895364 0.496424 -0.157057
H43   H     H_    0.273077 0.914192 0.454225 0.140977
H44   H     H_    0.412752 0.001373 0.426316 0.137500
H45   H     H_    0.342301 0.126013 0.457525 0.157453
H46   H     H_    0.105576 0.156545 0.508593 0.198730
H47   H     H_    0.519000 0.083701 0.523081 0.139423
H48   H     H_    0.370190 0.997443 0.550959 0.155262
H49   H     H_    0.444740 0.872753 0.522795 0.159758
H50   H     H_    0.694667 0.841745 0.477047 0.181550
C43   C     C_R   0.306437 0.441369 0.167775 0.524986
O25   O     O_2   0.335940 0.389312 0.186079 -0.586702
N1    N     N_R   0.231377 0.500526 0.196000 -0.167667
C44   C     C_R   0.192797 0.558336 0.174303 0.515261
C45   C     C_2   0.044664 0.522150 0.265467 -0.149998
C46   C     C_3   0.005316 0.518384 0.318550 0.120638
C47   C     C_1   0.284697 0.483907 0.332272 0.243061
C48   C     C_2   0.318123 0.481160 0.284518 -0.242091
C49   C     C_2   0.193116 0.501837 0.248218 0.125003
C50   C     C_R   0.309646 0.498864 0.095494 -0.063721
C51   C     C_R   0.346854 0.439969 0.117511 -0.059787
C52   C     C_R   0.423670 0.380700 0.088831 -0.085575
C53   C     C_R   0.231977 0.558353 0.124267 -0.073918
C54   C     C_2   0.155954 0.519987 0.350967 -0.203779
H51   H     H_    0.438777 0.467884 0.272182 0.178596
H52   H     H_    0.455301 0.334743 0.104726 0.168511
C55   C     C_2   0.645485 0.480354 0.639776 -0.440940
C56   C     C_R   0.459739 0.435629 0.964450 0.041065
C57   C     C_R   0.357112 0.558777 0.973106 0.042851
C58   C     C_R   0.428127 0.496914 0.943666 0.084029
C59   C     C_R   0.525399 0.374721 0.932877 -0.199944
C60   C     C_R   0.562122 0.374570 0.883397 -0.082274
C61   C     C_R   0.535482 0.435053 0.862836 -0.052994
C62   C     C_R   0.468131 0.496372 0.892863 -0.066597
C63   C     C_R   0.440973 0.557197 0.872100 -0.056610
C64   C     C_R   0.483065 0.556295 0.822136 0.525591
N2    N     N_R   0.549207 0.495748 0.792973 -0.164395
C65   C     C_R   0.574379 0.435283 0.812736 0.515634
C66   C     C_2   0.745223 0.480220 0.726760 -0.167441
C67   C     C_3   0.790528 0.486264 0.674375 0.137868
C68   C     C_1   0.513739 0.513668 0.657473 0.242998
C69   C     C_2   0.472471 0.515264 0.704354 -0.230051
C70   C     C_2   0.593402 0.496094 0.741741 0.135672
O26   O     O_2   0.629720 0.381437 0.786592 -0.605113
C71   C     C_R   0.424243 0.436982 0.015643 0.041650
C72   C     C_R   0.349381 0.498184 0.044645 0.085237
C73   C     C_R   0.313516 0.558702 0.023377 0.041388
C74   C     C_R   0.461660 0.379146 0.039244 -0.201222
H53   H     H_    0.837008 0.468714 0.753186 0.158835
H54   H     H_    0.612316 0.326342 0.861160 0.168934
H55   H     H_    0.548552 0.325401 0.944918 0.128805
H56   H     H_    0.522561 0.331627 0.020691 0.128412
O27   O     O_2   0.125353 0.610352 0.198719 -0.539672
C75   C     C_R   0.194557 0.616942 0.102515 -0.068503
H57   H     H_    0.949845 0.534523 0.240337 0.161033
H58   H     H_    0.133894 0.663400 0.123559 0.186400
C76   C     C_R   0.332969 0.619008 0.951038 -0.200892
C77   C     C_R   0.373875 0.618090 0.901844 -0.085697
O28   O     O_2   0.462724 0.609832 0.804824 -0.596671
C78   C     C_R   0.234007 0.617224 0.053387 -0.205169
H59   H     H_    0.284416 0.668675 0.970917 0.129267
H60   H     H_    0.352615 0.665908 0.887138 0.168584
H61   H     H_    0.352126 0.530793 0.715951 0.186661
H62   H     H_    0.197959 0.664322 0.039993 0.130865
H63   H     H_    0.646227 0.446175 0.602825 0.156987
Br1   Br    Br    0.225336 0.754900 0.264174 -0.534995
N3    N     N_2   0.545576 0.712384 0.280733 -0.082112
H64   H     H_    0.612726 0.744894 0.264184 0.194644
C79   C     C_3   0.518871 0.644192 0.248023 -0.646237
H65   H     H_    0.635277 0.616339 0.239375 0.235268
H66   H     H_    0.460456 0.651661 0.212249 0.240944
H67   H     H_    0.444466 0.610256 0.265827 0.226210
Br2   Br    Br    0.257983 0.642823 0.527932 -0.362426
Br3   Br    Br    0.976535 0.158251 0.641937 -0.516202
N4    N     N_2   0.137943 0.534894 0.402917 -0.104531
H68   H     H_    0.120536 0.587788 0.418505 0.159654
C80   C     C_3   0.035577 0.484878 0.418399 -0.423633
H69   H     H_    0.993941 0.508749 0.455388 0.285412
H70   H     H_    0.097579 0.433997 0.417570 0.207596
H71   H     H_    0.928956 0.470554 0.393795 0.192367

loop_
_geom_bond_atom_site_label_1
_geom_bond_atom_site_label_2
_geom_bond_distance
_ccdc_geom_bond_type
C24   C28   1.381547 A    
C29   C34   1.422195 A    
C68   C69   1.329318 D    
C56   C71   1.431517 A    
C5    H10   1.109778 S    
C60   H54   1.083666 S    
C13   H30   1.111121 S    
Ba1   O20   2.964045 S    
O5    C6    1.405952 S    
C2    H4    1.112021 S    
C14   H34   1.106439 S    
O7    Ba1   2.816945 S    
P8    O24   1.748595 S    
P1    C24   1.865932 S    
N4    C80   1.441922 S    
C57   C58   1.422347 A    
C55   C67   1.507484 S    
C61   C62   1.409110 A    
C8    H18   1.095589 S    
C69   H61   1.084337 S    
C75   C78   1.391246 A    
C76   C77   1.391822 A    
C40   C41   1.376727 A    
C45   H57   1.085273 S    
C19   C25   1.419326 A    
P3    O11   1.747923 S    
C55   H63   1.086337 S    
C7    H15   1.110215 S    
C4    H8    1.094920 S    
C1    C10   1.519834 S    
C45   C49   1.365295 D    
C56   C59   1.416544 A    
C79   H66   1.110129 S    
C30   C31   1.376163 A    
C44   C53   1.413673 A    
C44   O27   1.220576 D    
C39   C40   1.387558 A    
C23   H41   1.079634 S    
P1    Ba1   3.434783 S    
C32   C33   1.408486 A    
C53   C75   1.399651 A    
P1    O1    1.535596 D    
O10   C8    1.396840 S    
P7    O22   1.752509 S    
C11   H25   1.099760 S    
O16   P7    1.787680 S    
C28   H42   1.082490 S    
C59   C60   1.392917 A    
H1    C10   1.105832 S    
N1    C49   1.464692 S    
C64   O28   1.222495 D    
P8    C20   1.852355 S    
C35   C36   1.438706 A    
C80   H70   1.092338 S    
P6    C22   1.833822 S    
P2    O10   1.757967 S    
C63   C64   1.414979 A    
C4    C5    1.522842 S    
Ba1   Ba2   4.608060 S    
C3    Br3   1.940575 S    
C1    H2    1.107983 S    
C34   C38   1.447245 A    
O6    C10   1.405288 S    
C23   C27   1.442286 A    
C12   H28   1.110967 S    
C63   C77   1.399177 A    
C58   C62   1.433700 A    
C5    H11   1.108865 S    
C32   H46   1.074256 S    
C13   H31   1.107837 S    
C27   C35   1.566545 S    
P7    O21   1.573407 D    
C9    H20   1.109512 S    
C7    H14   1.110849 S    
P8    O23   1.538477 D    
C73   C78   1.416049 A    
C3    H29   1.108008 S    
C36   C37   1.443644 A    
C23   C24   1.420525 A    
C55   C68   1.318042 D    
C8    C9    1.523790 S    
C3    H6    1.111072 S    
C4    O15   1.405254 S    
P4    O13   1.582896 S    
C66   C67   1.517552 S    
C39   H47   1.063106 S    
C66   C70   1.358884 D    
N4    H68   1.029362 S    
C6    C7    1.521468 S    
C74   H56   1.075905 S    
C7    H16   1.109087 S    
C25   C38   1.575324 S    
C4    H7    1.098224 S    
C37   C38   1.428389 A    
C52   H52   1.083611 S    
C20   C26   1.387958 A    
C19   H39   1.075045 S    
C16   H37   1.112930 S    
O11   C2    1.402243 S    
C79   H67   1.106349 S    
C50   C72   1.433801 A    
C57   C73   1.430350 A    
C12   H27   1.110959 S    
C10   H22   1.104953 S    
C15   H35   1.108668 S    
P1    O5    1.750818 S    
O1    Ba1   2.866456 S    
P1    O2    1.582898 S    
C9    H21   1.108211 S    
C6    H13   1.110719 S    
N2    C70   1.458181 S    
C21   C22   1.402374 A    
C61   C65   1.415585 A    
C43   N1    1.386849 Am   
C18   C26   1.380257 A    
C65   O26   1.222474 D    
C11   H24   1.113005 S    
C19   C20   1.402872 A    
C47   C48   1.331025 D    
O2    Ba2   2.830303 S    
C78   H62   1.075708 S    
C76   H59   1.075707 S    
C31   C32   1.385242 A    
C80   H71   1.107350 S    
C2    C3    1.528681 S    
N3    H64   1.031510 S    
C14   H32   1.105227 S    
O2    Ba1   2.957019 S    
C1    H3    1.110633 S    
C17   C25   1.451802 A    
C59   H55   1.075899 S    
C56   C58   1.422861 A    
C17   C18   1.426331 A    
C12   H26   1.109383 S    
Ba2   O21   2.817051 S    
Ba1   O13   2.829704 S    
P3    O8    1.755140 S    
P2    Ba1   3.414648 S    
C16   N3    1.456203 S    
P2    C68   1.831493 S    
C13   C14   1.522636 S    
C22   C28   1.382817 A    
C9    H19   1.110573 S    
C31   H45   1.080683 S    
C45   C46   1.511149 S    
C8    H17   1.110386 S    
C71   C74   1.416765 A    
C72   C73   1.422800 A    
C29   C30   1.389729 A    
O17   Ba2   2.764694 S    
O13   Ba2   2.957880 S    
C77   H60   1.083683 S    
P4    O12   1.535846 D    
P7    C47   1.869800 S    
C40   H48   1.083164 S    
C11   C12   1.521253 S    
C30   H44   1.083511 S    
Ba2   O20   2.767665 S    
C57   C76   1.416581 A    
C15   C16   1.537527 S    
C14   H33   1.108336 S    
C50   C51   1.408716 A    
P5    C46   1.913941 S    
O14   P8    1.742337 S    
O8    Ba1   2.764079 S    
C48   C49   1.517856 S    
P4    C18   1.896119 S    
C46   C54   1.515623 S    
O14   Ba2   2.797787 S    
C42   H50   1.073380 S    
C51   C52   1.400066 A    
P4    O15   1.760440 S    
C26   Br2   1.877954 S    
C62   C63   1.409418 A    
Ba1   O16   2.768321 S    
O4    P6    1.539708 D    
C1    H23   1.110342 S    
C6    H12   1.110051 S    
P5    O18   1.546996 D    
N3    C79   1.448967 S    
N1    C44   1.387384 Am   
C71   C72   1.422225 A    
C41   C42   1.388073 A    
C50   C53   1.407294 A    
C48   H51   1.085124 S    
P2    O20   1.543784 S    
C79   H65   1.110064 S    
C69   C70   1.505339 S    
C75   H58   1.083760 S    
C66   H53   1.085764 S    
C33   C35   1.428287 A    
C11   O22   1.397131 S    
P5    O19   1.750440 S    
C60   C61   1.399780 A    
C21   H40   1.076484 S    
O3    Ba1   2.798402 S    
C37   C42   1.405276 A    
O19   C13   1.400696 S    
O16   Ba2   2.963117 S    
P2    O7    1.533355 D    
P3    C67   1.867169 S    
C17   H38   1.079139 S    
C21   C27   1.419659 A    
C47   C54   1.327031 D    
C80   H69   1.085022 S    
P3    O9    1.543219 D    
P4    Ba2   3.435361 S    
C5    H9    1.109051 S    
C16   Br1   1.946462 S    
C54   N4    1.399361 S    
C15   O24   1.407426 S    
C29   H43   1.057160 S    
C52   C74   1.393348 A    
C64   N2    1.384592 Am   
C43   C51   1.417265 A    
P5    O17   1.791203 S    
N2    C65   1.385870 Am   
C33   C34   1.445837 A    
C41   H49   1.079755 S    
O6    P6    1.750595 S    
C36   C39   1.418110 A    
C15   H36   1.110246 S    
C43   O25   1.222085 D    
O3    P6    1.737514 S    
O12   Ba2   2.867099 S    
C2    H5    1.107803 S    
