data_mof_unit_51711.cif
_audit_creation_date              2012-10-26T20:02:58-0400
_audit_creation_method            fapswitch 2.2
_symmetry_space_group_name_H-M    P1
_symmetry_Int_Tables_number       1
_space_group_crystal_system       triclinic
_cell_length_a                    10.743393
_cell_length_b                    12.328999
_cell_length_c                    13.188809
_cell_angle_alpha                 116.379534
_cell_angle_beta                  77.853512
_cell_angle_gamma                 101.975363
_cell_volume                      1516.96748215

loop_
_atom_site_label
_atom_site_type_symbol
_atom_type_description
_atom_site_fract_x
_atom_site_fract_y
_atom_site_fract_z
_atom_type_partial_charge
C1    C     C_R   0.507548 0.854785 0.286947 0.558566
C2    C     C_R   0.500070 0.564901 0.012065 0.018788
C3    C     C_R   0.457361 0.646024 0.125820 0.034616
C4    C     C_R   0.739749 0.000621 0.500975 0.525390
C5    C     C_R   0.468702 0.436546 0.978420 0.035350
C6    C     C_R   0.393973 0.391503 0.057279 0.007530
C7    C     C_R   0.342723 0.471910 0.163545 -0.091157
C8    C     C_R   0.366011 0.596673 0.194810 0.246195
C9    C     C_R   0.506734 0.350976 0.867919 -0.089703
C10   C     C_R   0.396961 0.183250 0.914743 -0.107809
C11   C     C_R   0.507534 0.772494 0.164729 0.005941
C12   C     C_3   0.120839 0.002366 0.504613 0.083975
C13   C     C_R   0.712563 0.357098 0.340981 -0.139259
C14   C     C_R   0.330829 0.762505 0.648715 0.041222
C15   C     C_R   0.302009 0.673765 0.690718 -0.097883
C16   C     C_R   0.483919 0.144832 0.713251 0.546601
C17   C     C_R   0.369080 0.572700 0.642416 0.205322
C18   C     C_R   0.462518 0.555355 0.543714 0.001068
C19   C     C_R   0.493276 0.653974 0.508397 0.155213
C20   C     C_R   0.531857 0.449950 0.481662 0.003568
C21   C     C_R   0.638377 0.453844 0.398298 0.031163
C22   C     C_R   0.669567 0.553092 0.370452 -0.173686
C23   C     C_3   0.076763 0.127716 0.593691 0.100024
C24   C     C_R   0.596951 0.648809 0.421907 -0.096424
C25   C     C_R   0.499006 0.338148 0.493826 0.071558
C26   C     C_R   0.680185 0.254467 0.363810 0.040124
C27   C     C_R   0.259642 0.001523 0.502562 0.594414
C28   C     C_3   0.954550 0.988187 0.385331 -0.201183
C29   C     C_3   0.098029 0.986314 0.384960 0.041982
C30   C     C_3   0.930502 0.122427 0.597595 -0.175817
C31   C     C_3   0.894890 0.893026 0.525475 -0.197356
C32   C     C_3   0.877266 0.001360 0.502420 -0.063625
C33   C     C_3   0.036064 0.896005 0.532191 0.149962
C34   C     C_R   0.362264 0.265597 0.026049 -0.116441
C35   C     C_R   0.465549 0.226340 0.834528 0.004645
C36   C     C_R   0.575179 0.818272 0.085656 -0.139748
C37   C     C_R   0.603185 0.740561 0.971860 -0.118214
C38   C     C_R   0.570095 0.615432 0.935674 -0.070262
Cl1   Cl    Cl    0.050410 0.904005 0.668987 -0.598762
Cl2   Cl    Cl    0.252455 0.678784 0.304888 -0.583780
Cl3   Cl    Cl    0.345070 0.489132 0.725758 -0.678585
Cu1   Cu    Cu3+1 0.529690 0.098270 0.475420 0.936409
Cu2   Cu    Cu3+1 0.470310 0.901730 0.524580 1.001958
H1    H     H_    0.944720 0.065899 0.367335 0.104094
H2    H     H_    0.914691 0.903214 0.316239 0.173140
H3    H     H_    0.738115 0.180362 0.321129 0.123167
H4    H     H_    0.750106 0.555912 0.305990 0.127600
H5    H     H_    0.795232 0.360904 0.278732 0.113848
H6    H     H_    0.411296 0.319389 0.542906 0.189739
H7    H     H_    0.281696 0.842487 0.690840 0.188610
H8    H     H_    0.231000 0.687230 0.765537 0.165926
H9    H     H_    0.628266 0.718723 0.392450 0.178960
H10   H     H_    0.153696 0.064649 0.366983 0.107889
H11   H     H_    0.912694 0.202154 0.586660 0.113560
H12   H     H_    0.878642 0.129478 0.682386 0.186665
H13   H     H_    0.126809 0.200793 0.565626 0.114857
H14   H     H_    0.833924 0.896306 0.606054 0.190198
H15   H     H_    0.861961 0.805059 0.455574 0.114847
H16   H     H_    0.066487 0.807288 0.467888 0.223449
H17   H     H_    0.196123 0.195640 0.705978 0.351901
H18   H     H_    0.227846 0.894133 0.269424 0.350195
H19   H     H_    0.365178 0.086743 0.890357 0.141344
H20   H     H_    0.275823 0.436998 0.219518 0.143919
H21   H     H_    0.305265 0.231096 0.086310 0.114265
H22   H     H_    0.565105 0.378457 0.804340 0.138986
H23   H     H_    0.611411 0.914320 0.112439 0.136269
H24   H     H_    0.599833 0.561684 0.846735 0.142118
H25   H     H_    0.656146 0.777159 0.911947 0.141348
N1    N     N_R   0.574690 0.246280 0.438200 -0.246865
N2    N     N_R   0.426100 0.754320 0.561190 -0.233541
O1    O     O_R   0.537340 0.972510 0.318130 -0.517744
O2    O     O_3   0.136151 0.876380 0.297769 -0.663149
O3    O     O_R   0.487200 0.806530 0.359650 -0.477712
O4    O     O_R   0.707380 0.082980 0.479220 -0.507657
O5    O     O_R   0.657240 0.917000 0.520740 -0.533811
O6    O     O_R   0.512800 0.193470 0.640350 -0.495362
O7    O     O_R   0.462660 0.027490 0.681870 -0.511082
O8    O     O_R   0.342760 0.083000 0.479260 -0.550083
O9    O     O_R   0.292620 0.917020 0.520780 -0.418080
O10   O     O_3   0.104816 0.158663 0.703488 -0.623702

loop_
_geom_bond_atom_site_label_1
_geom_bond_atom_site_label_2
_ccdc_geom_bond_type
Cu2   O3    S    
C24   H9    S    
C12   C29   S    
C1    C11   S    
C27   O8    A    
C7    C8    A    
C30   H11   S    
C12   C23   S    
C33   Cl1   S    
C31   H15   S    
C36   C37   A    
C18   C19   A    
C27   O9    A    
C16   C35   S    
C5    C6    A    
C36   H23   S    
C20   C25   A    
Cu2   O9    S    
C37   H25   S    
C16   O7    A    
C23   H13   S    
C4    O5    A    
H17   O10   S    
C25   H6    S    
C31   C33   S    
C10   C35   A    
C15   H8    S    
C23   O10   S    
C4    O4    A    
C29   O2    S    
C22   H4    S    
C33   H16   S    
C21   C22   A    
C14   N2    A    
C10   H19   S    
C17   Cl3   S    
Cu2   O5    S    
C28   H2    S    
Cu1   O4    S    
C12   C27   S    
C23   C30   S    
C28   C32   S    
C3    C8    A    
C28   H1    S    
Cu1   N1    S    
C6    C34   A    
C11   C36   A    
C5    C9    A    
C37   C38   A    
C2    C38   A    
C31   C32   S    
C34   H21   S    
C17   C18   A    
C13   C21   A    
C10   C34   A    
C1    O1    A    
C38   H24   S    
C7    H20   S    
C4    C32   S    
H18   O2    S    
Cu1   O8    S    
Cu2   N2    S    
C22   C24   A    
C13   C26   A    
C2    C5    A    
C25   N1    A    
Cu1   Cu2   S    
C15   C17   A    
C28   C29   S    
C16   O6    A    
C13   H5    S    
C6    C7    A    
Cu2   O7    S    
C30   H12   S    
Cu1   O6    S    
C1    O3    A    
C31   H14   S    
C19   C24   A    
C30   C32   S    
C14   H7    S    
C29   H10   S    
Cu1   O1    S    
C2    C3    A    
C18   C20   A    
C9    H22   S    
C3    C11   A    
C26   H3    S    
C20   C21   A    
C9    C35   A    
C26   N1    A    
C14   C15   A    
C19   N2    A    
C8    Cl2   S    
C12   C33   S    
