data_mof_unit_10315.cif
_audit_creation_date              2012-12-11T14:35:56-0500
_audit_creation_method            fapswitch 2.2
_symmetry_space_group_name_H-M    P1
_symmetry_Int_Tables_number       1
_space_group_crystal_system       triclinic
_cell_length_a                    13.473752
_cell_length_b                    13.49623
_cell_length_c                    27.501006
_cell_angle_alpha                 90.869159
_cell_angle_beta                  90.148266
_cell_angle_gamma                 60.11758
_cell_volume                      4335.47278902

loop_
_atom_site_label
_atom_site_type_symbol
_atom_type_description
_atom_site_fract_x
_atom_site_fract_y
_atom_site_fract_z
_atom_type_partial_charge
C1    C     C_R   0.620259 0.101470 0.570160 0.545092
C2    C     C_1   0.649025 0.705930 0.658598 -0.058849
C3    C     C_3   0.087317 0.139618 0.737948 -0.101902
C4    C     C_R   0.599555 0.779795 0.568839 0.545307
C5    C     C_3   0.177233 0.062269 0.775798 -0.100712
C6    C     C_1   0.097061 0.201138 0.901841 -0.011607
C7    C     C_1   0.230168 0.138166 0.617725 -0.016362
C8    C     C_3   0.057585 0.246161 0.770132 -0.101391
C9    C     C_3   0.147923 0.168642 0.807148 0.051318
C10   C     C_3   0.150447 0.261282 0.743773 -0.098559
C11   C     C_3   0.179781 0.155010 0.712347 0.051951
C12   C     C_1   0.630832 0.732948 0.616551 -0.016384
C13   C     C_3   0.240324 0.184033 0.781489 -0.102530
C14   C     C_3   0.270171 0.077454 0.749332 -0.104522
C15   C     C_1   0.125023 0.181912 0.859622 -0.053786
C16   C     C_R   0.277913 0.121850 0.569752 0.545087
C17   C     C_1   0.202429 0.147209 0.659912 -0.058895
C18   C     C_3   0.620100 0.279606 0.740461 -0.104276
C19   C     C_3   0.555508 0.249561 0.778138 0.133771
C20   C     C_1   0.691121 0.207343 0.903163 -0.008664
C21   C     C_1   0.635294 0.133739 0.618287 -0.015009
C22   C     C_3   0.730693 0.212684 0.771036 -0.126099
C23   C     C_3   0.697997 0.561933 0.767700 -0.102420
C24   C     C_3   0.663236 0.184725 0.808454 0.076391
C25   C     C_3   0.760572 0.100768 0.742764 -0.112915
C26   C     C_3   0.650127 0.167533 0.713124 0.031983
C27   C     C_3   0.693087 0.073198 0.780753 -0.116668
C28   C     C_R   0.621633 0.098559 0.430974 0.541505
C29   C     C_3   0.582303 0.139386 0.750284 -0.073172
C30   C     C_1   0.674349 0.195903 0.860954 -0.037378
C31   C     C_1   0.643411 0.152722 0.660605 -0.059227
C32   C     C_R   0.738920 0.693033 0.360756 -0.147629
C33   C     C_R   0.752424 0.672751 0.310517 0.003575
C34   C     C_3   0.679121 0.654911 0.805585 0.052643
C35   C     C_R   0.768763 0.651997 0.208706 0.005170
C36   C     C_R   0.861863 0.640104 0.236186 -0.139386
C37   C     C_R   0.853631 0.650925 0.286855 -0.142239
C38   C     C_R   0.778293 0.633463 0.158457 -0.134771
C39   C     C_R   0.686499 0.637819 0.132278 -0.001427
C40   C     C_R   0.602047 0.775145 0.430515 0.543498
C41   C     C_R   0.550538 0.710425 0.356137 -0.130170
C42   C     C_R   0.559092 0.699150 0.306132 0.009361
C43   C     C_R   0.659597 0.681955 0.282976 0.061457
C44   C     C_R   0.465601 0.711925 0.278922 -0.139885
C45   C     C_3   0.588964 0.650100 0.740889 -0.099876
C46   C     C_R   0.470704 0.709676 0.228512 -0.139352
C47   C     C_R   0.571094 0.689953 0.205064 0.009312
C48   C     C_R   0.666346 0.675379 0.232232 0.060716
C49   C     C_R   0.580465 0.676020 0.155019 -0.132323
C50   C     C_R   0.635435 0.717634 0.383093 -0.004640
C51   C     C_R   0.214282 0.056238 0.357824 -0.134742
C52   C     C_R   0.277682 0.120652 0.431097 0.546852
C53   C     C_R   0.187839 0.070119 0.308263 0.015268
C54   C     C_R   0.148510 0.095141 0.207552 0.014615
C55   C     C_R   0.166516 0.995325 0.230450 -0.127032
C56   C     C_3   0.662906 0.684330 0.710923 0.052506
C57   C     C_R   0.186966 0.982540 0.280460 -0.125602
C58   C     C_R   0.123753 0.111182 0.157903 -0.132840
C59   C     C_R   0.102995 0.213181 0.136059 -0.002623
C60   C     C_R   0.185824 0.248833 0.362607 -0.127120
C61   C     C_R   0.164853 0.261831 0.313130 0.013116
C62   C     C_R   0.167220 0.171748 0.285591 0.062853
C63   C     C_R   0.147988 0.361180 0.290436 -0.125174
C64   C     C_3   0.771818 0.596548 0.736960 -0.101630
C65   C     C_R   0.135036 0.370788 0.240317 -0.124474
C66   C     C_R   0.135216 0.282740 0.212694 0.013283
C67   C     C_3   0.570294 0.742627 0.779493 -0.101636
C68   C     C_R   0.150620 0.182967 0.235239 0.062969
C69   C     C_R   0.115099 0.295444 0.163133 -0.126510
C70   C     C_R   0.218241 0.143830 0.384486 -0.005412
C71   C     C_R   0.597779 0.234641 0.365733 -0.138087
C72   C     C_R   0.600905 0.255520 0.316195 0.019257
C73   C     C_R   0.612734 0.293720 0.216927 -0.004038
C74   C     C_R   0.573049 0.384681 0.250704 -0.122820
C75   C     C_R   0.567158 0.365749 0.300068 -0.127437
C76   C     C_3   0.753178 0.689118 0.775691 -0.099158
C77   C     C_R   0.626107 0.311042 0.168277 -0.184218
C78   C     C_3   0.644036 0.777325 0.748800 -0.102110
C79   C     C_R   0.675848 0.218312 0.135411 0.039736
C80   C     C_R   0.670586 0.033366 0.347000 -0.123453
C81   C     C_R   0.670811 0.053376 0.297731 0.006701
C82   C     C_R   0.638319 0.164076 0.282088 0.067044
C83   C     C_R   0.701409 0.964489 0.263931 -0.139493
C84   C     C_R   0.707490 0.982573 0.214721 -0.130128
C85   C     C_R   0.684803 0.090261 0.198519 0.011837
C86   C     C_R   0.644459 0.182856 0.232397 0.029557
C87   C     C_R   0.703018 0.108126 0.149675 0.227528
C88   C     C_1   0.697122 0.607821 0.900134 -0.013297
C89   C     C_1   0.688086 0.633831 0.857960 -0.057099
C90   C     C_R   0.634893 0.123180 0.381004 0.007512
C91   C     C_R   0.049259 0.236175 0.949759 0.545975
C92   C     C_R   0.711616 0.562834 0.948156 0.547290
C93   C     C_R   0.722069 0.225317 0.950999 0.551425
C94   C     C_R   0.047707 0.245692 0.088591 0.545856
C95   C     C_R   0.707767 0.575749 0.086155 0.546364
C96   C     C_R   0.718089 0.234771 0.089244 0.590713
Cr1   Cr    Cr6+3 0.417550 0.169090 0.500530 1.023551
Cr2   Cr    Cr6+3 0.669180 0.913420 0.499920 1.021098
Cr3   Cr    Cr6+3 0.413260 0.917540 0.499520 1.019652
Cr4   Cr    Cr6+3 0.909170 0.177380 0.020380 1.043962
Cr5   Cr    Cr6+3 0.912710 0.429210 0.018220 1.026627
Cr6   Cr    Cr6+3 0.657170 0.432570 0.019030 1.026558
H1    H     H_    0.820345 0.705588 0.790597 0.105952
H2    H     H_    0.859960 0.605648 0.140699 0.125425
H3    H     H_    0.854429 0.536277 0.719016 0.103698
H4    H     H_    0.805253 0.696804 0.381714 0.118158
H5    H     H_    0.940622 0.622960 0.218456 0.100651
H6    H     H_    0.925576 0.643717 0.307421 0.106759
H7    H     H_    0.508662 0.682142 0.134598 0.129804
H8    H     H_    0.397595 0.719793 0.207928 0.104372
H9    H     H_    0.388052 0.725349 0.296641 0.097415
H10   H     H_    0.471254 0.726523 0.373192 0.130140
H11   H     H_    0.115055 0.047243 0.136958 0.124539
H12   H     H_    0.303428 0.201865 0.799807 0.134281
H13   H     H_    0.238590 0.975242 0.374706 0.121900
H14   H     H_    0.164967 0.927218 0.209702 0.103725
H15   H     H_    0.621778 0.866277 0.740432 0.100456
H16   H     H_    0.201821 0.904432 0.297404 0.099428
H17   H     H_    0.099652 0.374292 0.146582 0.130521
H18   H     H_    0.123768 0.447457 0.223209 0.098812
H19   H     H_    0.147234 0.430333 0.311303 0.102369
H20   H     H_    0.186722 0.317625 0.383153 0.132121
H21   H     H_    0.606746 0.395418 0.156850 0.135559
H22   H     H_    0.566889 0.304119 0.392239 0.106956
H23   H     H_    0.139041 0.343274 0.730097 0.105821
H24   H     H_    0.548668 0.470020 0.238999 0.125012
H25   H     H_    0.537653 0.436896 0.325628 0.111158
H26   H     H_    0.487632 0.802883 0.797409 0.104748
H27   H     H_    0.730745 0.911168 0.190000 0.130694
H28   H     H_    0.721206 0.880717 0.275667 0.132283
H29   H     H_    0.694202 0.948065 0.358855 0.131501
H30   H     H_    0.521753 0.633594 0.726055 0.103646
H31   H     H_    0.720159 0.473012 0.776065 0.097626
H32   H     H_    0.188658 0.980343 0.789557 0.105390
H33   H     H_    0.024200 0.121833 0.719609 0.103386
H34   H     H_    0.969761 0.315908 0.779244 0.100515
H35   H     H_    0.358003 0.007801 0.740172 0.102158
H36   H     H_    0.386235 0.361155 0.769207 0.219895
H37   H     H_    0.448416 0.398935 0.813044 0.231202
H38   H     H_    0.809104 0.950606 0.131201 0.314681
H39   H     H_    0.588985 0.364567 0.723947 0.099827
H40   H     H_    0.519676 0.111075 0.741514 0.101000
H41   H     H_    0.723061 0.988701 0.797534 0.105318
H42   H     H_    0.846061 0.039236 0.727455 0.110153
H43   H     H_    0.792424 0.242005 0.780027 0.099861
N1    N     N_3   0.443336 0.329815 0.798262 -0.635987
O1    O     O_R   0.301710 0.195650 0.554160 -0.508278
O2    O     O_R   0.635520 0.542770 0.964420 -0.506587
O3    O     O_R   0.665950 0.325030 0.970100 -0.493679
O4    O     O_R   0.522390 0.158990 0.550460 -0.495765
O5    O     O_R   0.816620 0.158530 0.074540 -0.466279
O6    O     O_R   0.004460 0.188870 0.069750 -0.504221
O7    O     O_R   0.025800 0.341780 0.072300 -0.521729
O8    O     O_R   0.807650 0.528950 0.067500 -0.501748
O9    O     O_R   0.633420 0.550490 0.071810 -0.523889
O10   O     O_R   0.664000 0.332180 0.069640 -0.517475
O11   O     O_3   0.826350 0.346390 0.019210 -0.254714
O12   O     O_R   0.658900 0.818120 0.449760 -0.504525
O13   O     O_R   0.694390 0.003530 0.554040 -0.506190
O14   O     O_R   0.657700 0.819660 0.549320 -0.494605
O15   O     O_R   0.501930 0.803280 0.552920 -0.507685
O16   O     O_R   0.318170 0.023580 0.549580 -0.494514
O17   O     O_R   0.303010 0.193990 0.446760 -0.519108
O18   O     O_R   0.523600 0.157450 0.450900 -0.496060
O19   O     O_R   0.695690 0.001860 0.446640 -0.519128
O20   O     O_3   0.749617 0.020531 0.115396 -0.686964
O21   O     O_R   0.503220 0.801620 0.445520 -0.524098
O22   O     O_R   0.319370 0.022040 0.450020 -0.502188
O23   O     O_3   0.499990 0.000010 0.499990 -0.245653
O24   O     O_R   0.818720 0.150820 0.967160 -0.501929
O25   O     O_R   0.006410 0.181720 0.970200 -0.497603
O26   O     O_R   0.027890 0.334070 0.964920 -0.503505
O27   O     O_R   0.809600 0.521790 0.967960 -0.493489

loop_
_geom_bond_atom_site_label_1
_geom_bond_atom_site_label_2
_ccdc_geom_bond_type
C66   C68   A    
C20   C93   S    
C63   C65   A    
H37   N1    S    
C1    C21   S    
C23   C45   S    
C8    H34   S    
C41   C42   A    
C54   C55   A    
C93   O3    A    
C35   C36   A    
C18   C26   S    
C24   C27   S    
C2    C12   T    
C79   C87   A    
C81   C82   A    
Cr1   O23   S    
C64   H3    S    
C47   C49   A    
C20   C30   T    
C85   C86   A    
Cr4   O6    S    
C21   C31   T    
C91   O26   A    
C16   O1    A    
C40   O12   A    
C36   C37   A    
C76   C78   S    
C38   C39   A    
C11   C14   S    
C66   C69   A    
C54   C68   A    
C55   H14   S    
C24   C30   S    
C94   O6    A    
C6    C91   S    
C84   H27   S    
C56   C78   S    
C27   C29   S    
Cr5   O26   S    
C18   C19   S    
C73   C74   A    
C61   C63   A    
C9    C13   S    
C40   O21   A    
C38   H2    S    
Cr6   O2    S    
C6    C15   T    
Cr3   O15   S    
Cr2   O23   S    
Cr5   O27   S    
Cr4   O11   S    
C88   C92   S    
C45   C56   S    
C8    C9    S    
Cr1   O17   S    
C41   H10   S    
C45   C67   S    
C58   H11   S    
C27   H41   S    
Cr1   O4    S    
C56   C64   S    
C26   C29   S    
C59   C94   S    
Cr5   O7    S    
C4    C12   S    
C10   H23   S    
C43   C48   A    
C22   H43   S    
C75   H25   S    
C13   H12   S    
C23   C34   S    
C76   H1    S    
C85   C87   A    
Cr5   O11   S    
C26   C31   S    
C80   H29   S    
C32   H4    S    
C13   C14   S    
Cr4   O25   S    
Cr1   O1    S    
C67   C78   S    
C42   C44   A    
C72   C75   A    
C35   C48   A    
Cr6   O11   S    
C63   H19   S    
C44   C46   A    
Cr3   O21   S    
C77   C79   A    
Cr4   O5    S    
H38   O20   S    
C5    H32   S    
C93   O24   A    
C19   N1    S    
C74   C75   A    
C23   H31   S    
Cr4   O24   S    
C33   C43   A    
Cr2   O12   S    
C71   H22   S    
C1    O13   A    
C78   H15   S    
C52   C70   S    
C84   C85   A    
C37   H6    S    
C3    C8    S    
C53   C57   A    
Cr6   O3    S    
C7    C17   T    
C25   C26   S    
C82   C86   A    
C96   O5    A    
C22   C25   S    
C51   H13   S    
C60   C61   A    
C51   C53   A    
C5    C9    S    
C77   H21   S    
Cr3   O16   S    
C53   C62   A    
C47   C48   A    
C14   H35   S    
C60   C70   A    
Cr1   O18   S    
C39   C95   S    
C35   C38   A    
C64   C76   S    
C1    O4    A    
C88   C89   T    
C60   H20   S    
C32   C50   A    
C5    C14   S    
C28   O19   A    
C59   C69   A    
C23   C64   S    
C51   C70   A    
Cr2   O14   S    
C83   H28   S    
C74   H24   S    
C55   C57   A    
C22   C24   S    
C83   C84   A    
C25   H42   S    
C42   C43   A    
C19   C29   S    
Cr6   O10   S    
C41   C50   A    
C28   O18   A    
C49   H7    S    
Cr3   O22   S    
C54   C58   A    
C46   C47   A    
C11   C17   S    
C39   C49   A    
C18   C22   S    
C18   H39   S    
C7    C16   S    
C80   C81   A    
C3    C5    S    
C10   C13   S    
C34   C67   S    
C81   C83   A    
Cr3   O23   S    
C91   O25   A    
C92   O27   A    
C25   C27   S    
C62   C68   A    
C95   O8    A    
C16   O16   A    
C32   C33   A    
C46   H8    S    
C19   C24   S    
C58   C59   A    
C34   C89   S    
C71   C72   A    
C2    C56   S    
C67   H26   S    
C52   O22   A    
C4    O14   A    
C92   O2    A    
C96   O10   A    
C71   C90   A    
Cr5   O8    S    
H36   N1    S    
C94   O7    A    
C40   C50   S    
C29   H40   S    
C65   H18   S    
C69   H17   S    
C3    H33   S    
C95   O9    A    
C80   C90   A    
C61   C62   A    
C33   C37   A    
C73   C86   A    
Cr2   O19   S    
C3    C11   S    
C10   C11   S    
C52   O17   A    
C87   O20   S    
C44   H9    S    
C79   C96   S    
Cr2   O13   S    
C45   H30   S    
C8    C10   S    
C65   C66   A    
C73   C77   A    
C4    O15   A    
C28   C90   S    
Cr6   O9    S    
C72   C82   A    
C9    C15   S    
C34   C76   S    
C57   H16   S    
C36   H5    S    
