data_mof_unit_53244.cif
_audit_creation_date              2012-12-11T17:07:26-0500
_audit_creation_method            fapswitch 2.2
_symmetry_space_group_name_H-M    P1
_symmetry_Int_Tables_number       1
_space_group_crystal_system       triclinic
_cell_length_a                    6.994367
_cell_length_b                    14.475509
_cell_length_c                    16.200165
_cell_angle_alpha                 90.076135
_cell_angle_beta                  89.104322
_cell_angle_gamma                 90.721951
_cell_volume                      1639.88681618

loop_
_atom_site_label
_atom_site_type_symbol
_atom_type_description
_atom_site_fract_x
_atom_site_fract_y
_atom_site_fract_z
_atom_type_partial_charge
O1    O     O_R   0.505720 0.583900 0.413310 -0.546045
O2    O     O_R   0.175940 0.594920 0.586080 -0.549886
O3    O     O_R   0.005640 0.416100 0.586690 -0.533811
C1    C     C_R   0.344910 0.616247 0.615467 0.678741
O4    O     O_R   0.176000 0.594930 0.413930 -0.550682
O5    O     O_R   0.005700 0.416110 0.413310 -0.542227
C2    C     C_R   0.346807 0.618894 0.386748 0.647435
O6    O     O_R   0.505660 0.583890 0.586690 -0.545910
O7    O     O_3   0.339200 0.441330 0.500000 -0.347567
V1    V     V_3+5 0.064350 0.510880 0.500000 1.394858
O8    O     O_R   0.675980 0.405080 0.413920 -0.519088
C3    C     C_R   0.845197 0.384699 0.384055 0.777710
O9    O     O_R   0.675920 0.405070 0.586070 -0.514880
C4    C     C_R   0.842211 0.380770 0.612965 0.796404
V2    V     V_3+5 0.564340 0.489120 0.500000 1.467784
O10   O     O_3   0.839360 0.558670 0.500000 -0.400310
H1    H     H_    0.962455 0.064160 0.509543 0.148120
C5    C     C_R   0.745621 0.431442 0.780095 -0.234389
C6    C     C_R   0.731880 0.465122 0.860132 -0.208065
C7    C     C_R   0.803647 0.414746 0.925438 0.311877
C8    C     C_R   0.870425 0.324640 0.911472 0.261936
C9    C     C_R   0.856613 0.283146 0.831868 -0.010473
C10   C     C_R   0.814278 0.341791 0.763957 0.024781
C11   C     C_R   0.894476 0.187804 0.817191 -0.105370
C12   C     C_R   0.924902 0.157259 0.734636 -0.020736
C13   C     C_R   0.885077 0.216465 0.666820 0.009206
C14   C     C_R   0.841660 0.311053 0.681539 -0.120885
C15   C     C_R   0.998008 0.068149 0.718187 -0.236589
C16   C     C_R   0.026467 0.036113 0.637313 0.297705
C17   C     C_R   0.960461 0.089755 0.572226 -0.165174
C18   C     C_R   0.883886 0.176643 0.586653 0.305232
H2    H     H_    0.699116 0.476192 0.731162 0.125115
H3    H     H_    0.673005 0.532802 0.870872 0.156632
H4    H     H_    0.038398 0.023066 0.768005 0.112761
C19   C     C_R   0.712716 0.197139 0.230104 -0.014372
C20   C     C_R   0.875238 0.190336 0.179299 -0.059492
C21   C     C_R   0.028832 0.249854 0.197167 -0.124123
H5    H     H_    0.151591 0.250701 0.157019 0.172392
C22   C     C_R   0.019113 0.313174 0.263156 -0.221680
H6    H     H_    0.135337 0.362241 0.270948 0.120150
C23   C     C_R   0.858429 0.315239 0.316679 -0.115878
C24   C     C_R   0.710596 0.251363 0.301718 0.182216
C25   C     C_3   0.503338 0.270619 0.294973 0.081229
C26   C     C_3   0.512326 0.224891 0.209568 0.044280
H7    H     H_    0.473299 0.345900 0.294933 0.084528
H8    H     H_    0.412423 0.165938 0.199346 0.122027
C27   C     C_R   0.512410 0.683467 0.740402 0.029526
C28   C     C_R   0.354236 0.679508 0.688211 -0.097827
C29   C     C_R   0.200560 0.736091 0.709471 -0.192821
H9    H     H_    0.080892 0.738329 0.669288 0.180288
C30   C     C_R   0.209340 0.797437 0.776845 -0.125551
H10   H     H_    0.093601 0.845140 0.786104 0.147946
C31   C     C_R   0.373172 0.804162 0.826150 -0.143102
C32   C     C_R   0.518235 0.739665 0.811091 0.033498
C33   C     C_3   0.729023 0.757395 0.802731 0.115186
C34   C     C_3   0.717874 0.704918 0.720703 0.068536
H11   H     H_    0.769370 0.831590 0.798561 0.136272
H12   H     H_    0.805584 0.641496 0.716690 0.084696
C35   C     C_R   0.520194 0.695174 0.266497 0.081161
C36   C     C_R   0.360158 0.688848 0.319187 -0.078067
C37   C     C_R   0.205854 0.746031 0.301143 -0.188872
H13   H     H_    0.085444 0.747379 0.343006 0.139616
C38   C     C_R   0.211894 0.806320 0.232793 -0.178667
H14   H     H_    0.095472 0.853658 0.224646 0.120227
C39   C     C_R   0.372468 0.810068 0.179077 -0.073310
C40   C     C_R   0.520856 0.748055 0.194078 0.053664
C41   C     C_3   0.728208 0.770121 0.199658 -0.453040
C42   C     C_3   0.720325 0.726903 0.284995 0.133785
H15   H     H_    0.760401 0.845486 0.198718 0.180182
H16   H     H_    0.813849 0.729575 0.154317 0.142235
H17   H     H_    0.822533 0.669762 0.294027 0.100036
O11   O     O_R   0.229140 0.916090 0.913340 -0.535977
O12   O     O_R   0.558860 0.905090 0.086080 -0.548513
O13   O     O_R   0.729100 0.083920 0.086690 -0.545614
C43   C     C_R   0.388160 0.881632 0.113449 0.678218
O14   O     O_R   0.558860 0.905090 0.913930 -0.553939
O15   O     O_R   0.729100 0.083920 0.913310 -0.541140
C44   C     C_R   0.389259 0.879622 0.888288 0.686632
O16   O     O_R   0.229140 0.916080 0.086720 -0.544541
O17   O     O_3   0.395570 0.058660 0.000020 -0.369214
V3    V     V_3+5 0.670450 0.989140 0.000000 1.377475
O18   O     O_R   0.058810 0.094980 0.913910 -0.511233
C45   C     C_R   0.892804 0.118382 0.886155 0.787793
O19   O     O_R   0.058810 0.094980 0.086060 -0.532860
C46   C     C_R   0.888887 0.118730 0.113405 0.753269
V4    V     V_3+5 0.170450 0.010950 0.999970 1.435666
O20   O     O_3   0.895460 0.941370 0.999990 -0.384143
N1    N     N_2   0.391032 0.221614 0.358367 -0.465766
H18   H     H_    0.261944 0.250963 0.373547 0.277268
C47   C     C_3   0.390127 0.121526 0.362957 -0.451454
H19   H     H_    0.332255 0.099880 0.424194 0.204178
H20   H     H_    0.536865 0.093915 0.356405 0.206183
H21   H     H_    0.296440 0.091564 0.314882 0.151018
N2    N     N_2   0.510116 0.295833 0.145310 -0.544429
H22   H     H_    0.420057 0.350121 0.158051 0.246396
C48   C     C_3   0.492789 0.265042 0.060888 -0.423241
H23   H     H_    0.464772 0.325072 0.020382 0.192107
H24   H     H_    0.372332 0.215518 0.055127 0.237886
H25   H     H_    0.627078 0.233845 0.038861 0.227062
N3    N     N_2   0.841542 0.708876 0.863823 -0.536396
H26   H     H_    0.906113 0.648051 0.846704 0.259876
C49   C     C_3   0.786714 0.715271 0.950102 -0.502501
H27   H     H_    0.909756 0.697102 0.988822 0.181992
H28   H     H_    0.664750 0.667716 0.964032 0.188735
H29   H     H_    0.747930 0.786190 0.966965 0.238260
N4    N     N_2   0.746233 0.764378 0.648564 -0.522278
H30   H     H_    0.772494 0.728219 0.594937 0.265122
C50   C     C_3   0.634042 0.847066 0.636914 -0.503504
H31   H     H_    0.718301 0.897760 0.599823 0.214716
H32   H     H_    0.595083 0.881492 0.695652 0.187561
H33   H     H_    0.502535 0.829428 0.603082 0.184413
N5    N     N_2   0.726099 0.799929 0.347153 -0.500884
H34   H     H_    0.828567 0.850365 0.335498 0.246825
C51   C     C_3   0.724614 0.772149 0.432445 -0.524319
H35   H     H_    0.755642 0.833333 0.470992 0.176973
H36   H     H_    0.835770 0.719942 0.443332 0.200854
H37   H     H_    0.581411 0.746614 0.451760 0.205337
N6    N     N_2   0.813317 0.457100 0.004650 -0.515419
H38   H     H_    0.775998 0.413992 0.053021 0.303333
C52   C     C_3   0.989170 0.507792 0.019592 -0.510278
H39   H     H_    0.968527 0.554066 0.073619 0.178733
H40   H     H_    0.031789 0.550088 0.965057 0.199522
H41   H     H_    0.106781 0.459660 0.033333 0.234030
Cl1   Cl    Cl    0.014561 0.277975 0.988307 -0.774813
N7    N     N_2   0.112002 0.947874 0.624508 -0.509217
H42   H     H_    0.216769 0.933287 0.666302 0.256790
C53   C     C_3   0.157237 0.916573 0.541547 -0.564810
H43   H     H_    0.208375 0.844413 0.543562 0.186879
H44   H     H_    0.270577 0.961263 0.513318 0.199857
H45   H     H_    0.028278 0.915732 0.502857 0.193585
Cl2   Cl    Cl    0.750372 0.220277 0.505319 -0.699143

loop_
_geom_bond_atom_site_label_1
_geom_bond_atom_site_label_2
_ccdc_geom_bond_type
C33   C34   S    
C38   C39   A    
C16   N7    S    
C23   C24   A    
C6    C7    A    
C1    O6    A    
C7    N6    S    
C51   H35   S    
C22   C23   A    
C31   C32   A    
C12   C15   A    
C13   C14   A    
C16   C17   A    
C25   N1    S    
C20   C21   A    
C11   C45   S    
O19   V4    S    
C35   C40   A    
O5    C3    A    
C17   C18   A    
C49   H28   S    
N4    H30   S    
O15   C45   A    
V2    O10   S    
C48   H25   S    
C50   H31   S    
C49   H29   S    
C5    C6    A    
C42   N5    S    
C37   C38   A    
C19   C24   A    
N6    H38   S    
O17   V4    S    
C49   H27   S    
O8    V2    S    
C19   C20   A    
C52   H40   S    
C29   C30   A    
C48   H24   S    
C33   N3    S    
C18   Cl2   S    
O1    V2    S    
C10   C14   A    
C4    C14   S    
O7    V1    S    
C52   H41   S    
C40   C41   S    
C15   H4    S    
C35   C36   A    
C8    C9    A    
H1    C17   S    
O12   C43   A    
N2    H22   S    
O12   V3    S    
N5    H34   S    
C26   H8    S    
C34   H12   S    
C41   C42   S    
C11   C12   A    
C6    H3    S    
C22   H6    S    
O4    C2    A    
V4    O20   S    
C12   C13   A    
O18   V4    S    
O18   C45   A    
C5    C10   A    
C36   C37   A    
C41   H15   S    
O2    C1    A    
C25   C26   S    
C53   H44   S    
C21   H5    S    
C35   C42   S    
C47   H20   S    
C27   C28   A    
O15   V3    S    
C48   H23   S    
C7    C8    A    
N3    C49   S    
O19   C46   A    
N2    C48   S    
C19   C26   S    
C25   H7    S    
C34   N4    S    
V3    O20   S    
O3    C4    A    
C27   C32   A    
N5    C51   S    
C28   C29   A    
N1    C47   S    
C39   C40   A    
O6    V2    S    
C33   H11   S    
N7    H42   S    
C9    C11   A    
C5    H2    S    
C24   C25   S    
O13   V3    S    
C53   H43   S    
O2    V1    S    
C2    C36   S    
C52   H39   S    
C47   H21   S    
C1    C28   S    
C32   C33   S    
C15   C16   A    
O1    C2    A    
C13   C18   A    
O14   C44   A    
O17   V3    S    
O14   V3    S    
O5    V1    S    
C51   H36   S    
O8    C3    A    
C3    C23   S    
C20   C46   S    
C39   C43   S    
C50   H33   S    
C41   H16   S    
C8    Cl1   S    
O9    V2    S    
C31   C44   S    
O7    V2    S    
C53   H45   S    
C30   H10   S    
C21   C22   A    
O3    V1    S    
V1    O10   S    
C47   H19   S    
N4    C50   S    
C42   H17   S    
N3    H26   S    
C50   H32   S    
O13   C46   A    
C37   H13   S    
N6    C52   S    
C51   H37   S    
C26   N2    S    
C38   H14   S    
O4    V1    S    
N1    H18   S    
C29   H9    S    
O11   C44   A    
N7    C53   S    
C9    C10   A    
O11   V4    S    
C30   C31   A    
O9    C4    A    
C43   O16   A    
O16   V4    S    
C27   C34   S    
