data_mof_unit_43555.cif
_audit_creation_date              2013-03-05T15:55:36-0500
_audit_creation_method            fapswitch 2.2
_symmetry_space_group_name_H-M    P1
_symmetry_Int_Tables_number       1
_space_group_crystal_system       triclinic
_cell_length_a                    12.393561
_cell_length_b                    13.142147
_cell_length_c                    15.874074
_cell_angle_alpha                 76.387899
_cell_angle_beta                  101.212729
_cell_angle_gamma                 116.705176
_cell_volume                      2233.12066457

loop_
_atom_site_label
_atom_site_type_symbol
_atom_site_description
_atom_site_fract_x
_atom_site_fract_y
_atom_site_fract_z
_atom_type_partial_charge
O1    O     O_R   0.972520 0.318130 0.524690 -0.552172
O2    O     O_R   0.806530 0.359650 0.491530 -0.592173
C1    C     C_R   0.855390 0.285763 0.506591 0.839840
O3    O     O_R   0.083030 0.479240 0.637150 -0.566621
O4    O     O_R   0.917040 0.520750 0.603990 -0.593260
C2    C     C_R   0.999831 0.499571 0.659507 0.779800
Cu1   Cu    Cu3+1 0.098280 0.475420 0.519630 1.078598
Cu2   Cu    Cu3+1 0.901720 0.524580 0.480370 1.072104
O5    O     O_R   0.193470 0.640350 0.508470 -0.551095
O6    O     O_R   0.027480 0.681870 0.475310 -0.506718
O7    O     O_R   0.082960 0.479250 0.396010 -0.535668
O8    O     O_R   0.916970 0.520760 0.362850 -0.515128
C3    C     C_R   0.144570 0.714298 0.492081 0.863770
C4    C     C_R   0.000516 0.500866 0.340479 0.881417
C5    C     C_3   0.090130 0.442396 0.976027 0.517129
C6    C     C_3   0.877358 0.429216 0.946706 -0.460927
C7    C     C_3   0.876669 0.439227 0.041871 -0.376961
H1    H     H_    0.038725 0.352003 0.110720 0.201264
H2    H     H_    0.809451 0.455628 0.902960 0.255476
H3    H     H_    0.845267 0.336906 0.941820 0.244631
H4    H     H_    0.833632 0.350873 0.080192 0.229285
H5    H     H_    0.819887 0.484187 0.043770 0.281526
C8    C     C_1   0.001639 0.502260 0.250895 0.008091
C9    C     C_3   0.007530 0.502399 0.917488 -0.164914
C10   C     C_3   0.084669 0.441344 0.075658 0.075907
C11   C     C_3   0.007806 0.505111 0.083456 -0.117128
C12   C     C_3   0.065409 0.631292 0.032682 0.168974
C13   C     C_3   0.048788 0.631160 0.931863 0.485693
C14   C     C_1   0.003838 0.503616 0.175506 0.151499
C15   C     C_1   0.003179 0.500945 0.824741 0.154013
C16   C     C_1   0.000792 0.500238 0.749035 -0.019532
H6    H     H_    0.164131 0.666785 0.054772 0.209358
C17   C     C_R   0.274279 0.040032 0.427616 -0.098204
H7    H     H_    0.242438 0.105348 0.395726 0.228468
C18   C     C_R   0.226492 0.838939 0.487089 -0.160401
C19   C     C_R   0.816316 0.076503 0.556749 0.254235
C20   C     C_R   0.732082 0.964673 0.586019 0.380829
C21   C     C_R   0.608737 0.936069 0.569173 -0.187110
C22   C     C_R   0.564490 0.012785 0.512877 0.002591
C23   C     C_R   0.649413 0.123546 0.477316 -0.093340
C24   C     C_R   0.438280 0.982329 0.490346 0.083157
C25   C     C_R   0.398837 0.066160 0.440094 -0.105059
C26   C     C_R   0.483267 0.170587 0.398108 0.261154
C27   C     C_R   0.606329 0.192937 0.410064 0.331366
C28   C     C_R   0.349983 0.869089 0.512243 -0.157866
C29   C     C_R   0.188253 0.928169 0.453381 0.416556
C30   C     C_R   0.774540 0.160354 0.509191 -0.211971
H8    H     H_    0.375152 0.800580 0.545099 0.201714
H9    H     H_    0.550323 0.852082 0.600829 0.198108
C31   C     C_R   0.336080 0.313949 0.634078 0.307476
H10   H     H_    0.159569 0.298809 0.646428 0.215920
H11   H     H_    0.542534 0.282390 0.666158 0.205169
N1    N     N_R   0.246300 0.438200 0.549400 -0.274168
C32   C     C_R   0.752073 0.639239 0.376494 0.509845
C33   C     C_R   0.644166 0.650084 0.340894 0.199875
C34   C     C_R   0.541148 0.585304 0.384436 -0.145131
C35   C     C_R   0.545802 0.520083 0.467546 0.013987
C36   C     C_R   0.652116 0.500537 0.496597 0.226787
C37   C     C_R   0.444034 0.466081 0.518632 -0.076264
C38   C     C_R   0.440188 0.375390 0.588403 0.011314
C39   C     C_R   0.541592 0.350043 0.612216 -0.167406
C40   C     C_R   0.646394 0.413951 0.569525 -0.133819
C41   C     C_R   0.347955 0.501999 0.504996 0.456190
C42   C     C_R   0.239641 0.345988 0.611947 0.049106
N2    N     N_R   0.754300 0.561180 0.451130 -0.255829
H12   H     H_    0.456822 0.584755 0.350937 0.248878
H13   H     H_    0.719665 0.390035 0.594433 0.184733
Cl1   Cl    Cl    0.244558 0.516598 0.947519 -0.335939
Cl2   Cl    Cl    0.231067 0.493539 0.138944 -0.389998
Cl3   Cl    Cl    0.020255 0.729188 0.063320 -0.351699
Cl4   Cl    Cl    0.036249 0.907533 0.444012 -0.407187
N3    N     N_R   0.443173 0.248602 0.336308 0.153361
O9    O     O_R   0.433782 0.248519 0.253271 -0.200718
O10   O     O_R   0.406571 0.312873 0.363181 -0.354356
N4    N     N_R   0.943363 0.103811 0.575817 0.155681
O11   O     O_R   0.989503 0.086197 0.655860 -0.244514
O12   O     O_R   0.009817 0.133137 0.512444 -0.280290
Cl5   Cl    Cl    0.778317 0.857128 0.645621 -0.367537
N5    N     N_R   0.045843 0.323256 0.958208 0.141912
O13   O     O_R   0.063775 0.307706 0.884967 -0.262401
O14   O     O_R   0.987857 0.231957 0.013269 -0.290187
Cl6   Cl    Cl    0.698537 0.292000 0.328180 -0.517077
Cl7   Cl    Cl    0.321281 0.195792 0.718731 -0.426785
N6    N     N_R   0.367513 0.615226 0.457697 0.112194
O15   O     O_R   0.303383 0.628363 0.384208 -0.318971
O16   O     O_R   0.464614 0.703928 0.479394 -0.383976
Cl8   Cl    Cl    0.878892 0.717745 0.316448 -0.383143
N7    N     N_R   0.636719 0.724121 0.259403 0.183522
O17   O     O_R   0.719105 0.829895 0.244850 -0.202422
O18   O     O_R   0.538635 0.692287 0.205404 -0.209781
Cl9   Cl    Cl    0.192359 0.730453 0.890084 -0.393022
N8    N     N_R   0.958673 0.675286 0.883889 0.186848
O19   O     O_R   0.967628 0.722897 0.802220 -0.218348
O20   O     O_R   0.860272 0.652905 0.916593 -0.262130

loop_
_geom_bond_atom_site_label_1
_geom_bond_atom_site_label_2
_geom_bond_distance
_ccdc_geom_bond_type
C36   C40   1.406924 A    
C23   C30   1.425031 A    
C33   C34   1.386329 A    
C26   N3    1.433677 S    
C31   C42   1.395959 A    
C24   C25   1.416977 A    
N4    O11   1.301141 A    
Cu1   Cu2   2.715680 S    
C22   C24   1.421948 A    
C32   N2    1.377494 A    
Cu1   O7    1.925255 S    
C11   C12   1.561986 S    
C40   H13   1.066834 S    
C7    C11   1.553679 S    
C8    C14   1.198101 T    
C19   C20   1.397820 A    
N6    O16   1.301032 A    
C3    C18   1.481797 S    
C27   Cl6   1.770433 S    
H11   C39   1.082102 S    
C32   Cl8   1.762280 S    
N1    C42   1.355297 A    
C5    C10   1.592659 S    
C34   C35   1.400405 A    
C19   C30   1.421815 A    
C33   N7    1.438921 S    
O5    C3    1.314720 A    
C5    N5    1.486106 S    
C6    C7    1.548884 S    
C6    H3    1.111106 S    
C2    C16   1.420973 S    
Cu2   N2    2.034683 S    
C6    C9    1.558616 S    
C17   C29   1.393925 A    
H1    C10   1.107857 S    
O3    Cu1   1.925654 S    
C31   Cl7   1.763061 S    
C21   C22   1.413523 A    
N6    O15   1.300139 A    
N3    O10   1.300176 A    
C22   C23   1.418658 A    
N5    O14   1.302200 A    
C10   C11   1.561187 S    
C7    H4    1.113498 S    
C38   C39   1.401978 A    
O1    C1    1.308095 A    
C4    C8    1.420560 S    
C26   C27   1.399812 A    
C20   C21   1.386198 A    
C19   N4    1.434420 S    
C36   N2    1.391933 A    
C23   C27   1.419207 A    
C15   C16   1.198483 T    
Cu2   O8    1.925654 S    
N8    O20   1.301996 A    
C17   H7    1.082168 S    
C13   N8    1.485621 S    
N4    O12   1.301270 A    
C29   Cl4   1.759386 S    
C12   Cl3   1.803464 S    
O3    C2    1.301981 A    
C5    C9    1.594999 S    
O8    C4    1.302542 A    
C10   Cl2   1.807943 S    
C25   C26   1.404480 A    
C17   C25   1.406006 A    
C18   C28   1.396633 A    
C21   H9    1.075702 S    
C28   H8    1.071489 S    
Cu1   O5    1.929656 S    
C32   C33   1.402736 A    
C24   C28   1.404917 A    
C12   H6    1.111169 S    
O1    Cu1   1.945116 S    
O2    Cu2   1.929656 S    
H10   C42   1.080416 S    
C9    C13   1.592404 S    
N7    O18   1.301522 A    
N3    O9    1.300739 A    
O6    C3    1.306011 A    
O4    Cu2   1.925255 S    
C20   Cl5   1.763177 S    
C37   C41   1.429834 A    
C7    H5    1.111593 S    
C41   N6    1.434393 S    
C31   C38   1.412202 A    
O2    C1    1.315172 A    
N1    C41   1.380163 A    
C35   C36   1.423684 A    
O4    C2    1.302501 A    
C6    H2    1.110338 S    
C34   H12   1.074226 S    
C5    Cl1   1.808423 S    
C1    C30   1.490591 S    
N8    O19   1.302402 A    
O7    C4    1.301732 A    
C13   Cl9   1.809251 S    
C39   C40   1.394871 A    
C9    C15   1.467077 S    
C35   C37   1.440296 A    
N5    O13   1.302307 A    
C37   C38   1.413377 A    
N7    O17   1.301205 A    
C11   C14   1.466790 S    
Cu2   O6    1.945116 S    
C12   C13   1.573695 S    
Cu1   N1    2.046592 S    
C18   C29   1.411251 A    
