data_mof_unit_57988.cif
_audit_creation_date              2013-03-05T16:06:01-0500
_audit_creation_method            fapswitch 2.2
_symmetry_space_group_name_H-M    P1
_symmetry_Int_Tables_number       1
_space_group_crystal_system       triclinic
_cell_length_a                    10.698228
_cell_length_b                    15.076693
_cell_length_c                    15.760086
_cell_angle_alpha                 81.87843
_cell_angle_beta                  91.016075
_cell_angle_gamma                 106.642949
_cell_volume                      2410.39714667

loop_
_atom_site_label
_atom_site_type_symbol
_atom_site_description
_atom_site_fract_x
_atom_site_fract_y
_atom_site_fract_z
_atom_type_partial_charge
O1    O     O_R   0.462600 0.383110 0.605620 -0.593594
O2    O     O_R   0.537400 0.616890 0.394380 -0.592669
O3    O     O_R   0.510210 0.531900 0.639510 -0.528968
O4    O     O_R   0.489790 0.468100 0.360490 -0.531296
C1    C     C_R   0.471839 0.441570 0.661404 0.979606
C2    C     C_R   0.528016 0.558389 0.338576 0.980090
O5    O     O_R   0.662240 0.425610 0.483080 -0.577592
O6    O     O_R   0.337760 0.574390 0.516920 -0.575181
O7    O     O_R   0.709860 0.574400 0.516970 -0.602639
O8    O     O_R   0.290140 0.425600 0.483030 -0.600273
C3    C     C_R   0.743057 0.503124 0.498273 1.040947
C4    C     C_R   0.256947 0.497210 0.500951 1.038861
Zn1   Zn    Zn3+2 0.468210 0.400660 0.477370 1.099706
Zn2   Zn    Zn3+2 0.531790 0.599340 0.522630 1.100168
C5    C     C_3   0.939168 0.454808 0.572526 0.073583
C6    C     C_3   0.060783 0.545928 0.425959 0.096506
C7    C     C_3   0.061837 0.539561 0.564941 0.316208
C8    C     C_3   0.938143 0.461392 0.433274 0.317903
C9    C     C_3   0.121490 0.494455 0.499712 -0.369715
C10   C     C_3   0.878531 0.506316 0.498626 -0.365446
C11   C     C_3   0.997671 0.410219 0.507641 0.145006
C12   C     C_3   0.002154 0.590337 0.490561 0.167713
C13   C     C_R   0.447836 0.407155 0.753683 -0.290312
C14   C     C_R   0.552165 0.592851 0.246332 -0.283839
C15   C     C_R   0.477268 0.293932 0.870352 -0.161784
C16   C     C_R   0.526393 0.707838 0.129891 -0.166368
C17   C     C_R   0.440747 0.314058 0.786300 0.447701
C18   C     C_R   0.561004 0.686433 0.214188 0.446760
C19   C     C_R   0.446648 0.470869 0.811491 0.256891
C20   C     C_R   0.552233 0.529230 0.188056 0.253356
C21   C     C_R   0.467212 0.446567 0.899346 -0.075925
C22   C     C_R   0.535335 0.555468 0.100024 -0.076816
C23   C     C_R   0.502419 0.362887 0.924555 -0.064067
C24   C     C_R   0.501664 0.639640 0.075018 -0.063230
C25   C     C_R   0.468513 0.507138 0.961039 0.046218
C26   C     C_R   0.535049 0.495732 0.037917 0.048765
C27   C     C_R   0.599168 0.425283 0.050095 -0.216486
C28   C     C_R   0.405046 0.578100 0.949095 -0.213537
C29   C     C_R   0.568553 0.352125 0.000935 0.499843
C30   C     C_R   0.436334 0.651137 0.998443 0.495239
H1    H     H_    0.489372 0.225458 0.891986 0.218333
H2    H     H_    0.515118 0.776628 0.108648 0.217404
H3    H     H_    0.671208 0.424912 0.098799 0.175220
H4    H     H_    0.331929 0.578791 0.901205 0.183033
N1    N     N_R   0.574200 0.731700 0.552740 -0.171731
N2    N     N_R   0.425800 0.268300 0.447260 -0.171588
C31   C     C_R   0.717795 0.855184 0.617361 -0.237670
C32   C     C_R   0.282793 0.145242 0.381829 -0.235864
C33   C     C_R   0.684260 0.764616 0.597957 0.477109
C34   C     C_R   0.316199 0.235654 0.401584 0.484321
C35   C     C_R   0.503317 0.789980 0.519772 -0.013989
C36   C     C_R   0.496126 0.209718 0.480549 -0.019131
C37   C     C_R   0.543383 0.886640 0.529146 -0.033112
C38   C     C_R   0.455899 0.113104 0.470877 -0.031580
C39   C     C_R   0.645317 0.915637 0.586308 -0.088492
C40   C     C_R   0.354555 0.084469 0.413269 -0.090200
C41   C     C_R   0.484342 0.954261 0.486542 -0.094607
C42   C     C_R   0.514394 0.045256 0.513605 -0.092442
C43   C     C_R   0.599220 0.064089 0.583644 0.221323
C44   C     C_R   0.399051 0.935359 0.416671 0.219899
C45   C     C_R   0.671648 0.003132 0.614248 0.276624
C46   C     C_R   0.327696 0.996867 0.385538 0.276396
H5    H     H_    0.583481 0.239991 0.513064 0.216893
H6    H     H_    0.415515 0.759307 0.487945 0.217456
H7    H     H_    0.802441 0.877975 0.656153 0.217575
H8    H     H_    0.198448 0.122715 0.342718 0.218703
O9    O     O_3   0.134315 0.583233 0.631154 -0.539697
C47   C     C_3   0.050187 0.595756 0.693628 0.236216
H9    H     H_    0.032685 0.536328 0.746615 0.178766
H10   H     H_    0.954231 0.599878 0.668081 0.190340
C48   C     C_3   0.113910 0.685810 0.730294 -0.667096
H11   H     H_    0.140719 0.745978 0.678029 0.289206
H12   H     H_    0.044811 0.698364 0.775769 0.216900
H13   H     H_    0.202945 0.680789 0.765245 0.248330
O10   O     O_3   0.869141 0.425105 0.362570 -0.548239
C49   C     C_3   0.945457 0.384760 0.316289 0.240889
H14   H     H_    0.911652 0.307697 0.334008 0.212659
H15   H     H_    0.051823 0.409577 0.328087 0.184960
C50   C     C_3   0.927694 0.407340 0.220420 -0.713622
H16   H     H_    0.942995 0.483621 0.202120 0.283994
H17   H     H_    0.999627 0.385629 0.184418 0.224386
H18   H     H_    0.828539 0.368606 0.202395 0.249749
N3    N     N_R   0.228629 0.290103 0.376901 0.208161
O11   O     O_R   0.267066 0.366310 0.322730 -0.343174
O12   O     O_R   0.104069 0.249186 0.386433 -0.429264
N4    N     N_R   0.771445 0.709938 0.623201 0.208435
O13   O     O_R   0.732445 0.634094 0.677784 -0.343955
O14   O     O_R   0.896167 0.750390 0.613773 -0.411833
N5    N     N_R   0.590846 0.131453 0.637222 0.206475
O15   O     O_R   0.504118 0.104487 0.699262 -0.357011
O16   O     O_R   0.691540 0.202903 0.643447 -0.239786
N6    N     N_R   0.404630 0.866432 0.364141 0.206629
O17   O     O_R   0.302710 0.795245 0.359985 -0.247264
O18   O     O_R   0.489169 0.891698 0.300823 -0.351124
N7    N     N_R   0.875165 0.404172 0.653262 0.249116
O19   O     O_R   0.936522 0.358779 0.707027 -0.306176
O20   O     O_R   0.759287 0.406988 0.673636 -0.363218
N8    N     N_R   0.123997 0.595620 0.344739 0.264253
O21   O     O_R   0.060629 0.637885 0.289612 -0.300562
O22   O     O_R   0.240886 0.594311 0.325065 -0.358877
N9    N     N_R   0.991123 0.311521 0.520091 0.291455
O23   O     O_R   0.884757 0.250638 0.501394 -0.328522
O24   O     O_R   0.075178 0.282944 0.568827 -0.353412
N10   N     N_R   0.008067 0.688878 0.478649 0.299153
O25   O     O_R   0.109739 0.749203 0.504006 -0.312751
O26   O     O_R   0.928984 0.718459 0.426078 -0.357081
O27   O     O_3   0.619773 0.277077 0.019889 -0.613056
C51   C     C_3   0.568009 0.225266 0.099711 0.095769
H19   H     H_    0.459690 0.210062 0.103451 0.186874
H20   H     H_    0.612193 0.263515 0.153279 0.185886
C52   C     C_3   0.600063 0.132372 0.111005 -0.696544
H21   H     H_    0.707500 0.144711 0.109183 0.255616
H22   H     H_    0.560128 0.091238 0.173725 0.245664
H23   H     H_    0.556176 0.091673 0.058934 0.260325
O28   O     O_3   0.384954 0.726107 0.979908 -0.610590
C53   C     C_3   0.440403 0.779990 0.901723 0.092791
H24   H     H_    0.403275 0.741959 0.846745 0.185982
H25   H     H_    0.549101 0.798219 0.901728 0.183594
C54   C     C_3   0.402241 0.870620 0.889072 -0.700064
H26   H     H_    0.439011 0.911206 0.942492 0.261779
H27   H     H_    0.445167 0.913370 0.827621 0.248497
H28   H     H_    0.294350 0.855072 0.887220 0.253276
N11   N     N_R   0.550400 0.434536 0.219542 0.204813
O29   O     O_R   0.450817 0.365070 0.205921 -0.386369
O30   O     O_R   0.646338 0.417835 0.264447 -0.385476
N12   N     N_R   0.441062 0.563547 0.779130 0.201549
O31   O     O_R   0.340867 0.575124 0.736064 -0.393083
O32   O     O_R   0.539273 0.635901 0.787914 -0.388095
O33   O     O_3   0.591285 0.755469 0.266357 -0.532102
C55   C     C_3   0.728765 0.788026 0.270173 0.125228
H29   H     H_    0.772063 0.822912 0.205925 0.144577
H30   H     H_    0.771249 0.729596 0.292754 0.174902
C56   C     C_3   0.766837 0.858834 0.332895 -0.586983
H31   H     H_    0.720792 0.827283 0.396828 0.241501
H32   H     H_    0.874336 0.880532 0.339436 0.255566
H33   H     H_    0.736016 0.922059 0.309242 0.249793
O34   O     O_3   0.409091 0.244087 0.735104 -0.531764
C57   C     C_3   0.271692 0.214964 0.728757 0.127590
H34   H     H_    0.234134 0.274423 0.701426 0.174151
H35   H     H_    0.224444 0.184692 0.792935 0.144201
C58   C     C_3   0.232126 0.140280 0.669883 -0.586445
H36   H     H_    0.256395 0.075981 0.698867 0.248913
H37   H     H_    0.125324 0.122105 0.660283 0.255636
H38   H     H_    0.282913 0.166510 0.606604 0.242523
N13   N     N_R   0.760302 0.025826 0.682720 0.226472
O35   O     O_R   0.865317 0.096029 0.669496 -0.290744
O36   O     O_R   0.734102 0.977966 0.758938 -0.383918
N14   N     N_R   0.239216 0.974365 0.316939 0.226990
O37   O     O_R   0.266368 0.021692 0.240566 -0.380262
O38   O     O_R   0.133217 0.905012 0.330280 -0.293583

loop_
_geom_bond_atom_site_label_1
_geom_bond_atom_site_label_2
_geom_bond_distance
_ccdc_geom_bond_type
C28   C30   1.396807 A    
C8    O10   1.413383 S    
C8    C11   1.540763 S    
C37   C39   1.412541 A    
N7    O19   1.300376 A    
C49   C50   1.521966 S    
O7    Zn2   2.050444 S    
N10   O26   1.299238 A    
N13   O35   1.300281 A    
N11   O29   1.301631 A    
C31   C33   1.385717 A    
C53   H24   1.111313 S    
C29   O27   1.386930 S    
C23   C29   1.398675 A    
C24   C30   1.398337 A    
C22   C26   1.420078 A    
C26   C27   1.410879 A    
C9    C11   1.542910 S    
C49   H15   1.112529 S    
C58   H37   1.108938 S    
C5    N7    1.458674 S    
Zn1   N2    2.038272 S    
N4    O14   1.299891 A    
N11   O30   1.299844 A    
C30   O28   1.386344 S    
N1    C35   1.362274 A    
O28   C53   1.413230 S    
N2    C36   1.362755 A    
C12   N10   1.454038 S    
C51   H19   1.115947 S    
C44   C46   1.395383 A    
C18   O33   1.379659 S    
C43   N5    1.431654 S    
O4    Zn1   1.957463 S    
C45   N13   1.436407 S    
C21   C25   1.422180 A    
C16   C24   1.400842 A    
C25   C26   1.408858 A    
C51   H20   1.111745 S    
C47   H9    1.110511 S    
C56   H33   1.109764 S    
O6    Zn2   2.003526 S    
O27   C51   1.413754 S    
C21   C23   1.420097 A    
C13   C17   1.405925 A    
N5    O16   1.300734 A    
C40   C46   1.399723 A    
C11   N9    1.454629 S    
C32   C34   1.385511 A    
N9    O24   1.299283 A    
C46   N14   1.436425 S    
C19   N12   1.435786 S    
O2    C2    1.314072 A    
N10   O25   1.300244 A    
N13   O36   1.301276 A    
C36   C38   1.425311 A    
C34   N3    1.428384 S    
O5    C3    1.289791 A    
Zn2   N1    2.038273 S    
C54   H27   1.110903 S    
C6    C9    1.543426 S    
C5    C10   1.544849 S    
C27   C29   1.396297 A    
C38   C40   1.412055 A    
C3    C10   1.436226 S    
C7    O9    1.413032 S    
C43   C45   1.395379 A    
O9    C47   1.412949 S    
N9    O23   1.300192 A    
C25   C28   1.412721 A    
N14   O37   1.301269 A    
O4    C2    1.301096 A    
C58   H38   1.109451 S    
C15   H1    1.083677 S    
C50   H17   1.110649 S    
C37   C41   1.431638 A    
N4    O13   1.297351 A    
C41   C44   1.424945 A    
C42   C43   1.424083 A    
C36   H5    1.071939 S    
C35   C37   1.424811 A    
C22   C24   1.418099 A    
C27   H3    1.078640 S    
C55   H30   1.115481 S    
O10   C49   1.414048 S    
C28   H4    1.078478 S    
C48   H13   1.107852 S    
N3    O11   1.297195 A    
C1    C13   1.474427 S    
N1    C33   1.369652 A    
O6    C4    1.289796 A    
C2    C14   1.474176 S    
N6    O18   1.298509 A    
C52   H22   1.110952 S    
C51   C52   1.520956 S    
C17   O34   1.380111 S    
C49   H14   1.109008 S    
N12   O32   1.301554 A    
O7    C3    1.295964 A    
O3    Zn2   1.957463 S    
O8    C4    1.296463 A    
C6    C8    1.537891 S    
N3    O12   1.299579 A    
C10   C12   1.539734 S    
N8    O22   1.299962 A    
C56   H31   1.110015 S    
O1    C1    1.313576 A    
C55   C56   1.522334 S    
O1    Zn1   2.000773 S    
C57   C58   1.521904 S    
C13   C19   1.416904 A    
C16   H2    1.083692 S    
C31   C39   1.391673 A    
O33   C55   1.414022 S    
C38   C42   1.431274 A    
C54   H28   1.110776 S    
C32   C40   1.391252 A    
C6    C12   1.527789 S    
C52   H21   1.110722 S    
C33   N4    1.429144 S    
C35   H6    1.071344 S    
C14   C18   1.406969 A    
N14   O38   1.300236 A    
O3    C1    1.301657 A    
O8    Zn1   2.050442 S    
C50   H18   1.108300 S    
C54   H26   1.110816 S    
N7    O20   1.299940 A    
C47   C48   1.523013 S    
C57   H35   1.114632 S    
C15   C17   1.391203 A    
O34   C57   1.414556 S    
N2    C34   1.369267 A    
C16   C18   1.391444 A    
C7    C12   1.538752 S    
C53   C54   1.520910 S    
C55   H29   1.114931 S    
C48   H11   1.109893 S    
C19   C21   1.411303 A    
C58   H36   1.109370 S    
C20   C22   1.411038 A    
C6    N8    1.458302 S    
C41   C42   1.440567 A    
C5    C11   1.532078 S    
N12   O31   1.299244 A    
C39   C45   1.400086 A    
C4    C9    1.437671 S    
N6    O17   1.300798 A    
C7    C9    1.547896 S    
C53   H25   1.115687 S    
C52   H23   1.110845 S    
C8    C10   1.547276 S    
O2    Zn2   2.000769 S    
C14   C20   1.418757 A    
C57   H34   1.114307 S    
C50   H16   1.110295 S    
O5    Zn1   2.003527 S    
C20   N11   1.438408 S    
C47   H10   1.111130 S    
N8    O21   1.300223 A    
C48   H12   1.110501 S    
C56   H32   1.109086 S    
C32   H8    1.083227 S    
N5    O15   1.298438 A    
C5    C7    1.539846 S    
C44   N6    1.431508 S    
C31   H7    1.083221 S    
C15   C23   1.401945 A    
