data_mof_unit_51539.cif
_audit_creation_date              2012-12-10T18:05:11-0500
_audit_creation_method            fapswitch 2.2
_symmetry_space_group_name_H-M    P1
_symmetry_Int_Tables_number       1
_space_group_crystal_system       triclinic
_cell_length_a                    9.582837
_cell_length_b                    10.826519
_cell_length_c                    17.081614
_cell_angle_alpha                 86.566369
_cell_angle_beta                  93.948405
_cell_angle_gamma                 90.026873
_cell_volume                      1764.80430859

loop_
_atom_site_label
_atom_site_type_symbol
_atom_type_description
_atom_site_fract_x
_atom_site_fract_y
_atom_site_fract_z
_atom_type_partial_charge
C1    C     C_R   0.500193 0.262150 0.502003 0.766164
C2    C     C_R   0.500519 0.737408 0.503401 0.735087
C3    C     C_R   0.376509 0.934795 0.516475 -0.226197
C4    C     C_R   0.627561 0.063680 0.505893 -0.156174
C5    C     C_R   0.501582 0.870882 0.509502 -0.012122
C6    C     C_R   0.500962 0.127915 0.506799 -0.020175
C7    C     C_R   0.080178 0.412758 0.545324 0.409483
C8    C     C_R   0.918640 0.576666 0.447400 0.388995
C9    C     C_R   0.930571 0.412545 0.545073 0.425032
C10   C     C_R   0.068609 0.578499 0.448702 0.385026
C11   C     C_R   0.517226 0.506996 0.650611 0.876892
C12   C     C_R   0.482657 0.501319 0.349001 0.952186
C13   C     C_R   0.525602 0.527560 0.735873 -0.426349
C14   C     C_R   0.472614 0.501754 0.262498 -0.402952
C15   C     C_R   0.404740 0.559574 0.773549 0.274742
C16   C     C_R   0.577470 0.445540 0.222335 0.276579
C17   C     C_R   0.410301 0.562819 0.855329 0.486212
C18   C     C_R   0.563550 0.446379 0.139755 0.452010
C19   C     C_R   0.538288 0.542480 0.900440 0.010982
C20   C     C_R   0.449680 0.507366 0.097446 0.033105
C21   C     C_R   0.661436 0.530286 0.861851 0.324250
C22   C     C_R   0.343793 0.558680 0.137698 0.302802
C23   C     C_R   0.654800 0.521077 0.780386 0.420999
C24   C     C_R   0.357819 0.559532 0.219521 0.432821
C25   C     C_R   0.375733 0.062786 0.514095 -0.169698
C26   C     C_R   0.627821 0.935814 0.508154 -0.199683
Cu1   Cu    Cu3+1 0.640660 0.500020 0.500000 1.033001
Cu2   Cu    Cu3+1 0.359340 0.499980 0.500000 1.025151
H1    H     H_    0.277179 0.110260 0.517530 0.198944
H2    H     H_    0.726725 0.888379 0.508550 0.142440
H3    H     H_    0.279366 0.886354 0.523599 0.138249
H4    H     H_    0.726264 0.111786 0.502682 0.195951
N1    N     N_2   0.548955 0.536128 0.983954 -0.087657
N2    N     N_2   0.436206 0.514685 0.014327 -0.056925
N3    N     N_R   0.852070 0.500030 0.499980 -0.267979
N4    N     N_R   0.147930 0.499970 0.500020 -0.275305
O1    O     O_R   0.618740 0.319660 0.500000 -0.536793
O2    O     O_R   0.381260 0.680340 0.500000 -0.589081
O3    O     O_R   0.381170 0.319630 0.500010 -0.548676
O4    O     O_R   0.618830 0.680370 0.499990 -0.590696
O5    O     O_R   0.631780 0.498870 0.613920 -0.530543
O6    O     O_R   0.368220 0.501130 0.386080 -0.500986
O7    O     O_R   0.394210 0.498840 0.613930 -0.552957
O8    O     O_R   0.605790 0.501160 0.386070 -0.507680
O9    O     O_3   0.684702 0.379834 0.264905 -0.539048
C27   C     C_3   0.816045 0.429440 0.247070 -0.071707
H5    H     H_    0.814061 0.531941 0.235530 0.157929
H6    H     H_    0.856204 0.384294 0.196471 0.183970
H7    H     H_    0.891633 0.408457 0.298291 0.175462
O10   O     O_3   0.278815 0.585313 0.731381 -0.530220
C28   C     C_3   0.273940 0.712835 0.708954 -0.196587
H8    H     H_    0.361533 0.740739 0.672183 0.127920
H9    H     H_    0.274678 0.769433 0.761264 0.175154
H10   H     H_    0.174874 0.732867 0.672922 0.163467
F1    F     F_    0.656548 0.382931 0.100858 -0.619941
F2    F     F_    0.290705 0.588754 0.889591 -0.606114
O11   O     O_3   0.788762 0.517174 0.904702 -0.501306
C29   C     C_3   0.853950 0.633969 0.905185 -0.152367
H11   H     H_    0.796382 0.697888 0.940278 0.131685
H12   H     H_    0.864194 0.675898 0.844706 0.178081
H13   H     H_    0.961397 0.622091 0.932997 0.211493
O12   O     O_3   0.231461 0.617891 0.096334 -0.502178
C30   C     C_3   0.115227 0.537929 0.097382 -0.127072
H14   H     H_    0.132209 0.456422 0.062432 0.167587
H15   H     H_    0.022096 0.588807 0.070255 0.176136
H16   H     H_    0.090720 0.507063 0.158249 0.152503
F3    F     F_    0.776108 0.508661 0.745509 -0.660345
F4    F     F_    0.260692 0.620959 0.256241 -0.603641
O13   O     O_3   0.152782 0.307482 0.574474 -0.556684
C31   C     C_3   0.190046 0.311381 0.655689 -0.210242
H17   H     H_    0.140951 0.232540 0.687599 0.141770
H18   H     H_    0.161342 0.398518 0.682008 0.194099
H19   H     H_    0.304438 0.296583 0.666025 0.176408
O14   O     O_3   0.842207 0.622423 0.380131 -0.542696
C32   C     C_3   0.817241 0.750608 0.380726 -0.211401
H20   H     H_    0.853715 0.796471 0.326174 0.161416
H21   H     H_    0.867158 0.795353 0.432352 0.096232
H22   H     H_    0.703009 0.767600 0.377210 0.182844
O15   O     O_3   0.864667 0.305888 0.571662 -0.562891
C33   C     C_3   0.860206 0.298162 0.654097 -0.152536
H23   H     H_    0.749844 0.302433 0.669280 0.197094
H24   H     H_    0.921418 0.370166 0.684844 0.193031
H25   H     H_    0.900080 0.205989 0.677099 0.138910
O16   O     O_3   0.132387 0.636257 0.386310 -0.471188
C34   C     C_3   0.143342 0.765115 0.393747 -0.078170
H26   H     H_    0.253512 0.793043 0.388065 0.185405
H27   H     H_    0.107800 0.797881 0.449666 0.043333
H28   H     H_    0.084587 0.814340 0.343280 0.155934

loop_
_geom_bond_atom_site_label_1
_geom_bond_atom_site_label_2
_ccdc_geom_bond_type
C30   H15   S    
C5    C26   A    
C7    N4    A    
C34   H26   S    
C27   H7    S    
C22   C24   A    
C19   C21   A    
C6    C25   A    
C23   F3    S    
C13   C23   A    
C7    C9    A    
C9    O15   S    
C15   O10   S    
C14   C24   A    
C2    O2    A    
C12   O6    A    
C10   O16   S    
Cu1   O8    S    
C11   O7    A    
C31   H17   S    
C1    O1    A    
C20   N2    S    
C29   H13   S    
C30   H16   S    
C33   H25   S    
O10   C28   S    
C34   H27   S    
C25   H1    S    
C27   H6    S    
O14   C32   S    
C28   H8    S    
C3    C25   A    
O16   C34   S    
C4    C6    A    
C19   N1    S    
C1    O3    A    
Cu2   O3    S    
Cu1   N3    S    
C29   H11   S    
O9    C27   S    
O15   C33   S    
C28   H9    S    
C8    N3    A    
C32   H20   S    
C21   O11   S    
O12   C30   S    
C22   O12   S    
Cu1   O5    S    
Cu2   O2    S    
Cu1   O4    S    
C31   H19   S    
C8    O14   S    
N1    N2    D    
C16   C18   A    
C3    H3    S    
C32   H21   S    
C17   F2    S    
C4    H4    S    
C18   F1    S    
C33   H24   S    
C12   C14   S    
C26   H2    S    
C13   C15   A    
C14   C16   A    
C2    C5    S    
C34   H28   S    
C15   C17   A    
C27   H5    S    
C1    C6    S    
C20   C22   A    
C33   H23   S    
C3    C5    A    
C16   O9    S    
C7    O13   S    
C4    C26   A    
Cu2   O7    S    
C28   H10   S    
C21   C23   A    
C12   O8    A    
C11   C13   S    
O11   C29   S    
Cu1   O1    S    
Cu2   O6    S    
C17   C19   A    
C10   N4    A    
C11   O5    A    
C18   C20   A    
O13   C31   S    
C32   H22   S    
C24   F4    S    
C30   H14   S    
C2    O4    A    
Cu2   N4    S    
C8    C10   A    
Cu1   Cu2   S    
C9    N3    A    
C31   H18   S    
C29   H12   S    
