data_mof_unit_46788.cif
_audit_creation_date              2012-12-10T19:47:58-0500
_audit_creation_method            fapswitch 2.2
_symmetry_space_group_name_H-M    P1
_symmetry_Int_Tables_number       1
_space_group_crystal_system       triclinic
_cell_length_a                    15.005449
_cell_length_b                    14.114659
_cell_length_c                    10.811141
_cell_angle_alpha                 90.242402
_cell_angle_beta                  89.83202
_cell_angle_gamma                 90.002451
_cell_volume                      2289.73468858

loop_
_atom_site_label
_atom_site_type_symbol
_atom_type_description
_atom_site_fract_x
_atom_site_fract_y
_atom_site_fract_z
_atom_type_partial_charge
C1    C     C_R   0.327677 0.499995 0.500106 0.867986
C2    C     C_R   0.672290 0.500006 0.500150 0.877332
C3    C     C_R   0.048026 0.500181 0.503016 0.117811
C4    C     C_R   0.951834 0.499958 0.503025 0.118854
C5    C     C_R   0.419885 0.104571 0.502060 -0.285365
C6    C     C_R   0.561454 0.894573 0.427496 -0.287328
C7    C     C_R   0.580249 0.104651 0.496208 -0.295675
C8    C     C_R   0.438687 0.895270 0.571800 -0.281181
C9    C     C_R   0.421306 0.204066 0.501546 -0.004051
C10   C     C_R   0.560112 0.795080 0.428865 -0.010919
C11   C     C_R   0.578739 0.204177 0.497092 0.018848
C12   C     C_R   0.439991 0.795759 0.570998 0.003843
C13   C     C_R   0.500085 0.053010 0.499274 0.141715
C14   C     C_R   0.500079 0.946509 0.499503 0.138287
C15   C     C_R   0.498417 0.499630 0.259394 0.911436
C16   C     C_R   0.499325 0.500353 0.740033 0.962922
C17   C     C_R   0.461993 0.676535 0.109504 0.173075
C18   C     C_R   0.414876 0.343598 0.885051 0.160922
C19   C     C_R   0.565729 0.664157 0.894790 0.155643
C20   C     C_R   0.512635 0.319439 0.102232 0.181798
C21   C     C_R   0.497741 0.758583 0.056634 -0.182656
C22   C     C_R   0.417655 0.254702 0.942069 -0.230211
C23   C     C_R   0.555178 0.751472 0.955554 -0.253058
C24   C     C_R   0.472000 0.241193 0.044619 -0.217849
C25   C     C_R   0.518763 0.583691 0.939950 0.044551
C26   C     C_R   0.492811 0.412168 0.057968 0.012921
C27   C     C_R   0.488653 0.586579 0.061322 0.002064
C28   C     C_R   0.465642 0.419284 0.935783 0.032492
C29   C     C_R   0.495045 0.501211 0.872122 -0.203584
C30   C     C_R   0.493183 0.499042 0.126342 -0.225275
C31   C     C_R   0.093923 0.580070 0.460710 -0.178467
C32   C     C_R   0.906158 0.420898 0.457198 -0.180686
C33   C     C_R   0.905546 0.578987 0.548087 -0.184395
C34   C     C_R   0.094091 0.420248 0.544399 -0.184022
C35   C     C_R   0.185914 0.580188 0.460276 -0.206288
C36   C     C_R   0.814179 0.420694 0.456880 -0.204559
C37   C     C_R   0.813562 0.579245 0.546474 -0.197657
C38   C     C_R   0.186061 0.419918 0.542634 -0.195121
C39   C     C_R   0.231931 0.499998 0.500907 -0.014734
C40   C     C_R   0.767976 0.500011 0.501089 -0.018650
H1    H     H_    0.482237 0.170128 0.079148 0.142817
H2    H     H_    0.588267 0.814233 0.920980 0.145634
H3    H     H_    0.381155 0.195442 0.903395 0.142978
H4    H     H_    0.481112 0.827667 0.094059 0.148191
H5    H     H_    0.058632 0.641652 0.426849 0.130615
H6    H     H_    0.941616 0.360051 0.420524 0.128756
H7    H     H_    0.940526 0.639885 0.585227 0.129542
H8    H     H_    0.058942 0.358644 0.578766 0.128006
H9    H     H_    0.220921 0.642171 0.426738 0.151687
H10   H     H_    0.779316 0.359417 0.420555 0.142655
H11   H     H_    0.778193 0.640557 0.582020 0.149762
H12   H     H_    0.221132 0.357785 0.575162 0.138879
H13   H     H_    0.356297 0.068342 0.502608 0.133014
H14   H     H_    0.609309 0.930474 0.369041 0.133479
H15   H     H_    0.643865 0.068487 0.495096 0.133159
H16   H     H_    0.390820 0.931753 0.630019 0.134343
H17   H     H_    0.358942 0.242251 0.502241 0.121586
H18   H     H_    0.607024 0.755703 0.372509 0.136123
H19   H     H_    0.641035 0.242482 0.495297 0.127944
H20   H     H_    0.392985 0.756927 0.627421 0.134756
N1    N     N_R   0.500000 0.252470 0.500000 -0.085489
N2    N     N_R   0.500000 0.747530 0.500000 -0.106396
O1    O     O_R   0.369060 0.579480 0.500010 -0.639263
O2    O     O_R   0.630940 0.420520 0.499990 -0.635127
O3    O     O_R   0.630940 0.579480 0.499990 -0.628721
O4    O     O_R   0.369060 0.420520 0.500010 -0.638207
O5    O     O_R   0.499990 0.579480 0.316780 -0.639534
O6    O     O_R   0.500010 0.420520 0.683220 -0.610235
O7    O     O_R   0.500010 0.579480 0.683220 -0.614975
O8    O     O_R   0.499990 0.420520 0.316780 -0.583502
Zn1   Zn    Zn3+2 0.500000 0.606140 0.500000 0.924959
Zn2   Zn    Zn3+2 0.500000 0.393860 0.500000 0.951488
N3    N     N_3   0.387179 0.687258 0.191853 -0.461346
H21   H     H_    0.357863 0.621837 0.211582 0.186995
H22   H     H_    0.408552 0.719099 0.273974 0.216786
N4    N     N_3   0.353320 0.359317 0.786163 -0.448008
H23   H     H_    0.288966 0.348653 0.820703 0.163710
H24   H     H_    0.364470 0.307585 0.718484 0.194760
N5    N     N_3   0.631391 0.655569 0.798768 -0.445659
H25   H     H_    0.693590 0.671175 0.837119 0.163236
H26   H     H_    0.618379 0.707128 0.731972 0.205516
N6    N     N_3   0.583741 0.303818 0.188698 -0.415797
H27   H     H_    0.643134 0.324512 0.145870 0.162427
H28   H     H_    0.589887 0.231756 0.209112 0.167687

loop_
_geom_bond_atom_site_label_1
_geom_bond_atom_site_label_2
_ccdc_geom_bond_type
C20   N6    S    
N3    H21   S    
C19   C23   A    
C7    H15   S    
C2    O3    A    
C8    H16   S    
C7    C11   A    
C23   H2    S    
C9    N1    A    
C32   C36   A    
C5    H13   S    
C28   C29   A    
C10   H18   S    
N4    H24   S    
C37   C40   A    
C38   C39   A    
C37   H11   S    
C38   H12   S    
O7    Zn1   S    
O4    Zn2   S    
C20   C24   A    
C35   H9    S    
C8    C14   A    
C16   O6    A    
C5    C13   A    
O6    Zn2   S    
C34   C38   A    
C13   C14   S    
C27   C30   A    
C17   N3    S    
C24   H1    S    
N3    H22   S    
C10   N2    A    
C6    H14   S    
C11   H19   S    
C1    O1    A    
C2    O2    A    
C25   C29   A    
C17   C27   A    
C36   C40   A    
C18   C28   A    
N4    H23   S    
C9    H17   S    
N5    H26   S    
C3    C34   A    
C16   C29   S    
O3    Zn1   S    
C33   C37   A    
C35   C39   A    
C5    C9    A    
C6    C14   A    
C21   H4    S    
C12   N2    A    
C22   H3    S    
C8    C12   A    
C15   O5    A    
C1    O4    A    
C3    C31   A    
C4    C32   A    
N1    Zn2   S    
O1    Zn1   S    
C26   C30   A    
N6    H28   S    
C21   C23   A    
C33   H7    S    
C22   C24   A    
C34   H8    S    
C3    C4    S    
C36   H10   S    
C15   C30   S    
C15   O8    A    
C4    C33   A    
C18   N4    S    
C18   C22   A    
C32   H6    S    
C16   O7    A    
C11   N1    A    
C6    C10   A    
C25   C27   A    
C26   C28   A    
C20   C26   A    
C31   C35   A    
N2    Zn1   S    
O5    Zn1   S    
O2    Zn2   S    
C19   C25   A    
C17   C21   A    
C1    C39   S    
N5    H25   S    
C12   H20   S    
C2    C40   S    
C7    C13   A    
N6    H27   S    
C31   H5    S    
O8    Zn2   S    
C19   N5    S    
