data_mof_unit_53210.cif
_audit_creation_date              2012-10-26T21:05:21-0400
_audit_creation_method            fapswitch 2.2
_symmetry_space_group_name_H-M    P1
_symmetry_Int_Tables_number       1
_space_group_crystal_system       triclinic
_cell_length_a                    9.644362
_cell_length_b                    10.763469
_cell_length_c                    13.862485
_cell_angle_alpha                 92.574163
_cell_angle_beta                  85.559385
_cell_angle_gamma                 89.33893
_cell_volume                      1433.08972415

loop_
_atom_site_label
_atom_site_type_symbol
_atom_type_description
_atom_site_fract_x
_atom_site_fract_y
_atom_site_fract_z
_atom_type_partial_charge
C1    C     C_R   0.499342 0.737085 0.500194 0.529289
C2    C     C_R   0.555736 0.931663 0.419739 -0.012738
C3    C     C_R   0.557512 0.061402 0.423612 -0.137292
C4    C     C_R   0.478040 0.500621 0.682664 0.530951
C5    C     C_R   0.500383 0.129588 0.505110 -0.009444
C6    C     C_R   0.868013 0.306087 0.402454 -0.083754
C7    C     C_R   0.933278 0.190220 0.392800 -0.180497
C8    C     C_R   0.073588 0.181861 0.406532 -0.137662
C9    C     C_R   0.148843 0.292712 0.405590 0.084472
C10   C     C_R   0.080101 0.402164 0.451877 0.162449
C11   C     C_R   0.931163 0.404951 0.451276 0.139455
C12   C     C_1   0.465595 0.500509 0.785724 -0.028402
C13   C     C_R   0.920116 0.591420 0.546313 -0.006177
C14   C     C_R   0.067663 0.591784 0.545847 -0.010292
C15   C     C_R   0.500407 0.263086 0.501345 0.517549
C16   C     C_R   0.522108 0.501592 0.317431 0.520615
C17   C     C_1   0.534950 0.503743 0.214483 -0.039613
C18   C     C_2   0.557376 0.506848 0.024245 -0.123851
C19   C     C_2   0.443186 0.500060 0.976097 -0.126955
C20   C     C_1   0.454601 0.500327 0.872526 -0.055249
C21   C     C_1   0.546072 0.505416 0.127756 -0.065041
C22   C     C_3   0.243250 0.295660 0.312161 -0.222179
C23   C     C_R   0.384171 0.880295 0.668565 -0.109391
C24   C     C_3   0.193312 0.390466 0.242578 -0.417658
C25   C     C_3   0.611940 0.855033 0.329305 -0.257150
C26   C     C_3   0.651803 0.928035 0.239350 -0.458102
C27   C     C_R   0.328555 0.949719 0.750075 -0.123847
C28   C     C_R   0.328637 0.078965 0.750931 -0.119629
C29   C     C_R   0.384612 0.139398 0.670355 -0.092776
C30   C     C_R   0.440811 0.070742 0.586730 0.024236
C31   C     C_R   0.440297 0.939711 0.585461 0.010032
C32   C     C_R   0.497942 0.871540 0.501856 0.003613
Cu1   Cu    Cu3+1 0.359340 0.500010 0.500010 0.917224
Cu2   Cu    Cu3+1 0.640660 0.499990 0.499990 0.918728
H1    H     H_    0.340796 0.493947 0.014078 0.125023
H2    H     H_    0.088863 0.364471 0.220389 0.132843
H3    H     H_    0.185628 0.485953 0.276234 0.179774
H4    H     H_    0.266281 0.390261 0.176650 0.132164
H5    H     H_    0.353851 0.300924 0.325333 0.173969
H6    H     H_    0.243198 0.204856 0.270155 0.101881
H7    H     H_    0.659759 0.512911 0.986224 0.135027
H8    H     H_    0.561866 0.984552 0.219867 0.148793
H9    H     H_    0.741591 0.988785 0.251539 0.138293
H10   H     H_    0.682848 0.861877 0.177447 0.145871
H11   H     H_    0.704890 0.800956 0.346650 0.171041
H12   H     H_    0.769899 0.315211 0.372103 0.170154
H13   H     H_    0.531155 0.787860 0.309208 0.150292
H14   H     H_    0.285885 0.902990 0.813003 0.111796
H15   H     H_    0.286062 0.132649 0.814506 0.113402
H16   H     H_    0.878727 0.109494 0.367111 0.119425
H17   H     H_    0.125827 0.093468 0.387221 0.117080
H18   H     H_    0.117149 0.666906 0.583946 0.119767
H19   H     H_    0.383348 0.780121 0.671865 0.125058
H20   H     H_    0.384450 0.239904 0.674662 0.134916
H21   H     H_    0.600958 0.111658 0.362802 0.102339
H22   H     H_    0.860385 0.666249 0.584905 0.122637
N1    N     N_R   0.852210 0.498790 0.499090 -0.240280
N2    N     N_R   0.148080 0.498710 0.499060 -0.240124
O1    O     O_R   0.381190 0.680360 0.500010 -0.506213
O2    O     O_R   0.618760 0.680340 0.500000 -0.507585
O3    O     O_R   0.364420 0.499990 0.637850 -0.501188
O4    O     O_R   0.601990 0.499960 0.637840 -0.482958
O5    O     O_R   0.381240 0.319660 0.500000 -0.506496
O6    O     O_R   0.618810 0.319640 0.499990 -0.508538
O7    O     O_R   0.398010 0.500040 0.362160 -0.504191
O8    O     O_R   0.635580 0.500010 0.362150 -0.514888

loop_
_geom_bond_atom_site_label_1
_geom_bond_atom_site_label_2
_ccdc_geom_bond_type
C27   H14   S    
Cu2   N1    S    
C24   H4    S    
C15   O6    A    
C6    C7    A    
C23   C27   A    
C4    C12   S    
C18   C21   S    
C28   H15   S    
C25   H13   S    
C19   C20   S    
Cu1   N2    S    
C29   C30   A    
Cu1   O5    S    
C13   H22   S    
C22   H6    S    
Cu2   O8    S    
Cu2   O6    S    
Cu1   Cu2   S    
Cu1   O7    S    
C7    C8    A    
Cu1   O1    S    
C19   H1    S    
C13   C14   A    
C1    O2    A    
Cu2   O2    S    
C7    H16   S    
C8    H17   S    
C12   C20   T    
C4    O4    A    
C24   H2    S    
C22   H5    S    
C9    C10   A    
C2    C32   A    
C28   C29   A    
C10   N2    A    
C26   H9    S    
C23   H19   S    
C2    C25   S    
C2    C3    A    
C1    O1    A    
C30   C31   A    
C14   N2    A    
C22   C24   S    
C9    C22   S    
C5    C15   S    
C16   O8    A    
C10   C11   A    
C26   H10   S    
C25   H11   S    
Cu2   O4    S    
C13   N1    A    
C26   H8    S    
Cu1   O3    S    
C18   C19   D    
C29   H20   S    
C18   H7    S    
C6    C11   A    
C24   H3    S    
C15   O5    A    
C16   C17   S    
C16   O7    A    
C6    H12   S    
C3    C5    A    
C25   C26   S    
C11   N1    A    
C3    H21   S    
C4    O3    A    
C1    C32   S    
C14   H18   S    
C31   C32   A    
C5    C30   A    
C23   C31   A    
C8    C9    A    
C27   C28   A    
C17   C21   T    
