data_mof_unit_7671.cif
_audit_creation_date              2012-12-11T14:28:22-0500
_audit_creation_method            fapswitch 2.2
_symmetry_space_group_name_H-M    P1
_symmetry_Int_Tables_number       1
_space_group_crystal_system       triclinic
_cell_length_a                    10.941591
_cell_length_b                    19.108263
_cell_length_c                    18.450797
_cell_angle_alpha                 90.200616
_cell_angle_beta                  90.199864
_cell_angle_gamma                 89.308243
_cell_volume                      3857.26895955

loop_
_atom_site_label
_atom_site_type_symbol
_atom_type_description
_atom_site_fract_x
_atom_site_fract_y
_atom_site_fract_z
_atom_type_partial_charge
C1    C     C_R   0.318770 0.969282 0.645920 0.538514
C2    C     C_3   0.146394 0.748927 0.038705 -0.102065
C3    C     C_3   0.062895 0.201879 0.970365 -0.046751
C4    C     C_3   0.490386 0.291726 0.486697 -0.114373
C5    C     C_3   0.460338 0.284487 0.010566 -0.118031
C6    C     C_3   0.609371 0.689994 0.529801 -0.073871
C7    C     C_3   0.562695 0.701851 0.970388 -0.046814
C8    C     C_3   0.125242 0.809398 0.504050 -0.183168
C9    C     C_3   0.090892 0.803873 0.986910 -0.174144
C10   C     C_3   0.195842 0.235382 0.484554 -0.104642
C11   C     C_3   0.164519 0.239065 0.012804 -0.098685
C12   C     C_3   0.625242 0.309398 0.504050 -0.183168
C13   C     C_3   0.154250 0.302509 0.524351 -0.089191
C14   C     C_3   0.591064 0.303840 0.986951 -0.174095
C15   C     C_3   0.695842 0.735382 0.484554 -0.104647
C16   C     C_3   0.664458 0.738952 0.012776 -0.098710
C17   C     C_3   0.123223 0.756143 0.564994 0.054572
C18   C     C_3   0.084997 0.747537 0.928064 0.059189
C19   C     C_3   0.093182 0.247956 0.429194 0.061513
C20   C     C_3   0.075563 0.252375 0.074974 0.058071
C21   C     C_3   0.623223 0.256143 0.564994 0.054571
C22   C     C_3   0.585015 0.247541 0.928072 0.059207
C23   C     C_3   0.593182 0.747956 0.429194 0.061510
C24   C     C_3   0.127118 0.310644 0.980948 -0.089088
C25   C     C_3   0.575600 0.752372 0.074964 0.058119
C26   C     C_3   0.991059 0.738335 0.549037 0.235226
C27   C     C_3   0.956706 0.728264 0.950017 0.207654
C28   C     C_3   0.007952 0.202237 0.473091 0.229598
C29   C     C_3   0.974777 0.214696 0.033825 0.222819
C30   C     C_3   0.491059 0.238335 0.549037 0.235225
C31   C     C_3   0.456668 0.228373 0.950010 0.207629
C32   C     C_3   0.507952 0.702237 0.473091 0.229596
C33   C     C_3   0.474678 0.714775 0.033871 0.222679
C34   C     C_3   0.035201 0.679683 0.498071 -0.110049
C35   C     C_3   0.671169 0.250879 0.452810 -0.103435
C36   C     C_3   0.010842 0.672879 0.001779 -0.112781
C37   C     C_3   0.963932 0.268739 0.513251 -0.133329
C38   C     C_3   0.933967 0.285917 0.001175 -0.156807
C39   C     C_3   0.535200 0.179683 0.498071 -0.110051
C40   C     C_3   0.510646 0.172902 0.001739 -0.112864
C41   C     C_3   0.463933 0.768739 0.513251 -0.133327
C42   C     C_3   0.434036 0.786014 0.001198 -0.156844
C43   C     C_3   0.169215 0.697515 0.515041 -0.103803
C44   C     C_3   0.141101 0.692651 0.979077 -0.094502
C45   C     C_3   0.051296 0.314164 0.468329 -0.171023
C46   C     C_3   0.646416 0.248809 0.038710 -0.102125
C47   C     C_3   0.036886 0.322926 0.043757 -0.165884
C48   C     C_3   0.669215 0.197515 0.515041 -0.103801
C49   C     C_3   0.640967 0.192572 0.979048 -0.094548
C50   C     C_3   0.551297 0.814164 0.468329 -0.171019
C51   C     C_3   0.537095 0.822937 0.043725 -0.165850
C52   C     C_3   0.654250 0.802509 0.524351 -0.089192
C53   C     C_3   0.627229 0.810544 0.980898 -0.089148
C54   C     C_3   0.037874 0.732908 0.436438 0.008630
C55   C     C_3   0.017754 0.728611 0.061166 0.005885
C56   C     C_3   0.067828 0.256889 0.568649 0.041995
C57   C     C_R   0.319094 0.968735 0.854641 0.540504
C58   C     C_3   0.025095 0.273465 0.939082 0.030080
C59   C     C_3   0.537874 0.232908 0.436438 0.008632
C60   C     C_3   0.517716 0.228597 0.061162 0.005821
C61   C     C_3   0.567828 0.756889 0.568649 0.041997
C62   C     C_3   0.525070 0.773454 0.939082 0.030032
C63   C     C_R   0.334340 0.990709 0.420925 -0.045631
C64   C     C_R   0.336180 0.987887 0.080573 -0.045740
C65   C     C_R   0.321971 0.999703 0.572557 -0.018450
C66   C     C_R   0.323534 0.997019 0.929051 -0.007397
C67   C     C_R   0.834340 0.490709 0.420924 -0.045634
C68   C     C_R   0.322024 0.028848 0.352105 0.517808
C69   C     C_R   0.836175 0.487881 0.080575 -0.045772
C70   C     C_R   0.821971 0.499702 0.572557 -0.018447
C71   C     C_R   0.823532 0.497018 0.929053 -0.007221
C72   C     C_R   0.560162 0.996409 0.429094 -0.094643
C73   C     C_R   0.562271 0.996199 0.073422 -0.090716
C74   C     C_R   0.542767 0.021416 0.577487 -0.069478
C75   C     C_R   0.544470 0.017914 0.924750 -0.076169
C76   C     C_R   0.060162 0.496408 0.429094 -0.094643
C77   C     C_R   0.062268 0.496165 0.073427 -0.090754
C78   C     C_R   0.042767 0.521415 0.577486 -0.069476
C79   C     C_R   0.322159 0.028288 0.148283 0.517000
C80   C     C_R   0.044473 0.517919 0.924758 -0.076147
C81   C     C_R   0.664750 0.010008 0.469721 -0.116748
C82   C     C_R   0.666667 0.009124 0.032969 -0.110392
C83   C     C_R   0.655513 0.023826 0.543570 -0.132983
C84   C     C_R   0.657141 0.021025 0.958904 -0.137898
C85   C     C_R   0.164751 0.510008 0.469721 -0.116747
C86   C     C_R   0.166667 0.509117 0.032982 -0.110442
C87   C     C_R   0.155513 0.523826 0.543569 -0.132984
C88   C     C_R   0.157138 0.521043 0.958920 -0.137938
C89   C     C_R   0.436119 0.004892 0.537971 0.001587
C90   C     C_R   0.818770 0.469282 0.645920 0.538527
C91   C     C_R   0.438095 0.001135 0.963846 -0.000755
C92   C     C_R   0.443543 0.996686 0.461946 -0.020845
C93   C     C_R   0.445631 0.993893 0.039999 -0.021887
C94   C     C_R   0.936119 0.504892 0.537971 0.001585
C95   C     C_R   0.938094 0.501133 0.963850 -0.000717
C96   C     C_R   0.943543 0.496686 0.461946 -0.020846
C97   C     C_R   0.945627 0.493878 0.040002 -0.021947
C98   C     C_R   0.213457 0.995902 0.529740 -0.004268
C99   C     C_R   0.215624 0.992710 0.971756 0.005731
C100  C     C_R   0.223722 0.978210 0.456371 0.003256
C101  C     C_R   0.819094 0.468735 0.854641 0.540552
C102  C     C_R   0.226562 0.973563 0.044584 -0.000541
C103  C     C_R   0.713457 0.495902 0.529740 -0.004271
C104  C     C_R   0.715619 0.492706 0.971757 0.005791
C105  C     C_R   0.723722 0.478210 0.456370 0.003255
C106  C     C_R   0.726555 0.473562 0.044586 -0.000569
C107  C     C_R   0.094138 0.004521 0.558422 -0.066794
C108  C     C_R   0.096360 0.003881 0.943802 -0.070683
C109  C     C_R   0.119669 0.954398 0.418045 -0.054944
C110  C     C_R   0.122994 0.949749 0.082504 -0.066979
C111  C     C_R   0.594138 0.504521 0.558422 -0.066796
C112  C     C_R   0.822024 0.528848 0.352105 0.517800
C113  C     C_R   0.596353 0.503869 0.943799 -0.070673
C114  C     C_R   0.619670 0.454398 0.418045 -0.054944
C115  C     C_R   0.622985 0.449750 0.082506 -0.066981
C116  C     C_R   0.991980 0.983556 0.519266 -0.079039
C117  C     C_R   0.994180 0.983487 0.982850 -0.097107
C118  C     C_R   0.004632 0.957845 0.449265 -0.073146
C119  C     C_R   0.007319 0.955168 0.051700 -0.085930
C120  C     C_R   0.491980 0.483556 0.519265 -0.079040
C121  C     C_R   0.494174 0.483468 0.982843 -0.097254
C122  C     C_R   0.504632 0.457845 0.449264 -0.073145
C123  C     C_R   0.822158 0.528287 0.148284 0.516986
C124  C     C_R   0.507314 0.455159 0.051698 -0.086016
C125  C     C_R   0.174873 0.768686 0.635449 0.569227
C126  C     C_R   0.132929 0.757693 0.856029 0.609402
C127  C     C_R   0.130793 0.242843 0.354841 0.551615
C128  C     C_R   0.128053 0.243379 0.146339 0.549323
C129  C     C_R   0.674873 0.268686 0.635449 0.569222
C130  C     C_R   0.632952 0.257699 0.856039 0.609392
C131  C     C_R   0.630793 0.742843 0.354841 0.551639
C132  C     C_R   0.628064 0.743377 0.146334 0.549410
C133  C     C_R   0.541855 0.769720 0.644363 0.604609
C134  C     C_3   0.171169 0.750880 0.452810 -0.103432
C135  C     C_R   0.497934 0.787432 0.862942 0.579666
C136  C     C_R   0.500482 0.214282 0.363555 0.554404
C137  C     C_R   0.494436 0.212317 0.137093 0.563707
C138  C     C_R   0.041855 0.269720 0.644363 0.604609
C139  C     C_R   0.997949 0.287430 0.862942 0.579672
C140  C     C_R   0.000482 0.714282 0.363555 0.554401
C141  C     C_R   0.994449 0.712323 0.137091 0.563692
C142  C     C_3   0.990386 0.791726 0.486697 -0.114375
C143  C     C_3   0.960221 0.784416 0.010538 -0.118135
C144  C     C_3   0.109371 0.189994 0.529801 -0.073870
Cl1   Cl    Cl    0.883430 0.727709 0.620386 -0.592577
Cl2   Cl    Cl    0.844782 0.712480 0.881529 -0.598797
Cl3   Cl    Cl    0.918801 0.135512 0.432111 -0.661070
Cl4   Cl    Cl    0.888569 0.147356 0.075267 -0.655977
Cl5   Cl    Cl    0.383429 0.227709 0.620386 -0.592564
Cl6   Cl    Cl    0.344706 0.212744 0.881494 -0.598664
Cl7   Cl    Cl    0.418801 0.635512 0.432110 -0.661047
Cl8   Cl    Cl    0.388401 0.647528 0.075424 -0.655794
Cr1   Cr    Cr6+3 0.488160 0.884660 0.750000 1.030139
Cr2   Cr    Cr6+3 0.333410 0.272740 0.250000 0.994508
Cr3   Cr    Cr6+3 0.833410 0.227260 0.750000 1.026523
Cr4   Cr    Cr6+3 0.833410 0.772740 0.250000 0.994512
Cr5   Cr    Cr6+3 0.488160 0.115340 0.250000 1.026998
Cr6   Cr    Cr6+3 0.988160 0.384660 0.750000 1.030188
Cr7   Cr    Cr6+3 0.988160 0.615340 0.250000 1.027043
Cr8   Cr    Cr6+3 0.173480 0.883120 0.750000 1.047901
Cr9   Cr    Cr6+3 0.173480 0.116880 0.250000 1.096324
Cr10  Cr    Cr6+3 0.673480 0.383120 0.750000 1.047975
Cr11  Cr    Cr6+3 0.673480 0.616880 0.250000 1.096342
Cr12  Cr    Cr6+3 0.333410 0.727260 0.750000 1.026524
H1    H     H_    0.170151 0.859367 0.514932 0.128618
H2    H     H_    0.905456 0.987435 0.958457 0.109091
H3    H     H_    0.925695 0.940631 0.418934 0.108440
H4    H     H_    0.928333 0.937842 0.081475 0.111788
H5    H     H_    0.403515 0.485713 0.544105 0.107905
H6    H     H_    0.405450 0.487413 0.958450 0.109060
H7    H     H_    0.425696 0.440631 0.418934 0.108441
H8    H     H_    0.428328 0.437840 0.081477 0.111760
H9    H     H_    0.913951 0.828001 0.473455 0.120160
H10   H     H_    0.886235 0.821686 0.025784 0.123142
H11   H     H_    0.136532 0.141257 0.557880 0.144144
H12   H     H_    0.129084 0.855495 0.974325 0.141137
H13   H     H_    0.074038 0.152984 0.938442 0.155661
H14   H     H_    0.413952 0.328001 0.473455 0.120160
H15   H     H_    0.386404 0.321797 0.025808 0.123165
H16   H     H_    0.636532 0.641256 0.557880 0.144148
H17   H     H_    0.573645 0.652938 0.938487 0.155587
H18   H     H_    0.989316 0.629510 0.490562 0.142137
H19   H     H_    0.967553 0.623284 0.014173 0.142518
H20   H     H_    0.871036 0.284867 0.529740 0.097552
H21   H     H_    0.843116 0.309644 0.991055 0.097211
H22   H     H_    0.489316 0.129510 0.490562 0.142136
H23   H     H_    0.287919 0.217986 0.467712 0.122464
H24   H     H_    0.467171 0.123340 0.014070 0.142404
H25   H     H_    0.371036 0.784867 0.529740 0.097553
H26   H     H_    0.343221 0.809786 0.991101 0.097249
H27   H     H_    0.242265 0.660257 0.531386 0.182769
H28   H     H_    0.217110 0.657077 0.963496 0.182169
H29   H     H_    0.024369 0.362181 0.439169 0.127722
H30   H     H_    0.024014 0.367183 0.081230 0.128481
H31   H     H_    0.742265 0.160256 0.531386 0.182770
H32   H     H_    0.716922 0.156966 0.963462 0.182199
H33   H     H_    0.524369 0.862182 0.439169 0.127725
H34   H     H_    0.254650 0.214915 0.023866 0.135973
H35   H     H_    0.524438 0.867215 0.081179 0.128561
H36   H     H_    0.243318 0.756741 0.411184 0.177466
H37   H     H_    0.219255 0.758984 0.079185 0.183163
H38   H     H_    0.215678 0.343236 0.546510 0.162672
H39   H     H_    0.190109 0.350133 0.958491 0.160020
H40   H     H_    0.743318 0.256741 0.411184 0.177455
H41   H     H_    0.719323 0.258763 0.079191 0.183262
H42   H     H_    0.715678 0.843236 0.546511 0.162669
H43   H     H_    0.690294 0.849965 0.958396 0.160036
H44   H     H_    0.752390 0.011723 0.443243 0.164217
H45   H     H_    0.670152 0.359367 0.514932 0.128616
H46   H     H_    0.754368 0.011859 0.059710 0.164956
H47   H     H_    0.734493 0.038764 0.574921 0.116905
H48   H     H_    0.735488 0.035965 0.927509 0.113267
H49   H     H_    0.252390 0.511723 0.443242 0.164218
H50   H     H_    0.254361 0.511859 0.059727 0.164893
H51   H     H_    0.234494 0.538764 0.574920 0.116908
H52   H     H_    0.235486 0.536005 0.927537 0.113272
H53   H     H_    0.571833 0.983849 0.372315 0.137541
H54   H     H_    0.574427 0.985308 0.130495 0.136403
H55   H     H_    0.538953 0.036360 0.634064 0.155782
H56   H     H_    0.629384 0.355443 0.974413 0.141031
H57   H     H_    0.540650 0.033116 0.868361 0.154892
H58   H     H_    0.071833 0.483849 0.372315 0.137540
H59   H     H_    0.074414 0.485265 0.130500 0.136410
H60   H     H_    0.038954 0.536360 0.634064 0.155795
H61   H     H_    0.040652 0.533125 0.868371 0.154965
H62   H     H_    0.127573 0.933917 0.363386 0.128031
H63   H     H_    0.131583 0.929206 0.136990 0.128657
H64   H     H_    0.078463 0.027515 0.611297 0.141488
H65   H     H_    0.080890 0.028072 0.891591 0.144926
H66   H     H_    0.627573 0.433917 0.363385 0.128026
H67   H     H_    0.787919 0.717986 0.467712 0.122464
H68   H     H_    0.631572 0.429212 0.136994 0.128673
H69   H     H_    0.578463 0.527514 0.611297 0.141495
H70   H     H_    0.580882 0.528061 0.891589 0.144950
H71   H     H_    0.754537 0.714727 0.023815 0.136082
H72   H     H_    0.903515 0.985713 0.544105 0.107903
O1    O     O_R   0.575450 0.828820 0.667950 -0.487220
O2    O     O_R   0.416860 0.942890 0.825320 -0.524838
O3    O     O_R   0.416860 0.057110 0.325320 -0.530577
O4    O     O_R   0.416860 0.057110 0.174680 -0.533540
O5    O     O_R   0.916860 0.442890 0.674680 -0.509224
O6    O     O_R   0.916860 0.442890 0.825320 -0.524860
O7    O     O_R   0.916860 0.557110 0.325320 -0.530581
O8    O     O_R   0.916860 0.557110 0.174680 -0.533540
O9    O     O_R   0.213790 0.953680 0.668330 -0.534041
O10   O     O_R   0.213790 0.953680 0.831670 -0.528784
O11   O     O_R   0.213790 0.046320 0.331670 -0.490844
O12   O     O_R   0.575450 0.828820 0.832050 -0.471343
O13   O     O_R   0.213790 0.046320 0.168330 -0.492528
O14   O     O_R   0.713790 0.453680 0.668330 -0.534038
O15   O     O_R   0.713790 0.453680 0.831670 -0.528768
O16   O     O_R   0.713790 0.546320 0.331670 -0.490845
O17   O     O_R   0.713790 0.546320 0.168330 -0.492571
O18   O     O_R   0.121360 0.817890 0.672660 -0.450544
O19   O     O_R   0.121360 0.817890 0.827340 -0.482710
O20   O     O_R   0.121360 0.182110 0.327340 -0.445533
O21   O     O_R   0.121360 0.182110 0.172660 -0.449479
O22   O     O_R   0.621360 0.317890 0.672660 -0.450529
O23   O     O_R   0.575450 0.171180 0.332050 -0.473096
O24   O     O_R   0.621360 0.317890 0.827340 -0.482613
O25   O     O_R   0.621360 0.682110 0.327340 -0.445514
O26   O     O_R   0.621360 0.682110 0.172660 -0.449447
O27   O     O_R   0.206850 0.711370 0.665820 -0.509301
O28   O     O_R   0.206850 0.711370 0.834180 -0.536224
O29   O     O_R   0.206850 0.288630 0.334180 -0.550623
O30   O     O_R   0.206850 0.288630 0.165820 -0.552524
O31   O     O_R   0.706850 0.211370 0.665820 -0.509307
O32   O     O_R   0.706850 0.211370 0.834180 -0.536228
O33   O     O_R   0.706850 0.788630 0.334180 -0.550623
O34   O     O_R   0.575450 0.171180 0.167950 -0.463794
O35   O     O_R   0.706850 0.788630 0.165820 -0.552562
O36   O     O_R   0.457710 0.733190 0.672630 -0.524808
O37   O     O_R   0.457710 0.733190 0.827370 -0.498905
O38   O     O_R   0.457710 0.266810 0.327370 -0.507009
O39   O     O_R   0.457710 0.266810 0.172630 -0.507664
O40   O     O_R   0.957710 0.233190 0.672630 -0.524817
O41   O     O_R   0.957710 0.233190 0.827370 -0.498895
O42   O     O_R   0.957710 0.766810 0.327370 -0.507008
O43   O     O_R   0.957710 0.766810 0.172630 -0.507668
O44   O     O_3   0.331690 0.831680 0.750000 -0.315301
O45   O     O_R   0.075450 0.328820 0.667950 -0.487204
O46   O     O_3   0.331690 0.168320 0.250000 -0.309930
O47   O     O_3   0.831690 0.331680 0.750000 -0.315331
O48   O     O_3   0.831690 0.668320 0.250000 -0.309943
O49   O     O_R   0.075450 0.328820 0.832050 -0.471236
O50   O     O_R   0.075450 0.671180 0.332050 -0.473073
O51   O     O_R   0.075450 0.671180 0.167950 -0.463659
O52   O     O_R   0.416860 0.942890 0.674680 -0.509225

loop_
_geom_bond_atom_site_label_1
_geom_bond_atom_site_label_2
_ccdc_geom_bond_type
C46   H41   S    
C6    C32   S    
C71   C104  A    
C41   C50   S    
C73   C93   A    
C74   C83   A    
C9    C143  S    
C61   C133  S    
C65   C89   A    
C90   O14   A    
C83   H47   S    
C52   C61   S    
C117  C119  A    
C86   C88   A    
C71   C95   A    
C69   C123  S    
C54   C134  S    
C9    H12   S    
C5    H15   S    
C37   C56   S    
C77   H59   S    
C50   C52   S    
C28   C144  S    
C41   C61   S    
C80   H61   S    
C4    C12   S    
C108  H65   S    
C21   C48   S    
Cr10  O24   S    
C100  C109  A    
C22   C130  S    
C7    C33   S    
C14   H56   S    
C109  C118  A    
C113  H70   S    
C11   C20   S    
Cr6   O45   S    
C140  O42   A    
Cr12  O37   S    
C141  O43   A    
Cr4   O43   S    
C31   Cl6   S    
C70   C103  A    
C67   C105  A    
C30   Cl5   S    
Cr4   O33   S    
C137  O39   A    
C17   C43   S    
C7    C62   S    
C18   C44   S    
C4    C59   S    
C42   H26   S    
C124  H8    S    
C117  H2    S    
C137  O34   A    
Cr11  O25   S    
Cr7   O48   S    
C94   C96   A    
C22   C49   S    
C34   C54   S    
C82   C84   A    
C64   C79   S    
C36   C44   S    
C37   C45   S    
Cr7   O8    S    
C16   C25   S    
C28   Cl3   S    
C127  O29   A    
C46   C60   S    
C139  O41   A    
Cr3   O40   S    
C130  O24   A    
C95   C97   A    
C8    C17   S    
C41   H25   S    
C106  C115  A    
C2    C55   S    
C80   C88   A    
C36   C55   S    
C1    O9    A    
C76   C96   A    
C13   C45   S    
C78   C94   A    
Cr12  O28   S    
C138  O45   A    
C116  C118  A    
Cr3   O47   S    
C20   C47   S    
C3    C11   S    
C67   C112  S    
Cr10  O22   S    
C51   C53   S    
C76   C85   A    
C1    O52   A    
C44   H28   S    
C78   H60   S    
C78   C87   A    
C40   C60   S    
Cr8   O44   S    
C57   C66   S    
C29   Cl4   S    
Cr4   O35   S    
Cr10  O47   S    
C13   H38   S    
C64   C102  A    
C99   C108  A    
Cr1   O44   S    
C33   C42   S    
C6    C61   S    
C103  C111  A    
Cr11  O16   S    
C12   H45   S    
C75   C84   A    
C40   C49   S    
Cr1   O12   S    
C118  H3    S    
Cr11  O17   S    
Cr6   O6    S    
C3    C29   S    
C2    C44   S    
C29   C38   S    
C1    C65   S    
C32   C41   S    
C77   C97   A    
C42   C62   S    
C75   C91   A    
C13   C56   S    
C121  H6    S    
C133  O1    A    
C79   O4    A    
C81   C83   A    
C142  H9    S    
C55   C143  S    
C7    H17   S    
C8    C134  S    
C16   H71   S    
C135  O37   A    
C62   C135  S    
C86   H50   S    
Cr4   O42   S    
Cr10  O15   S    
C19   C28   S    
Cr5   O4    S    
C27   C143  S    
C23   C131  S    
C103  C105  A    
C36   H19   S    
C10   C144  S    
C12   C35   S    
C101  O6    A    
C21   C129  S    
C115  H68   S    
C48   H31   S    
C132  O26   A    
C63   C68   S    
C5    C60   S    
C15   H67   S    
C108  C117  A    
C34   C43   S    
C72   C81   A    
C4    H14   S    
C57   O10   A    
C110  C119  A    
C109  H62   S    
C19   C45   S    
C40   H24   S    
C80   C95   A    
C128  O21   A    
C14   C22   S    
C11   H34   S    
C130  O32   A    
Cr3   O41   S    
C18   C126  S    
Cr9   O13   S    
Cr5   O3    S    
Cr5   O23   S    
C28   C37   S    
C73   H54   S    
C125  O18   A    
C107  C116  A    
C8    H1    S    
C104  C113  A    
C9    C18   S    
C113  C121  A    
Cr11  O48   S    
C122  H7    S    
C128  O30   A    
C140  O50   A    
C2    C9    S    
C141  O51   A    
Cr9   O20   S    
C25   C33   S    
Cr5   O46   S    
C82   H46   S    
C69   C97   A    
Cr6   O49   S    
C24   H39   S    
C55   C141  S    
Cr8   O9    S    
Cr2   O29   S    
C104  C106  A    
C14   C46   S    
C46   C49   S    
Cr1   O2    S    
C70   C94   A    
C65   C98   A    
Cr9   O11   S    
C72   C92   A    
C35   H40   S    
C31   C40   S    
C35   C59   S    
Cr8   O18   S    
Cr2   O38   S    
C38   C58   S    
C39   H22   S    
Cr3   O32   S    
C6    H16   S    
C71   C101  S    
C101  O15   A    
C2    H37   S    
C35   C48   S    
Cr7   O7    S    
C50   H33   S    
C45   H29   S    
Cr7   O50   S    
Cr4   O48   S    
C23   C50   S    
C10   C13   S    
C98   C107  A    
C43   C134  S    
C91   C93   A    
C10   C19   S    
C39   C59   S    
C116  H72   S    
C136  O23   A    
C126  O28   A    
C15   C52   S    
C5    C14   S    
C81   H44   S    
C7    C16   S    
C54   C142  S    
C98   C100  A    
C102  C110  A    
C73   C82   A    
Cr8   O19   S    
C115  C124  A    
Cr9   O46   S    
C136  O38   A    
C133  O36   A    
C68   O3    A    
C69   C106  A    
C84   H48   S    
C49   H32   S    
C27   C36   S    
C21   C30   S    
C23   C32   S    
C27   Cl2   S    
Cr11  O26   S    
C111  H69   S    
C120  H5    S    
C123  O17   A    
C56   C144  S    
C3    C58   S    
C99   C102  A    
C24   C58   S    
C87   H51   S    
C8    C142  S    
C143  H10   S    
C119  H4    S    
C39   C48   S    
C58   C139  S    
C59   C136  S    
C47   H30   S    
C132  O35   A    
C134  H36   S    
C72   H53   S    
C52   H42   S    
C17   C26   S    
C74   C89   A    
C64   C93   A    
C20   C128  S    
C110  H63   S    
Cr12  O27   S    
C11   C24   S    
C139  O49   A    
C16   C53   S    
C121  C124  A    
C6    C15   S    
C26   C34   S    
C112  O7    A    
C54   C140  S    
C74   H55   S    
C30   C39   S    
C126  O19   A    
C57   O2    A    
C129  O31   A    
C60   C137  S    
C15   C23   S    
Cr12  O36   S    
C43   H27   S    
C79   O13   A    
C125  O27   A    
C70   C90   S    
C123  O8    A    
C120  C122  A    
C112  O16   A    
C20   C29   S    
C85   C87   A    
C68   O11   A    
C22   C31   S    
C127  O20   A    
C105  C114  A    
C129  O22   A    
C76   H58   S    
C37   H20   S    
C12   C21   S    
Cr7   O51   S    
C138  O40   A    
C111  C120  A    
Cr6   O5    S    
C66   C99   A    
C63   C92   A    
C26   Cl1   S    
C25   C51   S    
C63   C100  A    
C85   H49   S    
C56   C138  S    
C53   C62   S    
C131  O33   A    
C107  H64   S    
Cr1   O52   S    
C10   H23   S    
C89   C92   A    
C38   C47   S    
C51   H35   S    
C77   C86   A    
C67   C96   A    
Cr9   O21   S    
Cr6   O47   S    
C88   H52   S    
C24   C47   S    
C135  O12   A    
C18   C27   S    
Cr8   O10   S    
Cr2   O30   S    
C33   Cl8   S    
C114  H66   S    
C66   C91   A    
C38   H21   S    
C42   C51   S    
Cr1   O1    S    
C3    H13   S    
Cr10  O14   S    
C25   C132  S    
C17   C125  S    
C32   Cl7   S    
Cr5   O34   S    
C144  H11   S    
C19   C127  S    
C53   H43   S    
C34   H18   S    
Cr2   O39   S    
C4    C30   S    
Cr2   O46   S    
C114  C122  A    
C75   H57   S    
C90   O5    A    
Cr12  O44   S    
C131  O25   A    
C26   C142  S    
Cr3   O31   S    
C5    C31   S    
