data_mof_unit_47174.cif
_audit_creation_date              2012-10-26T19:58:22-0400
_audit_creation_method            fapswitch 2.2
_symmetry_space_group_name_H-M    P1
_symmetry_Int_Tables_number       1
_space_group_crystal_system       triclinic
_cell_length_a                    7.414247
_cell_length_b                    8.729101
_cell_length_c                    13.361738
_cell_angle_alpha                 94.018545
_cell_angle_beta                  76.769549
_cell_angle_gamma                 103.238558
_cell_volume                      819.300985919

loop_
_atom_site_label
_atom_site_type_symbol
_atom_type_description
_atom_site_fract_x
_atom_site_fract_y
_atom_site_fract_z
_atom_type_partial_charge
C1    C     C_R   0.545395 0.800138 0.501979 0.596322
C2    C     C_R   0.330128 0.495241 0.808466 0.048520
C3    C     C_2   0.566326 0.967554 0.505031 -0.077486
C4    C     C_R   0.397533 0.496763 0.695018 0.617336
C5    C     C_2   0.437248 0.032474 0.478716 0.193042
C6    C     C_R   0.457287 0.200181 0.492060 0.528278
C7    C     C_R   0.603664 0.511583 0.305069 0.538977
C8    C     C_R   0.877713 0.686569 0.048834 -0.063757
C9    C     C_R   0.668899 0.536881 0.193074 -0.014430
C10   C     C_R   0.145514 0.409225 0.851913 0.213485
C11   C     C_R   0.095892 0.378360 0.957126 -0.133566
C12   C     C_R   0.414444 0.509304 0.976599 -0.003498
C13   C     C_R   0.229056 0.422527 0.017619 -0.135436
C14   C     C_R   0.456900 0.561649 0.873757 0.018724
C15   C     C_R   0.557782 0.548144 0.034981 0.018614
C16   C     C_R   0.733549 0.649586 0.993389 -0.030490
C17   C     C_R   0.762062 0.718125 0.898390 -0.108694
C18   C     C_R   0.622643 0.680604 0.839997 0.253797
C19   C     C_R   0.531677 0.489523 0.133807 -0.145725
C20   C     C_R   0.849070 0.628966 0.147365 0.222163
Cu1   Cu    Cu3+1 0.321300 0.483160 0.488710 1.034732
Cu2   Cu    Cu3+1 0.678700 0.516840 0.511290 1.022561
H1    H     H_    0.010567 0.617034 0.579529 0.260532
H2    H     H_    0.219272 0.010348 0.414310 0.342486
H3    H     H_    0.895396 0.296888 0.833090 0.321909
H4    H     H_    0.761180 0.846493 0.742471 0.324406
H5    H     H_    0.989394 0.382993 0.420480 0.226128
H6    H     H_    0.892065 0.804200 0.870405 0.100578
H7    H     H_    0.013638 0.761844 0.015773 0.144851
H8    H     H_    0.402552 0.409116 0.168428 0.123754
H9    H     H_    0.179608 0.390570 0.097192 0.116887
H10   H     H_    0.954614 0.314077 0.992099 0.109927
H11   H     H_    0.687202 0.038173 0.532440 0.096574
H12   H     H_    0.000342 0.578188 0.234177 0.337450
N1    N     N_2   0.947230 0.542220 0.528320 -0.222573
N2    N     N_2   0.052770 0.457780 0.471680 -0.249887
O1    O     O_R   0.383920 0.714220 0.492660 -0.439538
O2    O     O_3   0.289823 0.941730 0.438129 -0.668180
O3    O     O_3   0.017357 0.352832 0.790231 -0.679109
O4    O     O_3   0.638860 0.767793 0.754573 -0.697889
O5    O     O_R   0.685730 0.742660 0.511730 -0.482985
O6    O     O_R   0.275440 0.478800 0.636790 -0.454315
O7    O     O_R   0.577250 0.507240 0.655860 -0.464685
O8    O     O_R   0.314270 0.257340 0.488270 -0.508746
O9    O     O_R   0.616080 0.285780 0.507340 -0.538824
O10   O     O_R   0.422750 0.492760 0.344140 -0.505794
O11   O     O_R   0.724560 0.521200 0.363210 -0.509771
O12   O     O_3   0.996785 0.671442 0.197255 -0.676656

loop_
_geom_bond_atom_site_label_1
_geom_bond_atom_site_label_2
_ccdc_geom_bond_type
C2    C4    S    
C4    O7    A    
H5    N2    S    
Cu1   O8    S    
C14   C18   A    
C9    C20   A    
H2    O2    S    
N1    N2    D    
C12   C15   A    
C1    O1    A    
C17   H6    S    
C17   C18   A    
C8    C16   A    
Cu1   N2    S    
C6    O8    A    
C5    O2    S    
H3    O3    S    
C15   C19   A    
Cu2   N1    S    
C11   C13   A    
H4    O4    S    
C20   O12   S    
C4    O6    A    
C8    C20   A    
C8    H7    S    
C1    O5    A    
C6    O9    A    
C12   C14   A    
C11   H10   S    
Cu2   O11   S    
H1    N1    S    
C5    C6    S    
C2    C14   A    
Cu2   O5    S    
H12   O12   S    
C10   C11   A    
C3    H11   S    
Cu1   O6    S    
C2    C10   A    
C7    O10   A    
Cu2   O9    S    
Cu1   O1    S    
C12   C13   A    
Cu1   O10   S    
C7    C9    S    
C18   O4    S    
C10   O3    S    
C3    C5    D    
Cu1   Cu2   S    
C19   H8    S    
C13   H9    S    
Cu2   O7    S    
C15   C16   A    
C9    C19   A    
C16   C17   A    
C1    C3    S    
C7    O11   A    
