data_mof_unit_15724.cif
_audit_creation_date              2012-12-11T14:08:05-0500
_audit_creation_method            fapswitch 2.2
_symmetry_space_group_name_H-M    P1
_symmetry_Int_Tables_number       1
_space_group_crystal_system       triclinic
_cell_length_a                    10.924872
_cell_length_b                    10.984986
_cell_length_c                    18.670143
_cell_angle_alpha                 90.14898
_cell_angle_beta                  89.516218
_cell_angle_gamma                 60.264921
_cell_volume                      1945.44325045

loop_
_atom_site_label
_atom_site_type_symbol
_atom_type_description
_atom_site_fract_x
_atom_site_fract_y
_atom_site_fract_z
_atom_type_partial_charge
C1    C     C_R   0.236437 0.645501 0.608807 0.544703
C2    C     C_3   0.699776 0.531226 0.801470 -0.251941
C3    C     C_3   0.695720 0.671765 0.814302 0.058030
C4    C     C_3   0.665707 0.643939 0.678732 0.054298
C5    C     C_3   0.793363 0.665515 0.689190 -0.248896
C6    C     C_3   0.689281 0.511670 0.721002 -0.218648
C7    C     C_2   0.677291 0.150291 0.669432 0.090295
C8    C     C_2   0.690066 0.169669 0.828901 -0.093497
C9    C     C_2   0.800808 0.119933 0.783446 -0.141271
C10   C     C_2   0.779934 0.154814 0.706855 -0.121928
C11   C     C_2   0.181247 0.662424 0.681629 -0.119843
C12   C     C_R   0.651256 0.619242 0.602981 0.545200
C13   C     C_2   0.195746 0.662437 0.839400 -0.121068
C14   C     C_2   0.193587 0.561176 0.800138 -0.179260
C15   C     C_2   0.222102 0.548863 0.722995 -0.178392
C16   C     C_2   0.646987 0.643447 0.315963 -0.094187
C17   C     C_2   0.630788 0.659422 0.157469 -0.115599
C18   C     C_2   0.708957 0.542014 0.194275 -0.169795
C19   C     C_2   0.691317 0.532933 0.271140 -0.153284
C20   C     C_2   0.676933 0.139736 0.333835 -0.125519
C21   C     C_2   0.650984 0.144250 0.179471 -0.046550
C22   C     C_2   0.625757 0.062544 0.224232 0.066651
C23   C     C_R   0.628269 0.227033 0.601800 0.544964
C24   C     C_2   0.599517 0.097033 0.299410 -0.158888
C25   C     C_2   0.112179 0.685435 0.348798 0.105916
C26   C     C_2   0.115340 0.690729 0.190445 -0.097623
C27   C     C_2   0.041239 0.801942 0.234175 -0.158371
C28   C     C_2   0.078036 0.798085 0.308618 -0.149087
C29   C     C_R   0.703322 0.102969 0.897923 0.543971
C30   C     C_R   0.721364 0.686709 0.889601 0.538228
C31   C     C_R   0.119425 0.706326 0.907503 0.548180
C32   C     C_R   0.675025 0.106126 0.104864 0.570418
C33   C     C_R   0.691225 0.687397 0.093956 0.564334
C34   C     C_R   0.214427 0.651831 0.405118 0.589878
C35   C     C_R   0.087156 0.713065 0.115090 0.552747
C36   C     C_R   0.640348 0.619422 0.391858 0.562369
C37   C     C_R   0.621419 0.223731 0.397355 0.554675
C38   C     C_3   0.551044 0.792975 0.789008 -0.236001
C39   C     C_3   0.530674 0.772643 0.709618 -0.232976
C40   C     C_3   0.814579 0.676276 0.769530 -0.215036
Cr1   Cr    Cr6+3 0.393010 0.398050 0.501480 1.026056
Cr2   Cr    Cr6+3 0.398820 0.707980 0.501630 1.013140
Cr3   Cr    Cr6+3 0.708140 0.393940 0.496850 1.016071
Cr4   Cr    Cr6+3 0.937950 0.938450 0.008940 1.018116
Cr5   Cr    Cr6+3 0.626180 0.937030 0.994750 1.030935
Cr6   Cr    Cr6+3 0.937790 0.625760 0.001410 1.017453
H1    H     H_    0.546283 0.895956 0.795992 0.165554
H2    H     H_    0.789252 0.418933 0.702843 0.135626
H3    H     H_    0.919091 0.587558 0.784581 0.136077
H4    H     H_    0.890516 0.576283 0.665551 0.135906
H5    H     H_    0.906979 0.048637 0.801590 0.139116
H6    H     H_    0.846081 0.191074 0.682095 0.112469
H7    H     H_    0.584569 0.241684 0.810083 0.119961
H8    H     H_    0.277342 0.443790 0.700162 0.154104
H9    H     H_    0.233433 0.728602 0.816120 0.100505
H10   H     H_    0.463729 0.795594 0.821411 0.112766
H11   H     H_    0.123960 0.767491 0.704398 0.105212
H12   H     H_    0.800611 0.453500 0.169818 0.156469
H13   H     H_    0.730243 0.428001 0.292169 0.151540
H14   H     H_    0.533687 0.743535 0.180205 0.108247
H15   H     H_    0.604859 0.749625 0.296928 0.079536
H16   H     H_    0.508712 0.098010 0.324300 0.151632
H17   H     H_    0.659764 0.233209 0.198409 0.046870
H18   H     H_    0.965058 0.903734 0.213082 0.159459
H19   H     H_    0.438527 0.755974 0.704411 0.141612
H20   H     H_    0.102996 0.878023 0.325353 0.137703
H21   H     H_    0.194682 0.588785 0.209536 0.093981
H22   H     H_    0.506368 0.868950 0.679410 0.123450
H23   H     H_    0.816121 0.775207 0.780645 0.140420
H24   H     H_    0.775854 0.762404 0.661665 0.120585
H25   H     H_    0.799347 0.441974 0.821815 0.136889
H26   H     H_    0.610607 0.530459 0.830380 0.112400
H27   H     H_    0.601881 0.489376 0.710992 0.120121
O1    O     O_R   0.507110 0.256280 0.580300 -0.523785
O2    O     O_R   0.524640 0.695370 0.425100 -0.495796
O3    O     O_R   0.735890 0.504390 0.415980 -0.503340
O4    O     O_R   0.690560 0.277820 0.422350 -0.507579
O5    O     O_3   0.499990 0.499990 0.499980 -0.255766
O6    O     O_R   0.089190 0.825870 0.932320 -0.519523
O7    O     O_R   0.819070 0.053960 0.931440 -0.501664
O8    O     O_R   0.607070 0.076440 0.916460 -0.516879
O9    O     O_R   0.647110 0.806550 0.917690 -0.512763
O10   O     O_R   0.837080 0.593860 0.915300 -0.531568
O11   O     O_R   0.064770 0.636080 0.932550 -0.499786
O12   O     O_R   0.280830 0.527190 0.577940 -0.499852
O13   O     O_R   0.068250 0.829200 0.092940 -0.514384
O14   O     O_R   0.799650 0.057040 0.080330 -0.510763
O15   O     O_R   0.586130 0.079760 0.077080 -0.477731
O16   O     O_R   0.627700 0.809630 0.066580 -0.474373
O17   O     O_R   0.816140 0.597180 0.075920 -0.514679
O18   O     O_R   0.045360 0.639170 0.081440 -0.492479
O19   O     O_3   0.833980 0.833750 0.001700 -0.248270
O20   O     O_R   0.261360 0.738990 0.584270 -0.522403
O21   O     O_R   0.532590 0.694780 0.574370 -0.509243
O22   O     O_R   0.744470 0.503750 0.577000 -0.525852
O23   O     O_R   0.698520 0.277230 0.571620 -0.515294
O24   O     O_R   0.498530 0.256920 0.419280 -0.511885
O25   O     O_R   0.272880 0.527780 0.428680 -0.478632
O26   O     O_R   0.252780 0.739630 0.423250 -0.534991
N1    N     N_3   0.604525 0.082662 0.698807 -0.644030
H28   H     H_    0.609078 0.011135 0.660470 0.222365
H29   H     H_    0.498505 0.158146 0.706425 0.228543
H30   H     H_    0.163166 0.489731 0.823783 0.149142
N2    N     N_3   0.620770 0.942184 0.198979 -0.569740
H31   H     H_    0.523087 0.954023 0.214089 0.216409
H32   H     H_    0.700128 0.854912 0.225013 0.219292
H33   H     H_    0.772012 0.130617 0.309424 0.093711
N3    N     N_3   0.060623 0.589565 0.334488 -0.616070
H34   H     H_    0.974489 0.633386 0.300024 0.241090
H35   H     H_    0.141639 0.499018 0.310422 0.231397

loop_
_geom_bond_atom_site_label_1
_geom_bond_atom_site_label_2
_ccdc_geom_bond_type
C7    C10   D    
Cr2   O20   S    
C39   H22   S    
Cr5   O9    S    
C1    C11   S    
C10   H6    S    
N2    H32   S    
N3    H34   S    
C25   C28   D    
C26   C27   D    
C6    H2    S    
C26   H21   S    
C38   C39   S    
C35   O13   A    
C2    H26   S    
Cr6   O19   S    
C40   H3    S    
C32   O15   A    
C22   N2    S    
C23   O23   A    
C17   C18   D    
C18   C19   S    
C30   O10   A    
Cr5   O19   S    
C36   O3    A    
Cr1   O1    S    
C11   C15   D    
C18   H12   S    
C20   C24   D    
C3    C38   S    
C8    C9    D    
C9    H5    S    
Cr3   O22   S    
C12   O22   A    
C4    C12   S    
Cr4   O14   S    
Cr5   O16   S    
C9    C10   S    
Cr4   O19   S    
C25   C34   S    
C20   H33   S    
C13   C14   D    
C39   H19   S    
C12   O21   A    
C2    C6    S    
C17   C33   S    
Cr4   O13   S    
C37   O24   A    
N2    H31   S    
Cr3   O23   S    
C1    O12   A    
C21   C32   S    
C40   H23   S    
C15   H8    S    
Cr4   O7    S    
Cr5   O15   S    
C4    C6    S    
C7    N1    S    
Cr1   O5    S    
Cr6   O18   S    
C19   H13   S    
C32   O14   A    
C37   O4    A    
C31   O11   A    
Cr3   O5    S    
C30   O9    A    
C3    C30   S    
C28   H20   S    
C29   O8    A    
C5    H24   S    
C36   O2    A    
C33   O16   A    
C14   C15   S    
C4    C39   S    
N1    H29   S    
C34   O26   A    
Cr2   O2    S    
C38   H1    S    
Cr6   O11   S    
C3    C40   S    
Cr2   O5    S    
Cr1   O24   S    
C5    H4    S    
C16   H15   S    
C8    C29   S    
C23   O1    A    
C2    H25   S    
C6    H27   S    
Cr3   O3    S    
C24   H16   S    
Cr2   O21   S    
C33   O17   A    
C13   C31   S    
Cr4   O6    S    
Cr5   O8    S    
C4    C5    S    
C8    H7    S    
C31   O6    A    
Cr6   O17   S    
Cr3   O4    S    
Cr1   O12   S    
C2    C3    S    
C11   H11   S    
Cr2   O26   S    
C16   C36   S    
C20   C37   S    
C14   H30   S    
C29   O7    A    
C16   C19   D    
C7    C23   S    
N1    H28   S    
C34   O25   A    
N3    H35   S    
C22   C24   S    
C21   H17   S    
C27   H18   S    
C17   H14   S    
Cr6   O10   S    
C26   C35   S    
C38   H10   S    
C1    O20   A    
C5    C40   S    
C27   C28   S    
Cr1   O25   S    
C21   C22   D    
C25   N3    S    
C13   H9    S    
C35   O18   A    
