data_mof_unit_62052.cif
_audit_creation_date              2012-12-11T15:59:37-0500
_audit_creation_method            fapswitch 2.2
_symmetry_space_group_name_H-M    P1
_symmetry_Int_Tables_number       1
_space_group_crystal_system       triclinic
_cell_length_a                    6.960447
_cell_length_b                    20.117397
_cell_length_c                    21.729772
_cell_angle_alpha                 92.801944
_cell_angle_beta                  89.084612
_cell_angle_gamma                 90.607957
_cell_volume                      3038.56199136

loop_
_atom_site_label
_atom_site_type_symbol
_atom_type_description
_atom_site_fract_x
_atom_site_fract_y
_atom_site_fract_z
_atom_type_partial_charge
O1    O     O_R   0.505910 0.557140 0.441630 -0.518457
O2    O     O_R   0.175760 0.566370 0.557960 -0.522104
O3    O     O_R   0.005440 0.442860 0.558370 -0.534543
C1    C     C_R   0.344292 0.584007 0.580778 0.716548
O4    O     O_R   0.176200 0.564760 0.442040 -0.519866
O5    O     O_R   0.005880 0.441250 0.441620 -0.519697
C2    C     C_R   0.346953 0.582497 0.419600 0.704424
O6    O     O_R   0.505470 0.558750 0.558380 -0.517968
O7    O     O_3   0.339200 0.459480 0.500000 -0.355323
V1    V     V_3+5 0.064350 0.507520 0.500000 1.404140
O8    O     O_R   0.676160 0.433630 0.442040 -0.522635
C3    C     C_R   0.845518 0.415472 0.419865 0.717290
O9    O     O_R   0.675730 0.435240 0.557960 -0.532339
C4    C     C_R   0.842841 0.420339 0.577544 0.746672
V2    V     V_3+5 0.564340 0.492480 0.500000 1.406511
O10   O     O_3   0.839360 0.540520 0.500000 -0.354916
C5    C     C_3   0.954399 0.336723 0.778302 0.759556
C6    C     C_3   0.687345 0.263179 0.728366 -0.392286
C7    C     C_3   0.707547 0.207300 0.773493 -0.348524
H1    H     H_    0.627985 0.241565 0.684381 0.155800
H2    H     H_    0.581967 0.300265 0.747305 0.188867
H3    H     H_    0.589950 0.210619 0.808765 0.159074
H4    H     H_    0.691614 0.158094 0.748214 0.155107
C8    C     C_1   0.929793 0.122041 0.885983 -0.204403
C9    C     C_3   0.885601 0.297359 0.717135 0.180482
C10   C     C_3   0.938009 0.285378 0.831965 -0.048439
C11   C     C_3   0.907531 0.212847 0.803420 0.225218
C12   C     C_3   0.062958 0.198028 0.752878 -0.391685
C13   C     C_3   0.032773 0.242419 0.698324 -0.391439
C14   C     C_1   0.921950 0.163418 0.849069 -0.070881
C15   C     C_1   0.863136 0.340087 0.666377 -0.071970
C16   C     C_1   0.849518 0.375937 0.624989 -0.213186
H5    H     H_    0.173074 0.263748 0.683683 0.161889
H6    H     H_    0.978159 0.211447 0.658330 0.164128
H7    H     H_    0.208606 0.207490 0.772108 0.160120
H8    H     H_    0.077826 0.285816 0.856336 0.137549
H9    H     H_    0.056492 0.144847 0.736117 0.158611
C17   C     C_1   0.921632 0.130505 0.138366 -0.214162
C18   C     C_1   0.910183 0.173868 0.181142 0.000176
C19   C     C_1   0.895588 0.225052 0.232009 -0.001329
C20   C     C_1   0.883061 0.268182 0.274956 -0.001473
C21   C     C_1   0.868468 0.319360 0.325828 -0.000299
C22   C     C_1   0.857022 0.362713 0.368613 -0.215228
C23   C     C_1   0.354655 0.635090 0.633907 -0.220545
C24   C     C_1   0.366546 0.676604 0.678430 0.001018
C25   C     C_1   0.382401 0.725536 0.731488 -0.002708
C26   C     C_1   0.396122 0.766740 0.776198 -0.003329
C27   C     C_1   0.411989 0.815810 0.829155 0.000221
C28   C     C_1   0.423908 0.857540 0.873514 -0.219259
C29   C     C_1   0.360602 0.633867 0.368154 -0.209522
C30   C     C_1   0.371412 0.675724 0.325707 0.011299
C31   C     C_1   0.384173 0.725695 0.274798 -0.003768
C32   C     C_1   0.394802 0.767427 0.232238 -0.003886
C33   C     C_1   0.407554 0.817398 0.181330 0.010928
C34   C     C_1   0.418340 0.859257 0.138884 -0.209434
O11   O     O_R   0.273200 0.934350 0.948680 -0.518861
O12   O     O_R   0.602630 0.928390 0.064980 -0.520392
O13   O     O_R   0.772790 0.051930 0.065390 -0.519975
C35   C     C_R   0.431911 0.910631 0.087440 0.702742
O14   O     O_R   0.602920 0.926780 0.949060 -0.522278
O15   O     O_R   0.773080 0.050310 0.948640 -0.529932
C36   C     C_R   0.434337 0.908936 0.926403 0.718396
O16   O     O_R   0.272900 0.935970 0.065430 -0.519004
O17   O     O_3   0.439420 0.033650 0.007040 -0.354111
V3    V     V_3+5 0.714330 0.985650 0.007020 1.409381
O18   O     O_R   0.102790 0.057980 0.949020 -0.534126
C37   C     C_R   0.935687 0.073187 0.929654 0.745590
O19   O     O_R   0.102500 0.059590 0.064940 -0.522567
C38   C     C_R   0.933144 0.077731 0.087128 0.717348
V4    V     V_3+5 0.214320 0.000760 0.006970 1.408967
O20   O     O_3   0.939360 0.952680 0.006990 -0.356059
C39   C     C_3   0.784617 0.302586 0.882643 -0.816053
H10   H     H_    0.842484 0.340203 0.916606 0.194050
H11   H     H_    0.649987 0.320589 0.862706 0.241707
H12   H     H_    0.746813 0.258947 0.909824 0.217430
O21   O     O_3   0.153676 0.355706 0.773831 -0.592482
C40   C     C_3   0.197949 0.402507 0.728797 0.065285
H13   H     H_    0.076362 0.434880 0.718252 0.160469
H14   H     H_    0.245483 0.375871 0.685369 0.127891
C41   C     C_3   0.363257 0.447016 0.750912 -0.734325
H15   H     H_    0.491088 0.416418 0.758466 0.264405
H16   H     H_    0.399664 0.483498 0.715679 0.176452
H17   H     H_    0.323427 0.474392 0.794762 0.219691
O22   O     O_3   0.832767 0.393431 0.789043 -0.584412
C42   C     C_3   0.892149 0.439314 0.837042 0.092402
H18   H     H_    0.038329 0.430544 0.854695 0.152215
H19   H     H_    0.788755 0.436434 0.876155 0.137916
C43   C     C_3   0.878856 0.510424 0.816222 -0.750917
H20   H     H_    0.734665 0.518950 0.797091 0.233712
H21   H     H_    0.900955 0.545977 0.856262 0.185017
H22   H     H_    0.989874 0.520883 0.780876 0.214398

loop_
_geom_bond_atom_site_label_1
_geom_bond_atom_site_label_2
_ccdc_geom_bond_type
C9    C15   S    
C34   C35   S    
C6    H2    S    
C10   C39   S    
C20   C21   S    
O2    C1    A    
C1    O6    A    
C32   C33   S    
C23   C24   T    
C10   C11   S    
C5    C10   S    
C12   C13   S    
C3    C22   S    
C39   H12   S    
O5    C3    A    
C17   C18   T    
O12   C35   A    
V2    O10   S    
C13   H5    S    
O14   C36   A    
C6    C7    S    
C8    C37   S    
C25   C26   T    
O8    V2    S    
C26   C27   S    
C12   H7    S    
O19   C38   A    
C5    O21   S    
O16   V4    S    
V4    O20   S    
O1    V2    S    
O17   V4    S    
C7    C11   S    
O7    V1    S    
C40   H14   S    
O18   C37   A    
C17   C38   S    
O9    C4    A    
C11   C14   S    
C6    C9    S    
C41   H17   S    
C42   H19   S    
C9    C13   S    
C30   C31   S    
C7    H3    S    
O21   C40   S    
C39   H11   S    
O12   V3    S    
C18   C19   S    
O4    C2    A    
C41   H15   S    
C1    C23   S    
C40   H13   S    
C13   H6    S    
C7    H4    S    
O15   C37   A    
O13   V3    S    
C15   C16   T    
C43   H22   S    
C29   C30   T    
O22   C42   S    
C42   H18   S    
O3    C4    A    
C10   H8    S    
C27   C28   T    
C43   H21   S    
O14   V3    S    
O6    V2    S    
O11   V4    S    
O9    V2    S    
O11   C36   A    
C24   C25   S    
C21   C22   T    
O2    V1    S    
C31   C32   T    
C42   C43   S    
C33   C34   T    
C19   C20   T    
C28   C36   S    
O1    C2    A    
C2    C29   S    
C4    C16   S    
C39   H10   S    
O5    V1    S    
O8    C3    A    
O13   C38   A    
C35   O16   A    
C5    O22   S    
C5    C9    S    
O17   V3    S    
O7    V2    S    
O4    V1    S    
O3    V1    S    
V3    O20   S    
C40   C41   S    
O18   V4    S    
C12   H9    S    
C41   H16   S    
C6    H1    S    
C8    C14   T    
O15   V3    S    
C43   H20   S    
O19   V4    S    
C11   C12   S    
V1    O10   S    
