data_mof_unit_44103.cif
_audit_creation_date              2012-12-10T17:56:46-0500
_audit_creation_method            fapswitch 2.2
_symmetry_space_group_name_H-M    P1
_symmetry_Int_Tables_number       1
_space_group_crystal_system       triclinic
_cell_length_a                    10.779368
_cell_length_b                    9.500829
_cell_length_c                    10.804166
_cell_angle_alpha                 89.996173
_cell_angle_beta                  89.626609
_cell_angle_gamma                 89.960586
_cell_volume                      1106.46255881

loop_
_atom_site_label
_atom_site_type_symbol
_atom_type_description
_atom_site_fract_x
_atom_site_fract_y
_atom_site_fract_z
_atom_type_partial_charge
C1    C     C_R   0.262557 0.499987 0.501397 0.871090
C2    C     C_R   0.737410 0.499869 0.498292 0.852446
C3    C     C_R   0.936613 0.496928 0.384891 -0.075328
C4    C     C_R   0.066767 0.498924 0.385997 -0.073008
C5    C     C_R   0.430442 0.074520 0.416716 -0.016860
C6    C     C_R   0.569566 0.074401 0.583278 -0.018551
C7    C     C_R   0.430460 0.925571 0.416703 -0.002865
C8    C     C_R   0.569544 0.925452 0.583293 -0.002532
C9    C     C_R   0.510778 0.500776 0.262133 0.913355
C10   C     C_R   0.489415 0.500797 0.737890 0.921237
C11   C     C_R   0.570998 0.761468 0.108614 0.444641
C12   C     C_R   0.429175 0.761619 0.891395 0.440706
C13   C     C_R   0.538213 0.889018 0.051599 -0.278543
C14   C     C_R   0.462010 0.889099 0.948398 -0.280797
C15   C     C_R   0.476090 0.633020 0.939576 -0.009308
C16   C     C_R   0.524047 0.632964 0.060431 0.001907
C17   C     C_R   0.521261 0.503834 0.127098 -0.037492
C18   C     C_R   0.478806 0.503886 0.872922 -0.034218
C19   C     C_R   0.507054 0.376635 0.063413 -0.183881
C20   C     C_R   0.492722 0.376647 0.936644 -0.170931
C21   C     C_R   0.063194 0.499372 0.614368 -0.081637
C22   C     C_R   0.933123 0.500519 0.613041 -0.170116
C23   C     C_R   0.871327 0.499422 0.498550 -0.159658
C24   C     C_R   0.128604 0.499928 0.500704 -0.159823
Cu1   Cu    Cu3+1 0.500000 0.640660 0.500000 1.038662
Cu2   Cu    Cu3+1 0.500000 0.359340 0.500000 1.001013
H1    H     H_    0.508000 0.276467 0.111335 0.165216
H2    H     H_    0.491590 0.276477 0.888744 0.164621
H3    H     H_    0.569622 0.988640 0.088663 0.156723
H4    H     H_    0.430625 0.988786 0.911335 0.153444
H5    H     H_    0.374647 0.130774 0.350122 0.135140
H6    H     H_    0.625372 0.130561 0.649864 0.135303
H7    H     H_    0.374765 0.869377 0.350046 0.155951
H8    H     H_    0.625244 0.869165 0.649950 0.156279
N1    N     N_R   0.500000 0.852070 0.500000 -0.164229
N2    N     N_R   0.500000 0.147940 0.500000 -0.163495
O1    O     O_R   0.319640 0.618740 0.499990 -0.554992
O2    O     O_R   0.680360 0.618740 0.500010 -0.557039
O3    O     O_R   0.319620 0.381170 0.499990 -0.574320
O4    O     O_R   0.680380 0.381170 0.500010 -0.573921
O5    O     O_R   0.500000 0.618810 0.319650 -0.546192
O6    O     O_R   0.500000 0.618810 0.680350 -0.548914
O7    O     O_R   0.499970 0.381240 0.319640 -0.599641
O8    O     O_R   0.500030 0.381240 0.680360 -0.599357
O9    O     O_3   0.656910 0.759565 0.203019 -0.703762
H9    H     H_    0.680160 0.857548 0.224369 0.333552
O10   O     O_3   0.343221 0.759890 0.797028 -0.702104
H10   H     H_    0.319983 0.857919 0.775687 0.331784
C25   C     C_2   0.130333 0.499184 0.734450 0.845725
O11   O     O_2   0.212136 0.412806 0.753280 -0.617905
O12   O     O_R   0.097727 0.595691 0.826829 -0.693585
H11   H     H_    0.148868 0.583818 0.904589 0.358527
C26   C     C_2   0.860938 0.497881 0.731385 0.898656
O13   O     O_2   0.789032 0.593523 0.755403 -0.556047
O14   O     O_R   0.874237 0.387687 0.816017 -0.712726
H12   H     H_    0.931623 0.310800 0.784814 0.302118
C27   C     C_2   0.868986 0.494791 0.265138 0.909772
O15   O     O_2   0.788457 0.406787 0.247070 -0.593611
O16   O     O_R   0.899385 0.591718 0.172386 -0.699805
H13   H     H_    0.848125 0.578443 0.094885 0.375143
C28   C     C_2   0.138425 0.494677 0.267596 0.854718
O17   O     O_2   0.218644 0.582620 0.246767 -0.609730
O18   O     O_R   0.113166 0.390540 0.179874 -0.731766
H14   H     H_    0.167792 0.398751 0.103443 0.340962

loop_
_geom_bond_atom_site_label_1
_geom_bond_atom_site_label_2
_ccdc_geom_bond_type
Cu1   O6    S    
C5    H5    S    
C15   C18   A    
C6    H6    S    
O14   H12   S    
C2    O4    A    
Cu1   O2    S    
C10   O6    A    
C19   H1    S    
C11   C16   A    
C2    O2    A    
C9    O5    A    
C19   C20   A    
C12   C15   A    
C1    O1    A    
O10   H10   S    
C21   C25   S    
C12   C14   A    
Cu2   O8    S    
O16   H13   S    
C8    H8    S    
C26   O13   D    
C7    H7    S    
Cu2   O4    S    
C27   O15   D    
C16   C17   A    
C7    N1    A    
C14   H4    S    
C12   O10   S    
C3    C27   S    
C13   H3    S    
C17   C19   A    
C10   C18   S    
Cu2   O7    S    
C22   C26   S    
C18   C20   A    
C26   O14   S    
C28   O17   D    
C4    C24   A    
Cu2   O3    S    
C9    O7    A    
C27   O16   S    
C11   O9    S    
C1    O3    A    
C10   O8    A    
C15   C16   A    
C5    N2    A    
O9    H9    S    
C11   C13   A    
O12   H11   S    
C1    C24   S    
C5    C7    A    
C25   O11   D    
C21   C24   A    
C9    C17   S    
C2    C23   S    
Cu1   N1    S    
C22   C23   A    
Cu1   O5    S    
C6    C8    A    
C20   H2    S    
C13   C14   A    
Cu1   O1    S    
Cu1   Cu2   S    
C21   C22   A    
C3    C23   A    
C4    C28   S    
C28   O18   S    
C3    C4    A    
Cu2   N2    S    
C6    N2    A    
O18   H14   S    
C25   O12   S    
C8    N1    A    
