data_mof_unit_35050.cif
_audit_creation_date              2012-12-10T16:57:07-0500
_audit_creation_method            fapswitch 2.2
_symmetry_space_group_name_H-M    P1
_symmetry_Int_Tables_number       1
_space_group_crystal_system       triclinic
_cell_length_a                    7.923424
_cell_length_b                    8.556019
_cell_length_c                    16.580143
_cell_angle_alpha                 94.333085
_cell_angle_beta                  79.010094
_cell_angle_gamma                 93.697791
_cell_volume                      1098.80808074

loop_
_atom_site_label
_atom_site_type_symbol
_atom_type_description
_atom_site_fract_x
_atom_site_fract_y
_atom_site_fract_z
_atom_type_partial_charge
C1    C     C_R   0.545441 0.794191 0.498328 0.941590
C2    C     C_R   0.480647 0.683951 0.240058 -0.024744
C3    C     C_R   0.593049 0.506738 0.862216 -0.201936
C4    C     C_R   0.531912 0.736000 0.161077 -0.204422
C5    C     C_R   0.509662 0.640803 0.899877 0.168811
C6    C     C_R   0.648675 0.652393 0.102014 0.171711
C7    C     C_R   0.395282 0.711059 0.861237 -0.151373
C8    C     C_R   0.727312 0.524655 0.124133 -0.153046
C9    C     C_R   0.374035 0.655705 0.782856 -0.225296
C10   C     C_R   0.681324 0.474187 0.203353 -0.195069
C11   C     C_2   0.523881 0.696044 0.983999 -0.211435
C12   C     C_R   0.454505 0.205849 0.501970 1.000176
C13   C     C_2   0.665538 0.676166 0.014386 -0.223184
C14   C     C_2   0.656250 0.302108 0.747314 0.912431
C15   C     C_2   0.352284 0.774705 0.298398 0.909223
C16   C     C_3   0.021864 0.314734 0.435114 -0.129497
C17   C     C_3   0.954713 0.277943 0.354619 -0.392223
C18   C     C_3   0.048544 0.143715 0.302590 -0.891862
C19   C     C_3   0.977475 0.685610 0.564240 -0.155646
C20   C     C_3   0.044654 0.725262 0.644396 -0.408611
C21   C     C_3   0.947815 0.858378 0.696170 -0.894862
C22   C     C_2   0.569172 0.957913 0.497287 -0.357782
C23   C     C_2   0.430665 0.042211 0.503695 -0.285372
C24   C     C_R   0.475336 0.502661 0.654411 0.915685
C25   C     C_R   0.526244 0.505527 0.345955 0.849631
C26   C     C_R   0.465113 0.527945 0.742780 -0.096112
C27   C     C_R   0.554833 0.549832 0.261119 -0.097976
C28   C     C_R   0.571000 0.447978 0.783823 -0.047697
H1    H     H_    0.742946 0.374463 0.219383 0.151195
H2    H     H_    0.299621 0.991653 0.509958 0.167080
H3    H     H_    0.654314 0.108237 0.669981 0.333826
H4    H     H_    0.113941 0.778705 0.367985 0.325803
H5    H     H_    0.188204 0.175857 0.285154 0.286236
H6    H     H_    0.030739 0.036231 0.337445 0.271603
H7    H     H_    0.995129 0.118509 0.245457 0.260092
H8    H     H_    0.816373 0.241681 0.367334 0.262890
H9    H     H_    0.974150 0.383780 0.318254 0.258919
H10   H     H_    0.160207 0.326374 0.415955 0.240881
H11   H     H_    0.987190 0.215329 0.475594 0.148836
H12   H     H_    0.294040 0.718790 0.751807 0.154003
H13   H     H_    0.960834 0.965113 0.660779 0.275406
H14   H     H_    0.809161 0.822947 0.714627 0.266981
H15   H     H_    0.002310 0.886794 0.752784 0.274390
H16   H     H_    0.028061 0.620038 0.681160 0.250166
H17   H     H_    0.182226 0.763874 0.631000 0.258767
H18   H     H_    0.010615 0.784277 0.523220 0.150371
H19   H     H_    0.839403 0.672973 0.583845 0.234058
H20   H     H_    0.782418 0.639979 0.973345 0.156268
H21   H     H_    0.405798 0.731525 0.024170 0.153724
H22   H     H_    0.325921 0.811345 0.890910 0.140897
H23   H     H_    0.817902 0.459087 0.078959 0.135876
H24   H     H_    0.474573 0.837880 0.144579 0.143478
H25   H     H_    0.670746 0.444352 0.894987 0.165162
H26   H     H_    0.700215 0.008453 0.491017 0.164710
N1    N     N_2   0.953500 0.457650 0.478520 -0.049873
N2    N     N_2   0.046500 0.542350 0.521480 -0.049167
O1    O     O_R   0.388470 0.738640 0.505270 -0.620603
O2    O     O_R   0.584805 0.203738 0.689928 -0.811005
O3    O     O_2   0.385705 0.912618 0.317116 -0.670959
O4    O     O_R   0.190257 0.705081 0.328518 -0.781641
O5    O     O_R   0.611530 0.261360 0.494730 -0.616944
O6    O     O_R   0.679650 0.711510 0.491500 -0.659369
O7    O     O_R   0.320350 0.288490 0.508500 -0.655826
O8    O     O_R   0.337210 0.515200 0.623500 -0.626758
O9    O     O_R   0.662790 0.484800 0.376500 -0.625645
O10   O     O_R   0.628380 0.488060 0.609730 -0.626980
O11   O     O_R   0.371620 0.511940 0.390270 -0.599933
O12   O     O_2   0.787124 0.265933 0.768804 -0.641758
Zn1   Zn    Zn3+2 0.305580 0.518120 0.509190 0.946927
Zn2   Zn    Zn3+2 0.694420 0.481880 0.490810 0.936800

loop_
_geom_bond_atom_site_label_1
_geom_bond_atom_site_label_2
_ccdc_geom_bond_type
C10   C27   A    
C19   N2    S    
C13   H20   S    
C2    C4    A    
N1    N2    D    
C2    C27   A    
C11   H21   S    
C17   H8    S    
C1    O1    A    
C25   C27   S    
C11   C13   D    
C15   O4    S    
C26   C28   A    
C20   H17   S    
C25   O11   A    
C24   O10   A    
C3    C5    A    
C14   C28   S    
C1    O6    A    
C19   C20   S    
C17   C18   S    
C16   N1    S    
C1    C22   S    
C24   O8    A    
O5    Zn2   S    
C17   H9    S    
O8    Zn1   S    
C6    C13   S    
C2    C15   S    
C3    H25   S    
C12   C23   S    
O10   Zn2   S    
C4    H24   S    
C21   H13   S    
H3    O2    S    
C8    C10   A    
C3    C28   A    
C20   H16   S    
C24   C26   S    
C9    C26   A    
C5    C11   S    
C7    C9    A    
C22   H26   S    
C18   H6    S    
C14   O2    S    
C18   H5    S    
C19   H19   S    
C19   H18   S    
N1    Zn2   S    
H4    O4    S    
C16   H11   S    
C21   H14   S    
C23   H2    S    
C10   H1    S    
C25   O9    A    
C20   C21   S    
O6    Zn2   S    
C4    C6    A    
N2    Zn1   S    
C18   H7    S    
C8    H23   S    
C5    C7    A    
C12   O7    A    
C14   O12   D    
C22   C23   D    
C6    C8    A    
C12   O5    A    
O1    Zn1   S    
O9    Zn2   S    
C21   H15   S    
C15   O3    D    
C9    H12   S    
O7    Zn1   S    
C7    H22   S    
C16   H10   S    
C16   C17   S    
O11   Zn1   S    
