data_mof_unit_7853.cif
_audit_creation_date              2012-12-10T17:47:45-0500
_audit_creation_method            fapswitch 2.2
_symmetry_space_group_name_H-M    P1
_symmetry_Int_Tables_number       1
_space_group_crystal_system       triclinic
_cell_length_a                    14.692419
_cell_length_b                    14.643233
_cell_length_c                    14.353548
_cell_angle_alpha                 76.102853
_cell_angle_beta                  101.816136
_cell_angle_gamma                 115.353747
_cell_volume                      2690.61208146

loop_
_atom_site_label
_atom_site_type_symbol
_atom_type_description
_atom_site_fract_x
_atom_site_fract_y
_atom_site_fract_z
_atom_type_partial_charge
C1    C     C_R   0.879762 0.311149 0.512471 0.806553
C2    C     C_R   0.120383 0.689325 0.486531 0.835168
C3    C     C_R   0.644193 0.075890 0.457810 -0.017978
C4    C     C_R   0.362734 0.925474 0.444031 -0.057987
C5    C     C_R   0.673303 0.994771 0.508306 -0.070420
C6    C     C_R   0.325214 0.002117 0.398975 -0.009091
C7    C     C_R   0.538282 0.052367 0.428391 0.063808
C8    C     C_R   0.467965 0.949208 0.446636 0.053999
C9    C     C_R   0.504975 0.872045 0.464543 -0.301100
C10   C     C_R   0.499375 0.127879 0.390147 -0.357141
C11   C     C_R   0.607203 0.893309 0.497201 0.392785
C12   C     C_R   0.394917 0.103755 0.370090 0.452829
C13   C     C_R   0.708327 0.650869 0.320927 0.005275
C14   C     C_R   0.298044 0.350238 0.671394 0.068857
C15   C     C_R   0.795214 0.629080 0.358486 0.527783
C16   C     C_R   0.214525 0.376837 0.644536 0.472112
C17   C     C_R   0.711576 0.513198 0.491071 0.487358
C18   C     C_R   0.281896 0.483886 0.501047 0.512307
C19   C     C_R   0.616776 0.516425 0.446439 -0.143895
C20   C     C_R   0.360615 0.445967 0.516805 -0.205705
C21   C     C_R   0.615229 0.586236 0.359280 -0.039353
C22   C     C_R   0.364628 0.374318 0.602582 -0.055654
C23   C     C_R   0.999802 0.499697 0.668850 0.785708
C24   C     C_R   0.000173 0.500234 0.331163 0.827946
C25   C     C_R   0.524201 0.454947 0.488322 0.037684
C26   C     C_R   0.438256 0.479553 0.454334 -0.018094
C27   C     C_R   0.430761 0.526990 0.356229 0.029869
C28   C     C_R   0.509277 0.362719 0.555423 0.159416
C29   C     C_R   0.520463 0.585695 0.310669 0.417814
C30   C     C_R   0.432329 0.325512 0.616132 0.428812
C31   C     C_1   0.999750 0.499655 0.771210 -0.150713
C32   C     C_1   0.000179 0.500060 0.228857 -0.183896
C33   C     C_1   0.999815 0.499649 0.856648 0.011390
C34   C     C_1   0.000152 0.499913 0.143471 0.001724
C35   C     C_1   0.999950 0.499696 0.957362 0.016878
C36   C     C_1   0.000062 0.499775 0.042794 0.016051
C37   C     C_R   0.810961 0.200968 0.511137 -0.139427
C38   C     C_R   0.189551 0.800997 0.470403 -0.132426
C39   C     C_R   0.767002 0.017230 0.568184 0.440842
C40   C     C_R   0.219699 0.977340 0.388940 0.444630
C41   C     C_R   0.832384 0.119943 0.574393 0.047630
C42   C     C_R   0.152637 0.878729 0.429414 -0.017431
C43   C     C_R   0.721615 0.176574 0.444704 0.098374
C44   C     C_R   0.295421 0.829616 0.490750 0.111003
Cu1   Cu    Cu3+1 0.081740 0.475690 0.523180 0.978813
Cu2   Cu    Cu3+1 0.918260 0.524310 0.476820 0.972127
H1    H     H_    0.453867 0.794472 0.456399 0.150560
H2    H     H_    0.548444 0.207480 0.377768 0.160915
N1    N     N_R   0.795420 0.560790 0.441960 -0.238675
N2    N     N_R   0.204580 0.439210 0.558040 -0.237661
O1    O     O_R   0.977910 0.338120 0.530560 -0.601684
O2    O     O_R   0.022090 0.661880 0.469440 -0.524267
O3    O     O_R   0.839850 0.379180 0.491410 -0.602371
O4    O     O_R   0.160150 0.620820 0.508590 -0.525534
O5    O     O_R   0.069040 0.479460 0.643530 -0.550447
O6    O     O_R   0.930960 0.520540 0.356470 -0.520391
O7    O     O_R   0.930990 0.520530 0.604380 -0.561480
O8    O     O_R   0.069010 0.479470 0.395620 -0.519183
O9    O     O_3   0.643402 0.816804 0.517547 -0.702565
H3    H     H_    0.587018 0.751093 0.504963 0.316402
O10   O     O_3   0.360662 0.180774 0.329311 -0.652886
H4    H     H_    0.418883 0.246941 0.314013 0.317292
C45   C     C_3   0.329280 0.495864 0.293711 -0.743564
H5    H     H_    0.334750 0.468443 0.230142 0.237792
H6    H     H_    0.268303 0.431109 0.332198 0.255508
H7    H     H_    0.306603 0.561700 0.267466 0.237067
C46   C     C_3   0.556316 0.291154 0.547480 -0.825418
H8    H     H_    0.495297 0.215059 0.538112 0.247291
H9    H     H_    0.599251 0.318982 0.484206 0.221596
H10   H     H_    0.607320 0.280210 0.613775 0.234231
C47   C     C_3   0.334083 0.771922 0.581712 -0.774915
H11   H     H_    0.344679 0.706841 0.565979 0.245119
H12   H     H_    0.406333 0.823561 0.617079 0.226928
H13   H     H_    0.279676 0.741169 0.636328 0.219940
C48   C     C_3   0.722817 0.248689 0.348883 -0.812989
H14   H     H_    0.666427 0.208359 0.292185 0.234883
H15   H     H_    0.708371 0.314932 0.356141 0.233637
H16   H     H_    0.797947 0.278473 0.322293 0.219073
C49   C     C_3   0.046853 0.863801 0.441578 -0.742408
H17   H     H_    0.020507 0.809999 0.508888 0.250608
H18   H     H_    0.045538 0.936496 0.450445 0.236395
H19   H     H_    0.993542 0.837230 0.377613 0.262557
C50   C     C_3   0.923347 0.141582 0.650124 -0.735980
H20   H     H_    0.993454 0.172771 0.614610 0.241341
H21   H     H_    0.923688 0.195862 0.692578 0.198253
H22   H     H_    0.923038 0.072487 0.703010 0.269713
O11   O     O_3   0.792675 0.940402 0.627553 -0.684055
H23   H     H_    0.731930 0.889943 0.658752 0.349137
O12   O     O_3   0.183357 0.050862 0.339982 -0.655552
H24   H     H_    0.113513 0.016504 0.309097 0.325091
O13   O     O_3   0.515759 0.634228 0.215523 -0.735768
H25   H     H_    0.455128 0.650743 0.199304 0.330460
O14   O     O_3   0.414971 0.235341 0.682068 -0.739177
H26   H     H_    0.479358 0.226229 0.704289 0.331269
O15   O     O_3   0.284436 0.569633 0.434415 -0.701352
H27   H     H_    0.356345 0.617590 0.431405 0.295576
O16   O     O_3   0.719810 0.468456 0.586409 -0.719501
H28   H     H_    0.760661 0.428354 0.592703 0.355643
O17   O     O_3   0.145934 0.341843 0.710253 -0.733886
H29   H     H_    0.078591 0.323504 0.673806 0.358801
O18   O     O_3   0.881729 0.676307 0.312561 -0.708084
H30   H     H_    0.863166 0.696005 0.242645 0.308747
C51   C     C_3   0.719105 0.747178 0.247170 -0.735428
H31   H     H_    0.797510 0.806863 0.254146 0.207930
H32   H     H_    0.699689 0.729183 0.172931 0.256923
H33   H     H_    0.670178 0.782590 0.259564 0.262697
C52   C     C_3   0.315124 0.298651 0.774700 -0.643142
H34   H     H_    0.283660 0.320736 0.825632 0.239914
H35   H     H_    0.278353 0.213980 0.780052 0.258922
H36   H     H_    0.397404 0.323542 0.800108 0.224916

loop_
_geom_bond_atom_site_label_1
_geom_bond_atom_site_label_2
_ccdc_geom_bond_type
C7    C10   A    
O11   H23   S    
C45   H6    S    
O14   H26   S    
C27   C29   A    
O15   H27   S    
C39   O11   S    
C4    C8    A    
O16   H28   S    
C7    C8    A    
C39   C41   A    
Cu1   Cu2   S    
C25   C28   A    
Cu2   N1    S    
C3    C43   A    
C26   C27   A    
O18   H30   S    
C50   H20   S    
C19   C21   A    
C16   N2    A    
C5    C11   A    
C30   O14   S    
C3    C7    A    
C6    C12   A    
Cu1   O1    S    
C41   C50   S    
Cu2   O2    S    
C44   C47   S    
C1    O3    A    
C33   C35   S    
C35   C36   T    
C8    C9    A    
C52   H34   S    
C31   C33   T    
C40   O12   S    
C13   C51   S    
C18   C20   A    
C1    C37   S    
C40   C42   A    
C45   H7    S    
O9    H3    S    
C18   O15   S    
C52   H35   S    
C11   O9    S    
C10   C12   A    
C43   C48   S    
Cu1   O8    S    
C46   H8    S    
C6    C40   A    
C4    C6    A    
C2    O4    A    
C17   N1    A    
O13   H25   S    
C47   H12   S    
C4    C44   A    
C25   C26   A    
C21   C29   A    
C49   H17   S    
C46   H9    S    
C23   C31   S    
C37   C43   A    
C48   H14   S    
C24   C32   S    
C38   C44   A    
C49   H19   S    
C48   H15   S    
C2    C38   S    
O17   H29   S    
C28   C46   S    
C13   C21   A    
C51   H32   S    
C15   O18   S    
C1    O1    A    
C2    O2    A    
C14   C52   S    
C50   H21   S    
C20   C22   A    
Cu1   O4    S    
C9    H1    S    
C9    C11   A    
Cu2   O7    S    
C10   H2    S    
C52   H36   S    
C14   C16   A    
C29   O13   S    
C18   N2    A    
C49   H18   S    
C23   O7    A    
C5    C39   A    
C22   C30   A    
C3    C5    A    
C47   H13   S    
C16   O17   S    
C23   O5    A    
C24   O6    A    
C46   H10   S    
C14   C22   A    
C13   C15   A    
C47   H11   S    
C12   O10   S    
C20   C26   A    
Cu1   N2    S    
Cu2   O3    S    
C28   C30   A    
C17   C19   A    
C51   H33   S    
C34   C36   S    
C15   N1    A    
C37   C41   A    
O10   H4    S    
C19   C25   A    
C48   H16   S    
C45   H5    S    
C38   C42   A    
C42   C49   S    
C50   H22   S    
Cu1   O5    S    
C24   O8    A    
Cu2   O6    S    
C51   H31   S    
C27   C45   S    
O12   H24   S    
C17   O16   S    
C32   C34   T    
