data_mof_unit_55019.cif
_audit_creation_date              2013-03-05T16:46:35-0500
_audit_creation_method            fapswitch 2.2
_symmetry_space_group_name_H-M    P1
_symmetry_Int_Tables_number       1
_space_group_crystal_system       triclinic
_cell_length_a                    12.786025
_cell_length_b                    8.925142
_cell_length_c                    8.16451
_cell_angle_alpha                 89.99935
_cell_angle_beta                  94.843436
_cell_angle_gamma                 90.000639
_cell_volume                      928.383102574

loop_
_atom_site_label
_atom_site_type_symbol
_atom_site_description
_atom_site_fract_x
_atom_site_fract_y
_atom_site_fract_z
_atom_type_partial_charge
O1    O     O_R   0.499990 0.285340 0.636850 -0.590979
O2    O     O_R   0.500010 0.714660 0.363150 -0.617038
O3    O     O_R   0.500010 0.285340 0.363150 -0.591008
O4    O     O_R   0.499990 0.714660 0.636850 -0.617034
N1    N     N_1   0.500020 0.500000 0.073640 0.052667
N2    N     N_1   0.499980 0.500000 0.926360 0.052674
C1    C     C_R   0.499997 0.218222 0.500000 0.945589
C2    C     C_R   0.499999 0.781764 0.499999 0.925929
O5    O     O_R   0.346350 0.500000 0.614250 -0.582386
O6    O     O_R   0.653650 0.500000 0.385750 -0.582410
O7    O     O_R   0.346360 0.500000 0.340500 -0.577862
O8    O     O_R   0.653640 0.500000 0.659500 -0.577838
C3    C     C_R   0.299682 0.476489 0.471493 0.923553
C4    C     C_R   0.700329 0.476532 0.528512 0.923597
Zn1   Zn    Zn3+2 0.499990 0.500000 0.682780 1.137386
Zn2   Zn    Zn3+2 0.500010 0.500000 0.317220 1.137361
C5    C     C_R   0.809578 0.428464 0.541117 -0.306267
C6    C     C_R   0.190443 0.428388 0.458907 -0.306245
C7    C     C_R   0.033192 0.383916 0.285419 -0.151806
C8    C     C_R   0.966822 0.383914 0.714610 -0.151850
C9    C     C_R   0.141746 0.376488 0.308877 0.404889
C10   C     C_R   0.858266 0.376532 0.691141 0.404915
C11   C     C_R   0.134219 0.423518 0.599765 0.266238
C12   C     C_R   0.865806 0.423598 0.400270 0.266175
C13   C     C_R   0.025415 0.412235 0.580224 -0.069743
C14   C     C_R   0.974608 0.412259 0.419809 -0.069698
H1    H     H_    0.994995 0.354720 0.166546 0.245187
H2    H     H_    0.005010 0.354716 0.833487 0.245182
C15   C     C_1   0.499996 0.065279 0.500000 -0.042620
C16   C     C_1   0.499997 0.934763 0.499998 -0.108457
N3    N     N_R   0.811943 0.409464 0.240439 0.235066
O9    O     O_R   0.748917 0.296571 0.210074 -0.322856
O10   O     O_R   0.823742 0.509737 0.127750 -0.354353
N4    N     N_R   0.188079 0.409405 0.759608 0.235060
O11   O     O_R   0.251143 0.296561 0.789998 -0.322808
O12   O     O_R   0.176353 0.509778 0.872225 -0.354342
S1    S     S_3+6 0.792807 0.247837 0.812604 0.081781
O13   O     O_2   0.705565 0.321941 0.893846 -0.202142
O14   O     O_2   0.746838 0.125880 0.701701 -0.326399
O15   O     O_3   0.878036 0.170990 0.956930 -0.512892
H3    H     H_    0.840211 0.084747 0.000361 0.407755
S2    S     S_3+6 0.207149 0.247695 0.187461 0.081738
O16   O     O_2   0.294542 0.321592 0.106401 -0.202253
O17   O     O_2   0.252889 0.125607 0.298376 -0.326308
O18   O     O_3   0.121925 0.171080 0.042974 -0.512916
H4    H     H_    0.159667 0.084732 0.999611 0.407769

loop_
_geom_bond_atom_site_label_1
_geom_bond_atom_site_label_2
_geom_bond_distance
_ccdc_geom_bond_type
N3    O10   1.301380 A    
S1    O13   1.498885 D    
O1    Zn1   1.952230 S    
C6    C9    1.404959 A    
O2    Zn2   1.952230 S    
O7    Zn2   1.989655 S    
N4    O12   1.301424 A    
C5    C10   1.404960 A    
O8    Zn1   1.989655 S    
O4    C2    1.267717 A    
C11   N4    1.428802 S    
C2    C16   1.365538 S    
O4    Zn1   1.952221 S    
O5    Zn1   1.996620 S    
C12   N3    1.428746 S    
S1    O14   1.503413 D    
O6    Zn2   1.996620 S    
O18   H4    0.990466 S    
O7    C3    1.285235 A    
C4    C5    1.456574 S    
C15   C16   1.164873 T    
S2    O17   1.503328 D    
C3    C6    1.456528 S    
C6    C11   1.407428 A    
C1    C15   1.365035 S    
O15   H3    0.990488 S    
C7    C9    1.386600 A    
O8    C4    1.285217 A    
S1    O15   1.682148 S    
O3    C1    1.267776 A    
C11   C13   1.390503 A    
N1    N2    1.202426 T    
N2    Zn1   1.988723 S    
C5    C12   1.407391 A    
C8    C13   1.402767 A    
C8    C10   1.386611 A    
C9    S2    1.772951 S    
C7    H1    1.080888 S    
N4    O11   1.300902 A    
O6    C4    1.281091 A    
C7    C14   1.402776 A    
O5    C3    1.281065 A    
N1    Zn2   1.988721 S    
C8    H2    1.080886 S    
C13   C14   1.411974 A    
O1    C1    1.267780 A    
C10   S1    1.772959 S    
O2    C2    1.267719 A    
O3    Zn2   1.952222 S    
N3    O9    1.300901 A    
S2    O16   1.498814 D    
C12   C14   1.390506 A    
S2    O18   1.682118 S    
