data_mof_unit_66529.cif
_audit_creation_date              2012-12-10T18:09:49-0500
_audit_creation_method            fapswitch 2.2
_symmetry_space_group_name_H-M    P1
_symmetry_Int_Tables_number       1
_space_group_crystal_system       triclinic
_cell_length_a                    11.029954
_cell_length_b                    12.899906
_cell_length_c                    13.390911
_cell_angle_alpha                 82.740281
_cell_angle_beta                  99.958357
_cell_angle_gamma                 101.450864
_cell_volume                      1830.89235107

loop_
_atom_site_label
_atom_site_type_symbol
_atom_type_description
_atom_site_fract_x
_atom_site_fract_y
_atom_site_fract_z
_atom_type_partial_charge
C1    C     C_R   0.487092 0.439718 0.691343 0.880973
C2    C     C_3   0.119202 0.493537 0.501190 -0.212569
C3    C     C_3   0.048961 0.512477 0.384261 0.539894
C4    C     C_3   0.109447 0.580411 0.576667 0.534333
C5    C     C_R   0.669961 0.691447 0.090661 -0.004072
C6    C     C_R   0.533331 0.590533 0.204583 -0.258643
C7    C     C_R   0.406457 0.298684 0.827777 -0.084783
C8    C     C_R   0.384754 0.270085 0.929053 0.432692
C9    C     C_R   0.445545 0.334074 0.006008 0.375053
C10   C     C_R   0.506596 0.439018 0.978988 -0.134606
C11   C     C_R   0.539251 0.462505 0.880309 -0.090286
C12   C     C_R   0.742246 0.499932 0.502567 0.837820
C13   C     C_R   0.542341 0.520136 0.046846 0.066667
C14   C     C_R   0.624234 0.614988 0.020381 -0.030509
C15   C     C_R   0.653498 0.633877 0.922157 0.040167
C16   C     C_R   0.635084 0.548505 0.864493 0.155730
C17   C     C_R   0.492470 0.513121 0.136619 -0.313450
C18   C     C_R   0.612749 0.685655 0.176100 0.495083
C19   C     C_R   0.479551 0.398997 0.801052 -0.177237
C20   C     C_R   0.331442 0.101502 0.326945 -0.317820
C21   C     C_R   0.664319 0.802673 0.629676 0.116483
C22   C     C_R   0.688739 0.901910 0.669822 0.331597
C23   C     C_R   0.512498 0.558899 0.309808 0.841909
C24   C     C_R   0.615864 0.977490 0.627424 0.009117
C25   C     C_R   0.536694 0.963116 0.533094 -0.103327
C26   C     C_R   0.509521 0.858525 0.499117 0.051044
C27   C     C_R   0.477379 0.045705 0.474627 -0.023289
C28   C     C_R   0.388173 0.022214 0.387208 0.011983
C29   C     C_R   0.351416 0.919059 0.361901 0.347221
C30   C     C_R   0.415312 0.839945 0.413420 -0.033181
C31   C     C_R   0.503039 0.152391 0.497116 -0.042516
C32   C     C_R   0.351330 0.200959 0.359754 0.246109
C33   C     C_R   0.257733 0.498372 0.499376 0.884317
C34   C     C_3   0.912189 0.383551 0.553200 0.125938
C35   C     C_3   0.055200 0.376520 0.548055 0.450334
C36   C     C_3   0.904752 0.517823 0.385171 0.100136
C37   C     C_3   0.968397 0.592911 0.564667 0.143378
C38   C     C_3   0.880307 0.498903 0.502053 -0.137409
H1    H     H_    0.419107 0.448506 0.154688 0.222801
H2    H     H_    0.269220 0.086160 0.256813 0.184300
H3    H     H_    0.579266 0.184501 0.552223 0.168926
N1    N     N_R   0.433240 0.222190 0.444680 -0.122244
N2    N     N_R   0.566070 0.776970 0.554790 -0.128570
O1    O     O_R   0.468120 0.366740 0.627160 -0.601571
O2    O     O_R   0.510770 0.544830 0.662520 -0.604149
O3    O     O_R   0.663880 0.410950 0.482330 -0.599568
O4    O     O_R   0.706530 0.589040 0.517700 -0.620935
O5    O     O_R   0.489230 0.455170 0.337480 -0.621376
O6    O     O_R   0.531880 0.633260 0.372840 -0.562541
O7    O     O_R   0.293470 0.410960 0.482300 -0.586067
O8    O     O_R   0.336120 0.589050 0.517670 -0.596718
Zn1   Zn    Zn3+2 0.471520 0.381090 0.476390 0.952183
Zn2   Zn    Zn3+2 0.528480 0.618910 0.523610 0.963020
N3    N     N_3   0.825557 0.298174 0.499563 -0.402214
H4    H     H_    0.850230 0.285283 0.431328 0.241276
H5    H     H_    0.813605 0.226462 0.545917 0.164151
O9    O     O_3   0.178952 0.684640 0.550265 -0.631720
C39   C     C_3   0.271986 0.736585 0.625528 0.147370
H6    H     H_    0.322695 0.802896 0.581527 0.179866
H7    H     H_    0.343310 0.688682 0.662443 0.163209
C40   C     C_3   0.227475 0.791500 0.704748 -0.485896
H8    H     H_    0.148932 0.831596 0.669907 0.239873
H9    H     H_    0.196861 0.735749 0.768657 0.213289
C41   C     C_3   0.335826 0.873599 0.751863 -0.955176
H10   H     H_    0.417880 0.835660 0.784060 0.262029
H11   H     H_    0.308661 0.908418 0.814159 0.281604
H12   H     H_    0.363632 0.939183 0.693696 0.278910
N4    N     N_3   0.876681 0.622750 0.338893 -0.418339
H13   H     H_    0.787309 0.629656 0.349395 0.194961
H14   H     H_    0.867458 0.629127 0.259859 0.171637
O10   O     O_3   0.110792 0.609263 0.336596 -0.664029
C42   C     C_3   0.086056 0.621719 0.227570 0.078495
H15   H     H_    0.068614 0.703420 0.204044 0.160523
H16   H     H_    0.999593 0.570890 0.193721 0.122947
C43   C     C_3   0.197943 0.608953 0.178853 -0.372713
H17   H     H_    0.248504 0.688851 0.154875 0.206763
H18   H     H_    0.263829 0.567760 0.234130 0.221640
C44   C     C_3   0.157211 0.548226 0.084218 -0.975006
H19   H     H_    0.111727 0.465403 0.105100 0.265472
H20   H     H_    0.240119 0.545911 0.048487 0.271229
H21   H     H_    0.090784 0.588187 0.027733 0.261803
O11   O     O_3   0.632553 0.775134 0.228071 -0.631723
C45   C     C_3   0.535708 0.834099 0.188451 0.132148
H22   H     H_    0.527415 0.883187 0.248110 0.173218
H23   H     H_    0.443857 0.781801 0.169186 0.118724
C46   C     C_3   0.561539 0.910420 0.093778 -0.434731
H24   H     H_    0.640728 0.975416 0.114640 0.223161
H25   H     H_    0.585826 0.868688 0.035483 0.227120
C47   C     C_3   0.444920 0.955807 0.044506 -0.890891
H26   H     H_    0.372093 0.892063 0.010538 0.261332
H27   H     H_    0.468894 0.019006 0.982983 0.274610
H28   H     H_    0.405222 0.989265 0.101280 0.288976
N5    N     N_3   0.655461 0.737511 0.869057 -0.419338
H29   H     H_    0.612986 0.783447 0.906383 0.180637
H30   H     H_    0.590780 0.728300 0.802468 0.203777
N6    N     N_3   0.783456 0.767619 0.083931 -0.449897
H31   H     H_    0.852707 0.728234 0.071030 0.165158
H32   H     H_    0.771210 0.827060 0.024932 0.195742
N7    N     N_3   0.360720 0.222391 0.754557 -0.419356
H33   H     H_    0.265240 0.194734 0.755409 0.182455
H34   H     H_    0.405732 0.157331 0.777714 0.210727
O12   O     O_3   0.442223 0.290176 0.105785 -0.670324
C48   C     C_3   0.564118 0.288772 0.160935 0.081133
H35   H     H_    0.564856 0.312698 0.237812 0.199147
H36   H     H_    0.640763 0.344497 0.127361 0.126060
C49   C     C_3   0.592870 0.176678 0.172933 -0.328594
H37   H     H_    0.512698 0.119695 0.198940 0.251798
H38   H     H_    0.607351 0.157071 0.097985 0.221730
C50   C     C_3   0.709215 0.166552 0.251108 -0.989188
H39   H     H_    0.791221 0.225131 0.229760 0.272388
H40   H     H_    0.730272 0.085413 0.255301 0.266488
H41   H     H_    0.692039 0.179473 0.327455 0.273331
O13   O     O_3   0.302238 0.178316 0.953384 -0.632605
C51   C     C_3   0.179742 0.202148 0.940612 0.069205
H42   H     H_    0.112666 0.130697 0.917000 0.176910
H43   H     H_    0.162629 0.266893 0.879041 0.110269
C52   C     C_3   0.149747 0.229439 0.040634 -0.314597
H44   H     H_    0.176310 0.169206 0.103039 0.232973
H45   H     H_    0.204047 0.308751 0.058424 0.222507
C53   C     C_3   0.010865 0.232146 0.034132 -1.019039
H46   H     H_    0.981959 0.292158 0.972121 0.271854
H47   H     H_    0.993292 0.253829 0.107366 0.264181
H48   H     H_    0.953632 0.152847 0.019607 0.269368
N8    N     N_3   0.888135 0.364111 0.659947 -0.501085
H49   H     H_    0.798373 0.375078 0.665655 0.187090
H50   H     H_    0.953398 0.409697 0.710218 0.221398
N9    N     N_3   0.727676 0.541875 0.804154 -0.449707
H51   H     H_    0.815592 0.563110 0.847774 0.166438
H52   H     H_    0.723868 0.462646 0.792282 0.154933
N10   N     N_3   0.284667 0.280620 0.306498 -0.410255
H53   H     H_    0.306109 0.295207 0.232811 0.200928
H54   H     H_    0.188870 0.249963 0.300436 0.164982
O14   O     O_3   0.250097 0.893165 0.285884 -0.668841
C54   C     C_3   0.136433 0.888765 0.324079 0.061856
H55   H     H_    0.145941 0.940242 0.386824 0.151912
H56   H     H_    0.102307 0.806195 0.354712 0.227792
C55   C     C_3   0.037379 0.923369 0.238218 -0.367524
H57   H     H_    0.070896 0.005024 0.204866 0.217673
H58   H     H_    0.019653 0.870006 0.176502 0.227843
C56   C     C_3   0.915157 0.922245 0.277336 -0.879817
H59   H     H_    0.878473 0.841521 0.311186 0.302067
H60   H     H_    0.844874 0.945781 0.213107 0.278328
H61   H     H_    0.930028 0.979400 0.335692 0.242747
N11   N     N_3   0.747326 0.730159 0.662646 -0.385247
H62   H     H_    0.824809 0.761857 0.627227 0.126685
H63   H     H_    0.781452 0.732985 0.739762 0.222488
N12   N     N_3   0.614273 0.062313 0.686687 -0.472143
H64   H     H_    0.705207 0.105616 0.701416 0.192670
H65   H     H_    0.585781 0.029904 0.756321 0.221808
O15   O     O_3   0.756156 0.914125 0.766081 -0.651841
C57   C     C_3   0.885554 0.944921 0.763819 0.063749
H66   H     H_    0.908146 0.031378 0.739631 0.127248
H67   H     H_    0.919748 0.900967 0.711405 0.127424
C58   C     C_3   0.951518 0.922400 0.872554 -0.327641
H68   H     H_    0.938862 0.982365 0.920755 0.208619
H69   H     H_    0.908174 0.842813 0.904734 0.240942
C59   C     C_3   0.089912 0.921708 0.877327 -1.005111
H70   H     H_    0.100302 0.848861 0.846440 0.271008
H71   H     H_    0.136496 0.920491 0.957819 0.284819
H72   H     H_    0.135628 0.992771 0.833077 0.272490
N13   N     N_3   0.369239 0.737054 0.384901 -0.322005
H73   H     H_    0.277508 0.722484 0.397383 0.293445
H74   H     H_    0.365785 0.737964 0.307052 0.181831
N14   N     N_3   0.125938 0.350266 0.649567 -0.495562
H75   H     H_    0.210838 0.331349 0.641320 0.223298
H76   H     H_    0.079195 0.288298 0.694311 0.164152
O16   O     O_3   0.063809 0.298287 0.483120 -0.618004
C60   C     C_3   0.033513 0.189276 0.520428 0.072695
H77   H     H_    0.954441 0.149771 0.466827 0.136724
H78   H     H_    0.002104 0.174024 0.595803 0.120221
C61   C     C_3   0.143167 0.134613 0.519369 -0.284881
H79   H     H_    0.149159 0.127454 0.439143 0.216019
H80   H     H_    0.231642 0.181903 0.555323 0.257764
C62   C     C_3   0.124706 0.023352 0.573481 -1.074658
H81   H     H_    0.034454 0.975496 0.541051 0.257491
H82   H     H_    0.126521 0.027035 0.655949 0.277039
H83   H     H_    0.202185 0.984723 0.562765 0.285371
N15   N     N_3   0.820198 0.437491 0.323363 -0.476468
H84   H     H_    0.830706 0.454229 0.246701 0.141724
H85   H     H_    0.727518 0.445250 0.320679 0.209474
N16   N     N_3   0.061597 0.422476 0.329705 -0.402834
H86   H     H_    0.008620 0.414961 0.258042 0.155940
H87   H     H_    0.154175 0.428940 0.319076 0.216261
N17   N     N_3   0.957512 0.699712 0.510403 -0.395223
H88   H     H_    0.002644 0.760612 0.555091 0.185116
H89   H     H_    0.867465 0.714784 0.489687 0.216500
N18   N     N_3   0.935865 0.589334 0.667194 -0.525759
H90   H     H_    0.972390 0.660579 0.699888 0.169909
H91   H     H_    0.840840 0.572531 0.666940 0.233341
N19   N     N_3   0.155928 0.539469 0.682468 -0.493561
H92   H     H_    0.249039 0.529498 0.691943 0.172737
H93   H     H_    0.143931 0.579715 0.741131 0.184604

loop_
_geom_bond_atom_site_label_1
_geom_bond_atom_site_label_2
_ccdc_geom_bond_type
C2    C35   S    
C29   O14   S    
C61   H79   S    
C22   O15   S    
N5    H29   S    
C31   N1    A    
C3    O10   S    
N12   H64   S    
C56   H61   S    
C54   C55   S    
C32   N10   S    
C51   H42   S    
C7    C8    A    
N16   H86   S    
C55   H58   S    
C11   C19   A    
N19   H92   S    
C7    N7    S    
C28   C29   A    
N12   H65   S    
C56   H60   S    
C50   H40   S    
C20   H2    S    
C44   H20   S    
C23   O6    A    
C49   H37   S    
C39   H7    S    
C15   C16   A    
C16   N9    S    
O3    Zn1   S    
N17   H88   S    
C34   C35   S    
C17   H1    S    
C57   C58   S    
C40   H9    S    
C62   H81   S    
C33   O7    A    
N13   H74   S    
C21   N2    A    
N2    Zn2   S    
C59   H70   S    
N7    H33   S    
C8    C9    A    
N6    H32   S    
C4    O9    S    
C35   O16   S    
C57   H66   S    
C10   C13   A    
N10   H54   S    
C13   C14   A    
C47   H27   S    
C29   C30   A    
C9    C10   A    
C58   H69   S    
C12   O4    A    
O4    Zn2   S    
O1    Zn1   S    
C39   C40   S    
C60   H78   S    
O2    Zn2   S    
C59   H71   S    
C21   C22   A    
O12   C48   S    
C42   C43   S    
C61   C62   S    
C53   H47   S    
C26   N2    A    
N13   H73   S    
N16   H87   S    
C6    C18   A    
C55   C56   S    
N3    H5    S    
C1    C19   S    
C27   C31   A    
C41   H12   S    
C4    N19   S    
C36   N15   S    
C56   H59   S    
C58   C59   S    
C42   H16   S    
C52   C53   S    
O16   C60   S    
C46   H24   S    
C9    O12   S    
C54   H56   S    
C5    C18   A    
C20   C28   A    
C39   H6    S    
C37   N17   S    
C46   C47   S    
C51   H43   S    
O8    Zn2   S    
C41   H11   S    
C40   C41   S    
C2    C4    S    
C43   H17   S    
N9    H52   S    
C37   C38   S    
N11   H63   S    
C61   H80   S    
C11   C16   A    
C1    O1    A    
O7    Zn1   S    
C45   H22   S    
N6    H31   S    
C36   N4    S    
C5    C14   A    
C48   H36   S    
C24   C25   A    
C47   H28   S    
C43   H18   S    
C62   H83   S    
C58   H68   S    
C8    O13   S    
C3    N16   S    
C2    C33   S    
C12   O3    A    
C60   H77   S    
N7    H34   S    
C34   N3    S    
C59   H72   S    
C7    C19   A    
O14   C54   S    
C22   C24   A    
C50   H41   S    
C33   O8    A    
N9    H51   S    
C27   C28   A    
C5    N6    S    
C34   N8    S    
C53   H46   S    
N8    H50   S    
O13   C51   S    
C20   C32   A    
C6    C17   A    
N3    H4    S    
N14   H75   S    
N19   H93   S    
C23   O5    A    
C31   H3    S    
C45   H23   S    
C34   C38   S    
N4    H13   S    
C21   N11   S    
N11   H62   S    
C24   N12   S    
C15   N5    S    
N15   H85   S    
C53   H48   S    
C26   C30   A    
C54   H55   S    
C25   C27   A    
C55   H57   S    
C35   N14   S    
O15   C57   S    
C13   C17   A    
C41   H10   S    
C52   H45   S    
N10   H53   S    
C25   C26   A    
O10   C42   S    
C52   H44   S    
C36   C38   S    
C44   H19   S    
C44   H21   S    
C1    O2    A    
O9    C39   S    
C37   N18   S    
C49   H38   S    
C3    C36   S    
C42   H15   S    
O6    Zn2   S    
C6    C23   S    
N14   H76   S    
C18   O11   S    
N17   H89   S    
C2    C3    S    
C48   C49   S    
C46   H25   S    
C57   H67   S    
C12   C38   S    
C40   H8    S    
C43   C44   S    
C62   H82   S    
N18   H91   S    
C51   C52   S    
C10   C11   A    
O5    Zn1   S    
C45   C46   S    
C4    C37   S    
N5    H30   S    
O11   C45   S    
C48   H35   S    
N4    H14   S    
C32   N1    A    
C14   C15   A    
N8    H49   S    
N18   H90   S    
C60   C61   S    
C30   N13   S    
C47   H26   S    
C50   H39   S    
N1    Zn1   S    
N15   H84   S    
C49   C50   S    
