data_mof_unit_31679.cif
_audit_creation_date              2013-03-05T15:45:44-0500
_audit_creation_method            fapswitch 2.2
_symmetry_space_group_name_H-M    P1
_symmetry_Int_Tables_number       1
_space_group_crystal_system       triclinic
_cell_length_a                    18.979046
_cell_length_b                    11.255064
_cell_length_c                    18.685302
_cell_angle_alpha                 91.039854
_cell_angle_beta                  91.250995
_cell_angle_gamma                 90.778869
_cell_volume                      3989.37514059

loop_
_atom_site_label
_atom_site_type_symbol
_atom_site_description
_atom_site_fract_x
_atom_site_fract_y
_atom_site_fract_z
_atom_type_partial_charge
O1    O     O_R   0.214270 0.709000 0.827470 -0.481776
O2    O     O_R   0.785730 0.709000 0.172530 -0.486356
O3    O     O_R   0.714270 0.209000 0.827470 -0.482739
O4    O     O_R   0.285730 0.209000 0.172530 -0.485606
O5    O     O_R   0.236160 0.958490 0.823130 -0.474950
O6    O     O_R   0.763840 0.958490 0.176870 -0.499385
O7    O     O_R   0.736160 0.458490 0.823130 -0.475706
O8    O     O_R   0.263840 0.458490 0.176870 -0.500173
C1    C     C_R   0.273345 0.042083 0.854392 0.598172
C2    C     C_R   0.729403 0.045129 0.148569 0.573438
C3    C     C_R   0.773344 0.542085 0.854391 0.597631
C4    C     C_R   0.229401 0.545125 0.148566 0.571713
O9    O     O_R   0.332080 0.075470 0.831280 -0.476991
O10   O     O_R   0.667920 0.075470 0.168720 -0.498735
O11   O     O_R   0.832080 0.575470 0.831280 -0.476927
O12   O     O_R   0.167920 0.575470 0.168720 -0.498740
O13   O     O_R   0.446300 0.918110 0.826620 -0.479426
O14   O     O_R   0.553700 0.918110 0.173380 -0.496189
O15   O     O_R   0.946300 0.418110 0.826620 -0.479719
O16   O     O_R   0.053700 0.418110 0.173380 -0.497076
C5    C     C_R   0.471512 0.822133 0.854161 0.588388
C6    C     C_R   0.562891 0.816243 0.138770 0.591902
C7    C     C_R   0.971510 0.322132 0.854162 0.587849
C8    C     C_R   0.062891 0.316243 0.138770 0.590626
O17   O     O_R   0.457110 0.716200 0.831760 -0.506164
O18   O     O_R   0.542890 0.716200 0.168240 -0.514840
O19   O     O_R   0.957110 0.216200 0.831760 -0.506494
O20   O     O_R   0.042890 0.216200 0.168240 -0.514567
O21   O     O_R   0.320980 0.624310 0.823030 -0.497877
O22   O     O_R   0.679020 0.624310 0.176970 -0.525897
O23   O     O_R   0.820980 0.124310 0.823030 -0.497498
O24   O     O_R   0.179020 0.124310 0.176970 -0.529577
C9    C     C_R   0.262599 0.647304 0.855071 0.600027
C10   C     C_R   0.740388 0.632420 0.150082 0.587369
C11   C     C_R   0.762602 0.147312 0.855074 0.599746
C12   C     C_R   0.240388 0.132421 0.150081 0.585942
O25   O     O_R   0.213890 0.710430 0.665540 -0.462911
O26   O     O_R   0.786110 0.710430 0.334460 -0.452126
O27   O     O_R   0.713890 0.210430 0.665540 -0.440887
O28   O     O_R   0.286110 0.210430 0.334460 -0.452170
O29   O     O_R   0.235810 0.959820 0.673020 -0.478891
O30   O     O_R   0.764190 0.959820 0.326980 -0.422244
O31   O     O_R   0.735810 0.459820 0.673020 -0.479231
O32   O     O_R   0.264190 0.459820 0.326980 -0.422467
C13   C     C_R   0.269677 0.042158 0.645616 0.524902
C14   C     C_R   0.730453 0.048104 0.353118 0.583433
C15   C     C_R   0.769709 0.541118 0.645233 0.526792
C16   C     C_R   0.231070 0.549011 0.352416 0.570704
O33   O     O_R   0.331700 0.076900 0.669350 -0.520275
O34   O     O_R   0.668300 0.076900 0.330650 -0.514789
O35   O     O_R   0.831700 0.576900 0.669350 -0.508255
O36   O     O_R   0.168300 0.576900 0.330650 -0.500370
O37   O     O_R   0.445950 0.919440 0.676520 -0.500090
O38   O     O_R   0.554050 0.919440 0.323480 -0.467110
O39   O     O_R   0.945950 0.419440 0.676520 -0.487158
O40   O     O_R   0.054050 0.419440 0.323480 -0.462923
C17   C     C_R   0.469024 0.823679 0.646296 0.570433
C18   C     C_R   0.528773 0.824573 0.351979 0.603863
C19   C     C_R   0.967535 0.323099 0.645925 0.575382
C20   C     C_R   0.029299 0.324930 0.352369 0.607308
O41   O     O_R   0.456730 0.717630 0.669840 -0.431494
O42   O     O_R   0.543270 0.717630 0.330160 -0.435892
O43   O     O_R   0.956730 0.217630 0.669840 -0.437884
O44   O     O_R   0.043270 0.217630 0.330160 -0.408117
O45   O     O_R   0.320620 0.625640 0.672920 -0.475648
O46   O     O_R   0.679380 0.625640 0.327080 -0.447610
O47   O     O_R   0.820620 0.125640 0.672920 -0.480379
O48   O     O_R   0.179380 0.125640 0.327080 -0.449270
C21   C     C_R   0.277917 0.690492 0.637743 0.536106
C22   C     C_R   0.740122 0.633293 0.355749 0.595636
C23   C     C_R   0.778312 0.191579 0.637898 0.541751
C24   C     C_R   0.240344 0.134532 0.356046 0.589651
Cr1   Cr    Cr6+3 0.229630 0.835900 0.747350 1.123155
Cr2   Cr    Cr6+3 0.770370 0.835900 0.252650 1.131155
Cr3   Cr    Cr6+3 0.729630 0.335900 0.747350 1.129628
Cr4   Cr    Cr6+3 0.270370 0.335900 0.252650 1.128847
Cr5   Cr    Cr6+3 0.387410 0.989850 0.750850 1.067130
Cr6   Cr    Cr6+3 0.612590 0.989850 0.249150 1.095561
Cr7   Cr    Cr6+3 0.887410 0.489850 0.750850 1.074127
Cr8   Cr    Cr6+3 0.112590 0.489850 0.249150 1.107046
Cr9   Cr    Cr6+3 0.385800 0.677120 0.749340 1.115369
Cr10  Cr    Cr6+3 0.614200 0.677120 0.250660 1.135358
Cr11  Cr    Cr6+3 0.885800 0.177120 0.749340 1.113476
Cr12  Cr    Cr6+3 0.114200 0.177120 0.250660 1.141246
O49   O     O_3   0.334280 0.834290 0.749180 -0.317923
O50   O     O_3   0.665720 0.834290 0.250820 -0.314272
O51   O     O_3   0.834280 0.334290 0.749180 -0.323389
O52   O     O_3   0.165720 0.334290 0.250820 -0.317212
C25   C     C_3   0.502570 0.923741 0.029302 -0.119839
C26   C     C_3   0.551039 0.922157 0.963022 -0.156757
C27   C     C_3   0.002569 0.423742 0.029304 -0.119875
C28   C     C_3   0.051037 0.422154 0.963023 -0.156820
C29   C     C_3   0.454781 0.829882 0.992066 0.231123
C30   C     C_3   0.592222 0.820203 0.996793 0.198768
C31   C     C_3   0.954778 0.329885 0.992069 0.231158
C32   C     C_3   0.092218 0.320199 0.996794 0.198728
H1    H     H_    0.486109 0.003777 0.059311 0.192631
H2    H     H_    0.576240 0.996583 0.935271 0.116804
H3    H     H_    0.986108 0.503780 0.059311 0.192563
H4    H     H_    0.076240 0.496576 0.935271 0.116769
C33   C     C_3   0.501975 0.828643 0.926667 0.009911
C34   C     C_3   0.544639 0.821254 0.061961 0.003223
C35   C     C_3   0.001972 0.328642 0.926669 0.009968
C36   C     C_3   0.044636 0.321253 0.061962 0.003321
C37   C     C_3   0.544552 0.725994 0.959108 -0.159856
C38   C     C_3   0.495583 0.727373 0.024771 -0.143460
C39   C     C_3   0.044546 0.225991 0.959111 -0.159916
C40   C     C_3   0.995579 0.227375 0.024775 -0.143258
H5    H     H_    0.562207 0.646273 0.929214 0.129393
H6    H     H_    0.471222 0.648140 0.049380 0.144278
H7    H     H_    0.062200 0.146267 0.929219 0.129304
H8    H     H_    0.971216 0.148145 0.049384 0.144542
C41   C     C_R   0.302336 0.545757 0.965352 -0.112114
C42   C     C_R   0.693507 0.548752 0.035489 -0.111070
C43   C     C_R   0.802341 0.045769 0.965357 -0.112067
C44   C     C_R   0.193508 0.048755 0.035489 -0.111084
H9    H     H_    0.340472 0.496587 0.934808 0.148246
H10   H     H_    0.642244 0.534965 0.058370 0.143222
H11   H     H_    0.840477 0.996600 0.934812 0.148469
H12   H     H_    0.142243 0.034976 0.058369 0.143033
C45   C     C_R   0.300524 0.531370 0.038984 -0.099080
C46   C     C_R   0.699335 0.539490 0.961746 -0.091741
C47   C     C_R   0.800529 0.031382 0.038989 -0.099087
C48   C     C_R   0.199337 0.039489 0.961746 -0.091691
H13   H     H_    0.334838 0.468176 0.063778 0.132817
H14   H     H_    0.654602 0.507894 0.929585 0.150872
H15   H     H_    0.834844 0.968190 0.063783 0.132933
H16   H     H_    0.154603 0.007894 0.929585 0.150828
C49   C     C_R   0.251643 0.592771 0.079909 0.028035
C50   C     C_R   0.761672 0.574600 0.929508 0.066724
C51   C     C_R   0.751647 0.092781 0.079914 0.028214
C52   C     C_R   0.261675 0.074596 0.929510 0.066627
C53   C     C_R   0.211067 0.682026 0.048719 0.201443
C54   C     C_R   0.819680 0.617050 0.972701 0.220782
C55   C     C_R   0.711073 0.182037 0.048725 0.201174
C56   C     C_R   0.319683 0.117044 0.972703 0.220829
C57   C     C_R   0.207710 0.690289 0.973822 0.300777
C58   C     C_R   0.817066 0.609199 0.047169 0.334193
C59   C     C_R   0.707715 0.190300 0.973828 0.300550
C60   C     C_R   0.317067 0.109192 0.047171 0.334417
C61   C     C_R   0.254515 0.621182 0.931455 0.051096
C62   C     C_R   0.751990 0.583411 0.078534 0.084667
C63   C     C_R   0.754519 0.121193 0.931460 0.051314
C64   C     C_R   0.251991 0.083410 0.078535 0.084723
C65   C     C_R   0.496691 0.728021 0.531710 0.133974
C66   C     C_R   0.481685 0.731043 0.457851 0.111846
C67   C     C_R   0.988792 0.227127 0.529837 0.136452
C68   C     C_R   0.974407 0.234362 0.455907 0.123126
C69   C     C_R   0.496538 0.836990 0.422737 -0.042009
C70   C     C_R   0.494115 0.833333 0.572125 -0.026199
C71   C     C_R   0.996028 0.339099 0.422613 -0.052050
C72   C     C_R   0.988638 0.331796 0.571225 -0.030980
C73   C     C_R   0.503386 0.944979 0.462278 0.196377
C74   C     C_R   0.499820 0.943105 0.537866 0.196148
C75   C     C_R   0.006714 0.445008 0.464540 0.193476
C76   C     C_R   0.996776 0.441971 0.539117 0.188782
C77   C     C_R   0.269718 0.749294 0.511497 -0.138076
C78   C     C_R   0.796650 0.634078 0.473568 -0.123311
C79   C     C_R   0.777513 0.250673 0.510293 -0.121984
C80   C     C_R   0.299718 0.135653 0.473561 -0.119049
H17   H     H_    0.265782 0.839330 0.529181 0.115828
H18   H     H_    0.844463 0.670790 0.453069 0.212733
H19   H     H_    0.777741 0.342496 0.526410 0.103683
H20   H     H_    0.346852 0.173508 0.452266 0.220092
C81   C     C_R   0.260175 0.718437 0.439128 0.227196
C82   C     C_R   0.777524 0.661600 0.542939 0.244394
C83   C     C_R   0.763491 0.217036 0.438796 0.241117
C84   C     C_R   0.281524 0.162849 0.543466 0.239762
C85   C     C_R   0.261410 0.598299 0.420047 -0.008849
C86   C     C_R   0.739624 0.575719 0.576061 -0.033219
C87   C     C_R   0.759211 0.095992 0.421659 0.006639
C88   C     C_R   0.240936 0.079183 0.576626 -0.037215
C89   C     C_R   0.294648 0.520321 0.467392 0.202883
C90   C     C_R   0.690253 0.503262 0.535007 0.171077
C91   C     C_R   0.788424 0.015980 0.470323 0.198260
C92   C     C_R   0.190308 0.010864 0.534985 0.165800
C93   C     C_R   0.320046 0.557435 0.534333 0.149782
C94   C     C_R   0.689644 0.513049 0.458634 0.203898
C95   C     C_R   0.816409 0.053275 0.536234 0.152211
C96   C     C_R   0.191026 0.021925 0.459763 0.209563
C97   C     C_R   0.288060 0.663709 0.561360 -0.102830
C98   C     C_R   0.746033 0.580846 0.427692 -0.057272
C99   C     C_R   0.789521 0.164058 0.561607 -0.082257
C100  C     C_R   0.247814 0.084549 0.428217 -0.055610
N1    N     N_R   0.378452 0.836043 0.992943 0.062756
O53   O     O_R   0.342085 0.844243 0.933708 -0.362330
O54   O     O_R   0.346505 0.836206 0.053764 -0.348488
N2    N     N_R   0.668519 0.819391 0.996928 0.041503
O55   O     O_R   0.703832 0.828071 0.056951 -0.406400
O56   O     O_R   0.701356 0.825518 0.936743 -0.387248
N3    N     N_R   0.878450 0.336050 0.992946 0.062723
O57   O     O_R   0.842082 0.344253 0.933712 -0.362546
O58   O     O_R   0.846503 0.336217 0.053768 -0.348102
N4    N     N_R   0.168516 0.319383 0.996930 0.041532
O59   O     O_R   0.203828 0.328065 0.056953 -0.406130
O60   O     O_R   0.201353 0.325508 0.936745 -0.387545
O61   O     O_3   0.241117 0.803115 0.390744 -0.534769
C101  C     C_3   0.296791 0.825632 0.344161 -0.052196
H21   H     H_    0.305002 0.748681 0.307417 0.169272
H22   H     H_    0.345908 0.852278 0.374262 0.131181
H23   H     H_    0.282131 0.901206 0.309924 0.145467
O62   O     O_3   0.809758 0.752898 0.582490 -0.513490
C102  C     C_3   0.758638 0.815687 0.622248 -0.015271
H24   H     H_    0.731178 0.759637 0.661462 0.128141
H25   H     H_    0.719142 0.857455 0.586204 0.153875
H26   H     H_    0.785342 0.886931 0.654657 0.169994
O63   O     O_3   0.743557 0.300573 0.390136 -0.535513
C103  C     C_3   0.798842 0.324466 0.343455 -0.051834
H27   H     H_    0.806065 0.248647 0.305648 0.173975
H28   H     H_    0.848204 0.350345 0.373317 0.122165
H29   H     H_    0.784111 0.401204 0.310224 0.151234
O64   O     O_3   0.315085 0.253485 0.582600 -0.517631
C104  C     C_3   0.265022 0.318228 0.622626 -0.013266
H30   H     H_    0.235771 0.263032 0.660941 0.122678
H31   H     H_    0.226977 0.363599 0.586659 0.148046
H32   H     H_    0.293003 0.386612 0.656156 0.174228
N5    N     N_R   0.295876 0.398678 0.450064 0.104940
O65   O     O_R   0.235109 0.343748 0.445682 -0.416485
O66   O     O_R   0.348601 0.362396 0.412357 -0.235724
N6    N     N_R   0.647406 0.413531 0.569094 0.149071
O67   O     O_R   0.643335 0.306179 0.542966 -0.345142
O68   O     O_R   0.615186 0.435309 0.628646 -0.212171
N7    N     N_R   0.788736 0.894719 0.452374 0.101858
O69   O     O_R   0.727595 0.841514 0.445045 -0.412598
O70   O     O_R   0.842204 0.858804 0.415777 -0.236068
N8    N     N_R   0.143470 0.923428 0.565803 0.132640
O71   O     O_R   0.121457 0.832377 0.527497 -0.330766
O72   O     O_R   0.115552 0.939823 0.628185 -0.221251
N9    N     N_R   0.375893 0.486559 0.568682 0.113855
O73   O     O_R   0.410397 0.517824 0.626598 -0.250906
O74   O     O_R   0.403496 0.398008 0.534342 -0.206584
N10   N     N_R   0.634926 0.452253 0.414848 0.140632
O75   O     O_R   0.643737 0.423166 0.347953 -0.287506
O76   O     O_R   0.577551 0.413712 0.443250 -0.217431
N11   N     N_R   0.872652 0.982407 0.569986 0.116869
O77   O     O_R   0.909810 0.017028 0.625584 -0.251954
O78   O     O_R   0.898776 0.891962 0.536207 -0.211465
N12   N     N_R   0.129561 0.985209 0.418513 0.158897
O79   O     O_R   0.075476 0.052788 0.421357 -0.236071
O80   O     O_R   0.132462 0.909969 0.365095 -0.258563
N13   N     N_R   0.178691 0.767951 0.095304 -0.220930
O81   O     O_R   0.116014 0.808694 0.082335 -0.000001
O82   O     O_R   0.116015 0.808695 0.082335 -0.000001
N14   N     N_R   0.879021 0.674491 0.941171 -0.268303
O83   O     O_R   0.939938 0.623367 0.939540 -0.000001
O84   O     O_R   0.939938 0.623367 0.939540 -0.000001
N15   N     N_R   0.678701 0.267965 0.095311 -0.219046
O85   O     O_R   0.616016 0.308682 0.082358 -0.000002
O86   O     O_R   0.616016 0.308682 0.082358 -0.000002
N16   N     N_R   0.379023 0.174490 0.941174 -0.268509
O87   O     O_R   0.439940 0.123368 0.939539 -0.000002
O88   O     O_R   0.439940 0.123368 0.939539 -0.000002
O89   O     O_3   0.168385 0.780278 0.944029 -0.538649
C105  C     C_3   0.099778 0.737149 0.926633 -0.098712
H33   H     H_    0.066384 0.813622 0.912274 0.139318
H34   H     H_    0.074782 0.692460 0.972271 0.101117
H35   H     H_    0.099674 0.675448 0.879655 0.143414
O90   O     O_3   0.877932 0.615905 0.090285 -0.556238
C106  C     C_3   0.910726 0.729637 0.090105 -0.063883
H36   H     H_    0.882693 0.795658 0.057263 0.117970
H37   H     H_    0.965186 0.721285 0.070496 0.119598
H38   H     H_    0.915057 0.764997 0.145847 0.159590
O91   O     O_3   0.668389 0.280289 0.944036 -0.538747
C107  C     C_3   0.599781 0.237162 0.926643 -0.098719
H39   H     H_    0.566386 0.313636 0.912287 0.139312
H40   H     H_    0.574787 0.192470 0.972282 0.101073
H41   H     H_    0.599674 0.175463 0.879663 0.143520
O92   O     O_3   0.377933 0.115888 0.090288 -0.555989
C108  C     C_3   0.410732 0.229616 0.090115 -0.063968
H42   H     H_    0.382698 0.295647 0.057282 0.117984
H43   H     H_    0.465189 0.221264 0.070500 0.119531
H44   H     H_    0.415069 0.264961 0.145861 0.159144
N17   N     N_R   0.537098 0.634751 0.562156 0.122573
O93   O     O_R   0.587383 0.661241 0.608519 -0.354171
O94   O     O_R   0.521098 0.524535 0.549376 -0.137710
N18   N     N_R   0.449260 0.633010 0.417429 0.094132
O95   O     O_R   0.411216 0.653714 0.360476 -0.393379
O96   O     O_R   0.461155 0.523295 0.431923 -0.161092
N19   N     N_R   0.030107 0.132838 0.558553 0.142466
O97   O     O_R   0.082135 0.159320 0.602871 -0.345154
O98   O     O_R   0.016778 0.022306 0.542751 -0.125681
N20   N     N_R   0.941703 0.138418 0.413557 0.101093
O99   O     O_R   0.913577 0.158458 0.350998 -0.388062
O100  O     O_R   0.939969 0.030152 0.435269 -0.175081
O101  O     O_3   0.505688 0.050963 0.425681 -0.576629
C109  C     C_3   0.568524 0.114188 0.442747 0.036365
H45   H     H_    0.579107 0.176261 0.398850 0.220825
H46   H     H_    0.614555 0.055362 0.451151 0.128965
H47   H     H_    0.562075 0.170582 0.490485 0.223312
O102  O     O_3   0.510232 0.045405 0.579157 -0.561862
C110  C     C_3   0.450388 0.117036 0.573226 0.028087
H48   H     H_    0.446971 0.172257 0.622750 0.214976
H49   H     H_    0.401528 0.062824 0.566266 0.117134
H50   H     H_    0.454065 0.178404 0.527885 0.193076
O103  O     O_3   0.025042 0.550512 0.432477 -0.548936
C111  C     C_3   0.092575 0.587533 0.457682 -0.000695
H51   H     H_    0.108596 0.666337 0.427171 0.233645
H52   H     H_    0.131240 0.514981 0.452089 0.121882
H53   H     H_    0.094017 0.618031 0.514000 0.199332
O104  O     O_3   0.007374 0.541791 0.582917 -0.568657
C112  C     C_3   0.955319 0.626054 0.568459 0.028916
H54   H     H_    0.951459 0.686392 0.615758 0.213842
H55   H     H_    0.903448 0.582337 0.559098 0.118618
H56   H     H_    0.969236 0.681368 0.522234 0.212513

loop_
_geom_bond_atom_site_label_1
_geom_bond_atom_site_label_2
_geom_bond_distance
_ccdc_geom_bond_type
N4    O60   1.300034 A    
O4    C12   1.268983 A    
C53   C57   1.404349 A    
O39   C19   1.292364 A    
N7    O69   1.301950 A    
C68   C71   1.403438 A    
C56   C60   1.397782 A    
Cr7   O51   2.007944 S    
C65   C66   1.404167 A    
O27   Cr3   2.076166 S    
C112  H54   1.109070 S    
C55   C59   1.404361 A    
C102  H25   1.111538 S    
N20   O99   1.299170 A    
C66   N18   1.448315 S    
C1    C52   1.466350 S    
N16   O88   1.299100 A    
O21   C9    1.297779 A    
N14   O83   1.299101 A    
C82   O62   1.382719 S    
C69   C73   1.413836 A    
C2    C51   1.467654 S    
O44   Cr12  2.075131 S    
C105  H34   1.109951 S    
C3    O11   1.259304 A    
C7    C35   1.461563 S    
C72   C76   1.395454 A    
C71   C75   1.424209 A    
O2    C10   1.268987 A    
O17   Cr9   2.065213 S    
C56   N16   1.434029 S    
C50   C54   1.422883 A    
C43   C63   1.400333 A    
C104  H31   1.111341 S    
C81   C85   1.392735 A    
N12   O80   1.299765 A    
C43   C47   1.389359 A    
O62   C102  1.422564 S    
O16   Cr8   1.941774 S    
N3    O57   1.296939 A    
C23   C99   1.473873 S    
C24   C100  1.475284 S    
C29   C33   1.530778 S    
C83   C87   1.394692 A    
C19   C72   1.465107 S    
O13   C5    1.297752 A    
O28   Cr4   2.118989 S    
O12   Cr8   2.093778 S    
C20   C71   1.475883 S    
O22   Cr10  1.956216 S    
O15   C7    1.297752 A    
C94   N10   1.462653 S    
N9    O73   1.293338 A    
C55   N15   1.442037 S    
O46   Cr10  1.969108 S    
O14   Cr6   1.941774 S    
N10   O76   1.294724 A    
C94   C98   1.443160 A    
C49   C53   1.401623 A    
C111  H51   1.105780 S    
C108  H43   1.108747 S    
C73   O101  1.386334 S    
C90   N6    1.452774 S    
C13   C88   1.458752 S    
O104  C112  1.404134 S    
C86   C90   1.434083 A    
C112  H56   1.108322 S    
C109  H47   1.095378 S    
Cr12  O52   2.009472 S    
C26   H2    1.102280 S    
C106  H37   1.108747 S    
C91   C95   1.386233 A    
C17   O41   1.299463 A    
C92   N8    1.452374 S    
C19   O43   1.291308 A    
C20   O44   1.302423 A    
C12   C64   1.459235 S    
Cr8   O52   2.032682 S    
C109  H46   1.113443 S    
O46   C22   1.261759 A    
C79   C83   1.400808 A    
C80   C84   1.388203 A    
C31   C40   1.527575 S    
C16   C85   1.473206 S    
C16   O36   1.294927 A    
O64   C104  1.422386 S    
C30   C34   1.531730 S    
C75   C76   1.411234 A    
C91   N7    1.399599 S    
C35   C39   1.544215 S    
C8    C36   1.471291 S    
O31   C15   1.239581 A    
O32   C16   1.281253 A    
C21   C97   1.470693 S    
C58   O90   1.394274 S    
O47   Cr11  1.943801 S    
C59   O91   1.384072 S    
C67   C68   1.406296 A    
O5    C1    1.291704 A    
O24   C12   1.281263 A    
C110  H49   1.107063 S    
C30   N2    1.448154 S    
O33   Cr5   2.099748 S    
O89   C105  1.412565 S    
N1    O54   1.299703 A    
O8    Cr4   1.997990 S    
C48   C52   1.394910 A    
N2    O56   1.300034 A    
N13   O81   1.300109 A    
O32   Cr4   1.956850 S    
C1    O9    1.259297 A    
C44   C64   1.403185 A    
C59   C63   1.431053 A    
C111  H53   1.100607 S    
O11   Cr7   2.081780 S    
C107  H39   1.109179 S    
C39   C40   1.555259 S    
C96   N12   1.435881 S    
O3    Cr3   2.109854 S    
C65   C70   1.395818 A    
O8    C4    1.295620 A    
N19   O98   1.293698 A    
Cr5   O49   2.007944 S    
N6    O67   1.295601 A    
C31   C35   1.530781 S    
O22   C10   1.281263 A    
C4    O12   1.282722 A    
C2    O10   1.282724 A    
C77   C81   1.397327 A    
C27   C28   1.558741 S    
C105  H35   1.109310 S    
C9    C61   1.473313 S    
N5    O65   1.301420 A    
C44   H12   1.081635 S    
C45   H13   1.075178 S    
C29   C38   1.527575 S    
O25   C21   1.351844 A    
C47   H15   1.075176 S    
O3    C11   1.264579 A    
C52   C56   1.422888 A    
Cr1   O49   1.986040 S    
C54   N14   1.434028 S    
C41   H9    1.083202 S    
Cr3   O51   1.986040 S    
C82   C86   1.362712 A    
C43   H11   1.083202 S    
O26   Cr2   2.118989 S    
C5    O17   1.280418 A    
O27   C23   1.355486 A    
O28   C24   1.286272 A    
O14   C6    1.321593 A    
C39   H7    1.107944 S    
C8    O20   1.317266 A    
C101  H22   1.112959 S    
N7    O70   1.300856 A    
N20   O100  1.291488 A    
O40   Cr8   1.968445 S    
O90   C106  1.415809 S    
O41   Cr9   2.078932 S    
C107  H41   1.109313 S    
C93   C97   1.437178 A    
C111  H52   1.110298 S    
N17   O94   1.289916 A    
C41   C61   1.400331 A    
O5    Cr1   1.959807 S    
O61   C101  1.406853 S    
O35   Cr7   2.099748 S    
O29   Cr1   1.990222 S    
C96   C100  1.424089 A    
C92   C96   1.413648 A    
C41   C45   1.389355 A    
N18   O95   1.299278 A    
N8    O71   1.298356 A    
C85   C89   1.403464 A    
C27   H3    1.104739 S    
Cr9   O49   2.032834 S    
C88   C92   1.430194 A    
C18   O42   1.298762 A    
Cr11  O51   2.032834 S    
O26   C22   1.296484 A    
C30   C37   1.535466 S    
O20   Cr12  2.084861 S    
O91   C107  1.412564 S    
C104  H30   1.109398 S    
C80   H20   1.073040 S    
O38   C18   1.292922 A    
O102  C110  1.405324 S    
O30   C14   1.284204 A    
C37   H5    1.107944 S    
C22   C98   1.480595 S    
C103  H27   1.109763 S    
N11   O77   1.293935 A    
C60   O92   1.394274 S    
C26   C30   1.534594 S    
C90   C94   1.433096 A    
C48   H16   1.081736 S    
N15   O86   1.300099 A    
N4    O59   1.295368 A    
O42   Cr10  2.075131 S    
O18   Cr10  2.084861 S    
C108  H42   1.106720 S    
O31   Cr3   1.990222 S    
C77   C97   1.394508 A    
O34   Cr6   2.060171 S    
O6    Cr2   1.997990 S    
C112  H55   1.103649 S    
O24   Cr12  1.956216 S    
C102  H26   1.106557 S    
O30   Cr2   1.956850 S    
C4    C49   1.467653 S    
O63   C103  1.405308 S    
O48   Cr12  1.969108 S    
C58   C62   1.407535 A    
O103  C111  1.410746 S    
O37   C17   1.293789 A    
C15   O35   1.306476 A    
N16   O87   1.299099 A    
Cr10  O50   2.009472 S    
C40   H8    1.110592 S    
O43   Cr11  2.078932 S    
O37   Cr5   1.960294 S    
N3    O58   1.299705 A    
O21   Cr9   1.961233 S    
C105  H33   1.109179 S    
C81   O61   1.372166 S    
C66   C69   1.399712 A    
O39   Cr7   1.960294 S    
O45   Cr9   1.943801 S    
C13   O33   1.301401 A    
O13   Cr5   1.975484 S    
O15   Cr7   1.975484 S    
C32   C39   1.535464 S    
O23   C11   1.297784 A    
C32   N4    1.448153 S    
C3    C50   1.466352 S    
C77   H17   1.064263 S    
C36   C40   1.544184 S    
C78   C82   1.384529 A    
C104  H32   1.106238 S    
C57   C61   1.431049 A    
N12   O79   1.287303 A    
C10   C62   1.459241 S    
C44   C48   1.386892 A    
C47   C51   1.397220 A    
C60   C64   1.407534 A    
C45   C49   1.397225 A    
O6    C2    1.295619 A    
C37   C38   1.555259 S    
O1    Cr1   2.109854 S    
O19   Cr11  2.065213 S    
N19   O97   1.302673 A    
N9    O74   1.298135 A    
O29   C13   1.244806 A    
N1    O53   1.296939 A    
C103  H29   1.108207 S    
O45   C21   1.277458 A    
N10   O75   1.301250 A    
O47   C23   1.278539 A    
O40   C20   1.289131 A    
C84   C88   1.373445 A    
O92   C108  1.415807 S    
C107  H40   1.109953 S    
C6    O18   1.317274 A    
C108  H44   1.109211 S    
C75   O103  1.383354 S    
C25   C26   1.558742 S    
O36   Cr8   2.060171 S    
C11   C63   1.473332 S    
O38   Cr6   1.968445 S    
C29   N1    1.451675 S    
C102  H24   1.109497 S    
C25   C34   1.539395 S    
C84   O64   1.384179 S    
C28   C32   1.534592 S    
C27   C36   1.539393 S    
C106  H38   1.109206 S    
N6    O68   1.302351 A    
O1    C9    1.264578 A    
O7    C3    1.291700 A    
O101  C109  1.407968 S    
C68   N20   1.451500 S    
C42   C62   1.403189 A    
C51   C55   1.401614 A    
C93   N9    1.477701 S    
C109  H45   1.106964 S    
O23   Cr11  1.961233 S    
C14   C87   1.471405 S    
C28   C35   1.534961 S    
C53   N13   1.442037 S    
O16   C8    1.321589 A    
N14   O84   1.299099 A    
C101  H21   1.110196 S    
C7    O19   1.280414 A    
C89   N5    1.401756 S    
Cr4   O52   1.985536 S    
O2    Cr2   2.078198 S    
C18   C69   1.474033 S    
O48   C24   1.268561 A    
C5    C33   1.461561 S    
Cr6   O50   2.032682 S    
C110  H48   1.108892 S    
C25   C29   1.530494 S    
N11   O78   1.297891 A    
C95   C99   1.430493 A    
C33   C37   1.544213 S    
O9    Cr5   2.081780 S    
C110  H50   1.105531 S    
C95   N11   1.478303 S    
O7    Cr3   1.959807 S    
C87   C91   1.402321 A    
C74   O102  1.383810 S    
C25   H1    1.104736 S    
N2    O55   1.295369 A    
N13   O82   1.300107 A    
C83   O63   1.370947 S    
C46   H14   1.081736 S    
C65   N17   1.427678 S    
C26   C33   1.534965 S    
C89   C93   1.385851 A    
C17   C70   1.480611 S    
C101  H23   1.108422 S    
N17   O93   1.302685 A    
Cr2   O50   1.985536 S    
C78   C98   1.395125 A    
C42   H10   1.081635 S    
N18   O96   1.290815 A    
N8    O72   1.302033 A    
C79   H19   1.071123 S    
C106  H36   1.106720 S    
C15   C86   1.462993 S    
C28   H4    1.102278 S    
C38   H6    1.110592 S    
O25   Cr1   2.076166 S    
C76   O104  1.387735 S    
C54   C58   1.397780 A    
C67   N19   1.433137 S    
N15   O85   1.300108 A    
C31   N3    1.451669 S    
N5    O66   1.302291 A    
C14   O34   1.290916 A    
C6    C34   1.471306 S    
C32   C36   1.531726 S    
C67   C72   1.397512 A    
C80   C100  1.396262 A    
C34   C38   1.544188 S    
O10   Cr6   2.093778 S    
O4    Cr4   2.078198 S    
C78   H18   1.073132 S    
C42   C46   1.386897 A    
C27   C31   1.530494 S    
C103  H28   1.112523 S    
C70   C74   1.405710 A    
C79   C99   1.397159 A    
C73   C74   1.416013 A    
C46   C50   1.394912 A    
C57   O89   1.384075 S    
