data_mof_unit_60226.cif
_audit_creation_date              2012-12-10T18:39:30-0500
_audit_creation_method            fapswitch 2.2
_symmetry_space_group_name_H-M    P1
_symmetry_Int_Tables_number       1
_space_group_crystal_system       triclinic
_cell_length_a                    15.779512
_cell_length_b                    11.574233
_cell_length_c                    10.786945
_cell_angle_alpha                 89.9987
_cell_angle_beta                  89.999397
_cell_angle_gamma                 89.999664
_cell_volume                      1970.08177361

loop_
_atom_site_label
_atom_site_type_symbol
_atom_type_description
_atom_site_fract_x
_atom_site_fract_y
_atom_site_fract_z
_atom_type_partial_charge
C1    C     C_R   0.499999 0.281189 0.500001 0.925584
C2    C     C_R   0.337774 0.499946 0.500001 0.903865
C3    C     C_R   0.662233 0.499936 0.499999 0.903814
C4    C     C_1   0.499999 0.059163 0.500001 0.041401
C5    C     C_1   0.499999 0.161040 0.500003 -0.139742
C6    C     C_1   0.500000 0.500009 0.069783 0.071543
C7    C     C_1   0.500000 0.500009 0.930217 0.071478
C8    C     C_R   0.500001 0.718812 0.499999 0.899928
C9    C     C_3   0.049396 0.427115 0.619765 0.247747
C10   C     C_3   0.049436 0.427473 0.380004 0.246936
C11   C     C_3   0.950568 0.426629 0.619458 0.246976
C12   C     C_1   0.750853 0.496440 0.499993 -0.114323
C13   C     C_3   0.950608 0.427938 0.379703 0.247732
C14   C     C_1   0.500000 0.940844 0.499998 0.032833
C15   C     C_1   0.500001 0.838966 0.499997 -0.159624
C16   C     C_1   0.249142 0.496471 0.500003 -0.114296
C17   C     C_3   0.082758 0.487738 0.499999 0.011599
C18   C     C_3   0.917238 0.487720 0.499945 0.011591
C19   C     C_3   0.951132 0.613602 0.500709 -0.562762
C20   C     C_3   0.048852 0.613613 0.500239 -0.562755
C21   C     C_1   0.825904 0.492484 0.499974 0.063808
C22   C     C_1   0.174090 0.492519 0.500003 0.063806
Cl1   Cl    Cl    0.903428 0.287024 0.645876 -0.412337
Cl2   Cl    Cl    0.902782 0.289255 0.350474 -0.413710
Cl3   Cl    Cl    0.097237 0.288237 0.647881 -0.413695
Cl4   Cl    Cl    0.096590 0.288069 0.352480 -0.412353
H1    H     H_    0.072479 0.661034 0.583169 0.228228
H2    H     H_    0.072120 0.661085 0.417124 0.227973
H3    H     H_    0.927861 0.660488 0.584203 0.227907
H4    H     H_    0.927501 0.661596 0.418160 0.228295
H5    H     H_    0.070655 0.480137 0.299301 0.087606
H6    H     H_    0.070088 0.480039 0.700565 0.087651
H7    H     H_    0.929913 0.481417 0.299330 0.087565
H8    H     H_    0.929346 0.478725 0.700582 0.087689
N1    N     N_1   0.500000 0.500010 0.180630 -0.071772
N2    N     N_1   0.500000 0.500010 0.819370 -0.071793
O1    O     O_R   0.500000 0.334450 0.602530 -0.601847
O2    O     O_R   0.500000 0.334450 0.397470 -0.601809
O3    O     O_R   0.377140 0.500000 0.602580 -0.605124
O4    O     O_R   0.377140 0.500000 0.397420 -0.605271
O5    O     O_R   0.622860 0.500000 0.602580 -0.605354
O6    O     O_R   0.622860 0.500000 0.397420 -0.604998
O7    O     O_R   0.500000 0.665550 0.602530 -0.609458
O8    O     O_R   0.500000 0.665550 0.397470 -0.609468
Zn1   Zn    Zn3+2 0.500000 0.500000 0.636920 1.019411
Zn2   Zn    Zn3+2 0.500000 0.500000 0.363080 1.019523

loop_
_geom_bond_atom_site_label_1
_geom_bond_atom_site_label_2
_ccdc_geom_bond_type
C11   C18   S    
C13   H7    S    
C6    C7    S    
C20   H1    S    
C18   C21   S    
C2    C16   S    
C7    N2    T    
N1    Zn2   S    
C17   C22   S    
C8    O7    A    
C1    O1    A    
O3    Zn1   S    
C10   Cl4   S    
C9    Cl3   S    
N2    Zn1   S    
C3    O6    A    
O4    Zn2   S    
O7    Zn1   S    
C8    O8    A    
C1    O2    A    
C1    C5    S    
C13   C18   S    
C9    C17   S    
O8    Zn2   S    
C10   H5    S    
C8    C15   S    
C9    C11   S    
C4    C14   S    
O2    Zn2   S    
C2    O3    A    
C10   C17   S    
O1    Zn1   S    
C19   H3    S    
C2    O4    A    
C17   C20   S    
C6    N1    T    
C18   C19   S    
O6    Zn2   S    
C11   Cl1   S    
O5    Zn1   S    
C14   C15   T    
C3    O5    A    
C16   C22   T    
C3    C12   S    
C20   H2    S    
C9    H6    S    
C19   H4    S    
C12   C21   T    
C11   H8    S    
C19   C20   S    
C13   Cl2   S    
C4    C5    T    
C10   C13   S    
