data_mof_unit_46990.cif
_audit_creation_date              2012-12-11T16:05:07-0500
_audit_creation_method            fapswitch 2.2
_symmetry_space_group_name_H-M    P1
_symmetry_Int_Tables_number       1
_space_group_crystal_system       triclinic
_cell_length_a                    10.680576
_cell_length_b                    10.618689
_cell_length_c                    16.912781
_cell_angle_alpha                 99.159602
_cell_angle_beta                  98.673439
_cell_angle_gamma                 61.775888
_cell_volume                      1662.23220597

loop_
_atom_site_label
_atom_site_type_symbol
_atom_type_description
_atom_site_fract_x
_atom_site_fract_y
_atom_site_fract_z
_atom_type_partial_charge
C1    C     C_R   0.359360 0.765339 0.396096 0.549491
C2    C     C_3   0.315343 0.711298 0.244444 -0.113772
C3    C     C_3   0.355588 0.796701 0.316691 -0.011294
C4    C     C_R   0.405284 0.372815 0.357160 0.548211
C5    C     C_3   0.475354 0.791051 0.273547 -0.093145
C6    C     C_3   0.365490 0.935932 0.242226 -0.170344
C7    C     C_3   0.247938 0.939141 0.287701 -0.177773
C8    C     C_3   0.207541 0.855056 0.214819 -0.036402
C9    C     C_3   0.323318 0.852005 0.169212 0.071151
C10   C     C_3   0.459497 0.267556 0.776313 -0.112842
C11   C     C_3   0.392550 0.408205 0.736004 -0.110281
C12   C     C_3   0.733463 0.400929 0.256306 -0.071693
C13   C     C_3   0.337232 0.334662 0.663586 0.050911
C14   C     C_3   0.404171 0.194840 0.703290 -0.112491
C15   C     C_3   0.262348 0.248780 0.740707 -0.112256
C16   C     C_R   0.783905 0.373188 0.405033 0.544632
C17   C     C_3   0.195603 0.389537 0.699860 -0.121592
C18   C     C_3   0.250739 0.461989 0.773846 -0.115747
C19   C     C_3   0.318579 0.321546 0.813039 0.053992
C20   C     C_1   0.769586 0.367398 0.715624 -0.044476
C21   C     C_1   0.814103 0.329136 0.782058 -0.049246
C22   C     C_1   0.338328 0.812158 0.709764 -0.050034
C23   C     C_3   0.841347 0.338909 0.328230 0.016832
C24   C     C_1   0.313230 0.838705 0.778550 -0.044867
C25   C     C_R   0.956050 0.286893 0.102911 0.554008
C26   C     C_R   0.321251 0.302143 0.119504 0.553381
C27   C     C_R   0.293133 0.892633 0.088732 0.584459
C28   C     C_R   0.356493 0.772122 0.627105 0.541454
C29   C     C_R   0.879092 0.301845 0.862046 0.557748
C30   C     C_R   0.308241 0.294101 0.892025 0.553389
C31   C     C_R   0.280182 0.884031 0.859145 0.550504
C32   C     C_R   0.367241 0.345823 0.585327 0.545214
C33   C     C_R   0.718997 0.410441 0.635938 0.550617
C34   C     C_3   0.918036 0.194027 0.279878 -0.129673
C35   C     C_1   0.373570 0.357958 0.272860 -0.064820
C36   C     C_1   0.347693 0.340929 0.201888 -0.041394
C37   C     C_3   0.811532 0.254889 0.206455 -0.079046
C38   C     C_1   0.062337 0.878823 0.184585 0.234559
C39   C     C_1   0.793837 0.594407 0.207624 0.285678
C40   C     C_3   0.017105 0.248830 0.254965 -0.171169
C41   C     C_3   0.938883 0.394168 0.305241 -0.148656
C42   C     C_3   0.833181 0.453042 0.232484 0.028774
C43   C     C_3   0.910161 0.308654 0.182853 0.045018
C44   C     C_3   0.430844 0.710098 0.199505 0.350351
Cr1   Cr    Cr6+3 0.608340 0.611040 0.520430 1.014567
Cr2   Cr    Cr6+3 0.287650 0.601120 0.489350 1.019939
Cr3   Cr    Cr6+3 0.604040 0.287870 0.490280 1.026546
Cr4   Cr    Cr6+3 0.054020 0.052700 0.970850 1.049484
Cr5   Cr    Cr6+3 0.059230 0.375120 0.993390 1.062216
Cr6   Cr    Cr6+3 0.374950 0.061200 0.992340 1.061158
F1    F     F_    0.516729 0.597714 0.147655 -0.646076
H1    H     H_    0.617240 0.459225 0.262480 0.148587
H2    H     H_    0.758478 0.199545 0.164435 0.169562
H3    H     H_    0.945635 0.092163 0.304118 0.138336
H4    H     H_    0.132977 0.198656 0.249557 0.108982
H5    H     H_    0.990950 0.450234 0.347562 0.139344
H6    H     H_    0.290912 0.622342 0.247403 0.121084
H7    H     H_    0.582982 0.765666 0.303690 0.140482
H8    H     H_    0.386766 0.027603 0.238879 0.143762
H9    H     H_    0.184895 0.023879 0.333419 0.128566
H10   H     H_    0.446187 0.474380 0.732031 0.104383
H11   H     H_    0.567039 0.219720 0.809252 0.133812
H12   H     H_    0.465071 0.085557 0.672762 0.134237
H13   H     H_    0.208383 0.182978 0.744896 0.117767
H14   H     H_    0.088529 0.437404 0.666448 0.141376
H15   H     H_    0.189956 0.570767 0.804924 0.137786
N1    N     N_1   0.948495 0.896337 0.160593 -0.276528
N2    N     N_1   0.764005 0.705250 0.187700 -0.248129
O1    O     O_R   0.751220 0.499230 0.435170 -0.520283
O2    O     O_R   0.412990 0.180750 0.091610 -0.500629
O3    O     O_R   0.366620 0.943130 0.065760 -0.487217
O4    O     O_R   0.477220 0.727600 0.436870 -0.506832
O5    O     O_R   0.160510 0.906330 0.879210 -0.508455
O6    O     O_R   0.930190 0.179050 0.889450 -0.491538
O7    O     O_R   0.909140 0.398170 0.896710 -0.495500
O8    O     O_R   0.186190 0.363460 0.918830 -0.499679
O9    O     O_R   0.401670 0.173200 0.913310 -0.510472
O10   O     O_R   0.356120 0.936130 0.900470 -0.489828
O11   O     O_3   0.162740 0.163010 0.985530 -0.298950
O12   O     O_R   0.297880 0.469080 0.560050 -0.498263
O13   O     O_R   0.258650 0.745120 0.411470 -0.517224
O14   O     O_R   0.297070 0.467240 0.395960 -0.501601
O15   O     O_R   0.488830 0.252610 0.387790 -0.499591
O16   O     O_R   0.724400 0.302390 0.420980 -0.508356
O17   O     O_R   0.752100 0.501210 0.612190 -0.505534
O18   O     O_R   0.478040 0.729440 0.600970 -0.508075
O19   O     O_R   0.259530 0.747110 0.588490 -0.501605
O20   O     O_R   0.489720 0.254590 0.564810 -0.518065
O21   O     O_R   0.725220 0.304230 0.585080 -0.489803
O22   O     O_3   0.500010 0.500010 0.500020 -0.295555
O23   O     O_R   0.171830 0.913880 0.057510 -0.522138
O24   O     O_R   0.940690 0.186050 0.054730 -0.490645
O25   O     O_R   0.920470 0.405720 0.075010 -0.482336
O26   O     O_R   0.196690 0.370460 0.084120 -0.510431

loop_
_geom_bond_atom_site_label_1
_geom_bond_atom_site_label_2
_ccdc_geom_bond_type
C26   O26   A    
C11   C18   S    
C25   O25   A    
C34   C37   S    
C41   C42   S    
C13   C32   S    
C35   C36   T    
Cr6   O11   S    
C25   C43   S    
C6    C9    S    
C2    H6    S    
C7    C8    S    
C15   C19   S    
C12   C23   S    
C5    H7    S    
C34   C40   S    
Cr4   O11   S    
C3    C7    S    
C5    C6    S    
C31   O5    A    
C1    O13   A    
C32   O20   A    
C16   O16   A    
C18   C19   S    
C39   N2    T    
C12   C37   S    
C33   O17   A    
C12   C42   S    
Cr2   O14   S    
C30   O9    A    
C40   C43   S    
C2    C44   S    
C8    C9    S    
C9    C44   S    
Cr4   O23   S    
C15   H13   S    
Cr5   O7    S    
C27   O23   A    
Cr3   O15   S    
Cr5   O26   S    
C37   H2    S    
C40   H4    S    
C4    C35   S    
C22   C28   S    
C13   C14   S    
Cr1   O4    S    
Cr3   O21   S    
C10   H11   S    
C8    C38   S    
Cr6   O10   S    
C12   H1    S    
C39   C42   S    
C1    O4    A    
Cr1   O1    S    
Cr4   O6    S    
C10   C14   S    
C29   O6    A    
C11   H10   S    
C21   C29   S    
Cr5   O11   S    
C1    C3    S    
C37   C43   S    
Cr1   O17   S    
Cr6   O3    S    
C41   H5    S    
C33   O21   A    
C32   O12   A    
Cr2   O13   S    
C30   O8    A    
C10   C19   S    
C23   C34   S    
C28   O19   A    
C17   C18   S    
Cr5   O8    S    
Cr3   O16   S    
C38   N1    T    
Cr1   O22   S    
Cr2   O22   S    
C20   C33   S    
C44   F1    S    
C26   C36   S    
C40   C41   S    
C5    C44   S    
C34   H3    S    
C16   C23   S    
C28   O18   A    
C26   O2    A    
Cr3   O22   S    
C22   C24   T    
C42   C43   S    
Cr6   O9    S    
C7    H9    S    
C27   O3    A    
C9    C27   S    
C31   O10   A    
Cr2   O19   S    
C15   C17   S    
C25   O24   A    
C6    H8    S    
C2    C8    S    
C16   O1    A    
Cr4   O5    S    
C3    C5    S    
C6    C7    S    
C29   O7    A    
C18   H15   S    
C17   H14   S    
C23   C41   S    
C13   C17   S    
Cr3   O20   S    
C2    C3    S    
Cr6   O2    S    
C24   C31   S    
Cr2   O12   S    
C11   C13   S    
C4    O15   A    
C14   H12   S    
Cr1   O18   S    
C10   C11   S    
C4    O14   A    
C20   C21   T    
Cr4   O24   S    
C14   C15   S    
Cr5   O25   S    
C19   C30   S    
