data_mof_unit_56060.cif
_audit_creation_date              2013-03-05T15:45:35-0500
_audit_creation_method            fapswitch 2.2
_symmetry_space_group_name_H-M    P1
_symmetry_Int_Tables_number       1
_space_group_crystal_system       triclinic
_cell_length_a                    27.689528
_cell_length_b                    10.704386
_cell_length_c                    10.004142
_cell_angle_alpha                 90.412019
_cell_angle_beta                  90.529062
_cell_angle_gamma                 89.812284
_cell_volume                      2965.00329045

loop_
_atom_site_label
_atom_site_type_symbol
_atom_site_description
_atom_site_fract_x
_atom_site_fract_y
_atom_site_fract_z
_atom_type_partial_charge
O1    O     O_R   0.499990 0.319060 0.613040 -0.569554
O2    O     O_R   0.500010 0.319100 0.386900 -0.602933
C1    C     C_R   0.499951 0.262594 0.499255 0.882172
O3    O     O_R   0.428750 0.500000 0.613050 -0.527862
O4    O     O_R   0.428760 0.500040 0.386920 -0.522686
C2    C     C_R   0.405821 0.500248 0.499320 0.967831
Zn1   Zn    Zn3+2 0.499990 0.499970 0.650990 1.171704
Zn2   Zn    Zn3+2 0.500010 0.500030 0.349010 1.155601
O5    O     O_R   0.499990 0.680900 0.613100 -0.618664
O6    O     O_R   0.500010 0.680940 0.386960 -0.558864
O7    O     O_R   0.571240 0.499960 0.613080 -0.570774
O8    O     O_R   0.571250 0.500000 0.386950 -0.616008
C3    C     C_R   0.503550 0.737177 0.500342 0.946231
C4    C     C_R   0.593817 0.498603 0.500684 1.005774
C5    C     C_R   0.178049 0.381090 0.447349 0.595383
O9    O     O_2   0.205089 0.281918 0.409979 -0.461731
N1    N     N_R   0.200310 0.488849 0.487495 -0.324416
C6    C     C_R   0.174831 0.592542 0.524300 0.647161
C7    C     C_R   0.277163 0.501142 0.372573 -0.250255
C8    C     C_R   0.327249 0.503923 0.374486 0.611199
C9    C     C_R   0.326680 0.491971 0.617613 0.503719
C10   C     C_R   0.276295 0.486349 0.614722 0.456458
C11   C     C_R   0.251744 0.492790 0.491766 0.004284
C12   C     C_R   0.100479 0.478789 0.486000 -0.146579
C13   C     C_R   0.127403 0.373698 0.445438 -0.226322
C14   C     C_R   0.103353 0.263474 0.408159 0.591148
C15   C     C_R   0.124432 0.589432 0.524971 -0.091094
C16   C     C_R   0.352696 0.499042 0.497246 -0.427450
C17   C     C_R   0.646223 0.489171 0.502949 -0.427462
C18   C     C_R   0.973857 0.371809 0.429794 0.071190
C19   C     C_R   0.974252 0.557399 0.575301 -0.075453
C20   C     C_R   0.948722 0.462871 0.505428 0.011232
C21   C     C_R   0.946886 0.292503 0.345060 -0.262130
C22   C     C_R   0.896463 0.289937 0.347658 0.520374
C23   C     C_R   0.871399 0.375480 0.429676 -0.146248
C24   C     C_R   0.897761 0.461490 0.509178 -0.132710
C25   C     C_R   0.873190 0.547971 0.591072 -0.096594
C26   C     C_R   0.822843 0.550416 0.588851 0.625703
N2    N     N_R   0.797940 0.467325 0.510968 -0.293963
C27   C     C_R   0.820633 0.380215 0.433194 0.660827
C28   C     C_R   0.719939 0.404410 0.600713 0.387170
C29   C     C_R   0.669310 0.408422 0.594491 0.324400
C30   C     C_R   0.673409 0.558598 0.412465 0.464194
C31   C     C_R   0.723450 0.550413 0.415289 0.562950
C32   C     C_R   0.746565 0.473649 0.508705 -0.076333
O10   O     O_2   0.793890 0.299670 0.359488 -0.485554
C33   C     C_R   0.025130 0.366611 0.438441 -0.089268
C34   C     C_R   0.049674 0.472964 0.490255 -0.051995
C35   C     C_R   0.023619 0.574214 0.546778 -0.046192
C36   C     C_R   0.052640 0.259735 0.399479 0.387578
H1    H     H_    0.963979 0.236336 0.269534 0.195486
O11   O     O_2   0.198354 0.697972 0.560390 -0.502330
C37   C     C_R   0.097698 0.695148 0.560924 -0.219021
H2    H     H_    0.257856 0.505460 0.278029 0.214100
H3    H     H_    0.115377 0.783323 0.582287 0.226406
C38   C     C_R   0.949443 0.629874 0.672424 0.553960
C39   C     C_R   0.899260 0.628368 0.675237 -0.238267
O12   O     O_2   0.798784 0.635964 0.662653 -0.563234
C40   C     C_R   0.047618 0.689978 0.567308 0.546582
H4    H     H_    0.880953 0.688993 0.745799 0.214384
C41   C     C_2   0.519208 0.934211 0.390343 0.508959
C42   C     C_2   0.514458 0.867467 0.502283 -0.380608
H5    H     H_    0.518490 0.910536 0.600512 0.171255
C43   C     C_2   0.524470 0.068476 0.405678 0.317046
C44   C     C_2   0.497645 0.130674 0.495121 0.269626
C45   C     C_2   0.533974 0.551156 0.926288 0.650398
N3    N     N_2   0.500520 0.501330 0.852150 0.167576
C46   C     C_2   0.537835 0.520076 0.074001 -0.015737
N4    N     N_2   0.500540 0.501360 0.147810 0.184209
H6    H     H_    0.573220 0.517043 0.121009 0.111561
F1    F     F_    0.349632 0.489878 0.738194 -0.550176
O13   O     O_3   0.973429 0.699386 0.769140 -0.553216
C47   C     C_3   0.989382 0.618177 0.870886 -0.274497
H7    H     H_    0.016485 0.549974 0.832906 0.158920
H8    H     H_    0.958556 0.568293 0.917011 0.155555
H9    H     H_    0.007202 0.674520 0.950567 0.197479
F2    F     F_    0.651524 0.635844 0.323224 -0.608199
F3    F     F_    0.749782 0.617775 0.327781 -0.597336
O14   O     O_3   0.022891 0.800921 0.587308 -0.549682
C48   C     C_3   0.004526 0.842159 0.463223 -0.219972
H10   H     H_    0.976979 0.776726 0.421874 0.129556
H11   H     H_    0.034012 0.855509 0.389873 0.160767
H12   H     H_    0.986472 0.933715 0.478562 0.228823
O15   O     O_3   0.523110 0.876513 0.265687 -0.576403
C49   C     C_3   0.492315 0.935113 0.171831 -0.125753
H13   H     H_    0.508064 0.024382 0.137220 0.213473
H14   H     H_    0.455390 0.950778 0.212185 0.161306
H15   H     H_    0.488541 0.872877 0.083245 0.184129
F4    F     F_    0.556039 0.128846 0.324928 -0.663290
O16   O     O_3   0.250748 0.482201 0.732628 -0.553958
C50   C     C_3   0.247092 0.356496 0.772261 -0.145415
H16   H     H_    0.283245 0.315548 0.794543 0.209131
H17   H     H_    0.227879 0.299093 0.695438 0.157474
H18   H     H_    0.225686 0.352795 0.865328 0.193622
F5    F     F_    0.463837 0.074705 0.572397 -0.660660
O17   O     O_3   0.567889 0.625083 0.862076 -0.638363
C51   C     C_3   0.591523 0.708690 0.950249 -0.281274
H19   H     H_    0.619878 0.659481 0.009100 0.211136
H20   H     H_    0.565727 0.758373 0.016892 0.186034
H21   H     H_    0.609895 0.780690 0.890042 0.213909
F6    F     F_    0.477358 0.403282 0.903408 -0.491816
F7    F     F_    0.458125 0.538537 0.096190 -0.460462
F8    F     F_    0.128883 0.156920 0.385803 -0.605261
O18   O     O_3   0.642511 0.334879 0.679247 -0.574026
C52   C     C_3   0.634208 0.218742 0.615896 -0.172684
H22   H     H_    0.668643 0.167205 0.599546 0.202206
H23   H     H_    0.614347 0.230115 0.519518 0.160713
H24   H     H_    0.611394 0.161085 0.681787 0.179378
O19   O     O_3   0.743705 0.324029 0.686988 -0.585696
C53   C     C_3   0.743140 0.375556 0.817136 -0.147942
H25   H     H_    0.706076 0.377075 0.858742 0.204549
H26   H     H_    0.758836 0.471030 0.820168 0.179756
H27   H     H_    0.765691 0.315890 0.883187 0.196271
O20   O     O_3   0.871911 0.210735 0.260923 -0.566609
C54   C     C_3   0.876584 0.087079 0.307426 -0.176378
H28   H     H_    0.863996 0.078565 0.412415 0.171458
H29   H     H_    0.914379 0.052684 0.298673 0.128939
H30   H     H_    0.853486 0.025580 0.244318 0.211075
O21   O     O_3   0.030014 0.145977 0.376160 -0.612459
C55   C     C_3   0.041836 0.098213 0.248127 -0.277553
H31   H     H_    0.073668 0.035315 0.254441 0.245761
H32   H     H_    0.047875 0.172552 0.172565 0.149592
H33   H     H_    0.011173 0.040643 0.211268 0.157957
F9    F     F_    0.350410 0.512024 0.255823 -0.547435

loop_
_geom_bond_atom_site_label_1
_geom_bond_atom_site_label_2
_geom_bond_distance
_ccdc_geom_bond_type
C45   C46   1.519795 S    
C17   C29   1.411184 A    
C54   H29   1.112264 S    
C47   H7    1.112770 S    
C7    C8    1.387241 A    
C12   C15   1.410088 A    
O20   C54   1.411343 S    
C37   C40   1.390064 A    
C6    O11   1.350143 S    
C49   H13   1.110600 S    
C31   C32   1.398137 A    
Zn1   O7    2.012437 S    
C52   H23   1.112804 S    
Zn2   N4    2.013176 S    
C42   H5    1.087426 S    
C9    F1    1.358573 S    
C20   C24   1.412068 A    
C24   C25   1.409365 A    
C14   C36   1.406778 A    
C26   N2    1.363008 A    
O7    C4    1.291530 A    
C5    C13   1.404816 A    
C54   H28   1.114158 S    
C38   C39   1.390242 A    
N1    C6    1.363507 A    
C22   C23   1.410283 A    
C28   C29   1.403228 A    
O5    C3    1.287367 A    
C53   H25   1.111056 S    
C26   O12   1.350145 S    
C2    C16   1.471050 S    
C3    C42   1.427936 S    
C19   C20   1.413367 A    
C46   N4    1.292025 D    
C38   O13   1.382737 S    
C19   C38   1.419800 A    
C55   H33   1.109498 S    
N2    C32   1.423925 S    
C49   H14   1.114454 S    
C45   N3    1.295184 D    
C28   O19   1.383779 S    
C9    C10   1.396652 A    
C17   C30   1.401538 A    
C47   H8    1.113754 S    
C1    C44   1.414062 S    
C43   F4    1.363290 S    
C19   C35   1.411345 A    
C48   H12   1.109051 S    
O18   C52   1.409925 S    
C51   H20   1.112986 S    
C55   H32   1.115562 S    
C51   H19   1.110750 S    
C33   C36   1.426304 A    
C37   H3    1.083681 S    
C22   O20   1.384260 S    
C52   H24   1.109312 S    
C36   O21   1.388517 S    
C12   C34   1.409414 A    
C18   C33   1.422503 A    
O15   C49   1.411520 S    
C48   H11   1.113021 S    
C40   O14   1.383084 S    
C50   H16   1.112816 S    
O13   C47   1.410242 S    
C39   H4    1.083650 S    
C8    C16   1.411440 A    
O3    Zn1   2.005341 S    
C13   C14   1.403169 A    
N4    F7    1.339048 S    
O6    C3    1.283401 A    
O1    C1    1.284994 A    
C23   C24   1.412869 A    
C41   C43   1.451954 S    
C7    C11   1.393818 A    
C30   C31   1.388132 A    
C25   C26   1.394228 A    
C14   F8    1.358190 S    
C50   H17   1.113125 S    
C33   C34   1.420101 A    
Zn2   O8    2.005344 S    
C54   H30   1.109211 S    
O17   C51   1.410355 S    
C21   C22   1.397035 A    
C10   O16   1.382062 S    
N1    C11   1.425167 S    
C12   C13   1.406916 A    
C53   H27   1.109192 S    
C7    H2    1.083349 S    
O3    C2    1.297812 A    
C34   C35   1.417218 A    
C9    C16   1.411520 A    
O8    C4    1.293205 A    
C47   H9    1.109237 S    
C21   H1    1.074528 S    
C27   O10   1.349215 S    
C4    C17   1.454238 S    
N2    C27   1.365442 A    
C51   H21   1.109270 S    
C55   H31   1.109003 S    
N3    F6    1.339425 S    
C45   O17   1.394318 S    
C49   H15   1.109236 S    
Zn1   O5    1.976163 S    
C18   C21   1.406802 A    
O1    Zn1   1.970715 S    
Zn2   O6    1.970714 S    
O2    Zn2   1.976165 S    
C6    C15   1.396102 A    
C48   H10   1.112217 S    
C41   O15   1.392594 S    
C29   O18   1.383599 S    
O4    Zn2   2.012434 S    
O21   C55   1.416474 S    
C15   C37   1.396956 A    
C5    N1    1.365729 A    
C30   F2    1.358441 S    
C52   H22   1.112827 S    
C35   C40   1.420757 A    
C43   C44   1.340193 D    
C31   F3    1.357298 S    
O2    C1    1.280266 A    
O19   C53   1.410571 S    
C50   H18   1.109342 S    
C18   C20   1.414827 A    
O16   C50   1.409743 S    
O4    C2    1.296534 A    
C23   C27   1.407207 A    
C41   C42   1.340400 D    
C53   H26   1.111983 S    
C8    F9    1.357921 S    
Zn1   N3    2.012300 S    
O14   C48   1.410382 S    
C44   F5    1.362592 S    
C46   H6    1.083388 S    
C28   C32   1.402155 A    
C10   C11   1.401944 A    
C25   C39   1.397535 A    
C5    O9    1.349651 S    
