data_mof_unit_55245.cif
_audit_creation_date              2012-12-10T18:04:45-0500
_audit_creation_method            fapswitch 2.2
_symmetry_space_group_name_H-M    P1
_symmetry_Int_Tables_number       1
_space_group_crystal_system       triclinic
_cell_length_a                    19.290511
_cell_length_b                    18.015065
_cell_length_c                    12.686093
_cell_angle_alpha                 89.017805
_cell_angle_beta                  98.934629
_cell_angle_gamma                 88.260585
_cell_volume                      4352.10131414

loop_
_atom_site_label
_atom_site_type_symbol
_atom_type_description
_atom_site_fract_x
_atom_site_fract_y
_atom_site_fract_z
_atom_type_partial_charge
C1    C     C_R   0.416173 0.107350 0.447919 0.852101
C2    C     C_R   0.785754 0.783538 0.664550 0.047290
C3    C     C_3   0.839308 0.330168 0.061408 -0.942336
C4    C     C_3   0.327953 0.109440 0.053768 0.224690
C5    C     C_3   0.290768 0.185624 0.031308 -0.325500
C6    C     C_3   0.220852 0.189170 0.073393 -0.993958
C7    C     C_3   0.827953 0.609440 0.053768 0.224689
C8    C     C_3   0.790768 0.685624 0.031308 -0.325499
C9    C     C_3   0.720851 0.689170 0.073394 -0.993958
C10   C     C_3   0.238506 0.045560 0.803307 -0.334420
C11   C     C_3   0.738506 0.545560 0.803307 -0.334420
C12   C     C_3   0.344700 0.855965 0.767327 0.050641
C13   C     C_R   0.216665 0.785757 0.615488 0.074088
C14   C     C_3   0.358001 0.771706 0.786620 -0.374557
C15   C     C_3   0.433283 0.754091 0.840359 -0.940391
C16   C     C_3   0.419622 0.281358 0.846811 0.068069
C17   C     C_3   0.495926 0.254771 0.848171 -0.335729
C18   C     C_3   0.547089 0.305746 0.913239 -0.958344
C19   C     C_3   0.844700 0.355965 0.767327 0.050642
C20   C     C_3   0.858001 0.271706 0.786621 -0.374556
C21   C     C_3   0.933284 0.254091 0.840359 -0.940391
C22   C     C_3   0.919622 0.781358 0.846811 0.068069
C23   C     C_3   0.995926 0.754771 0.848171 -0.335732
C24   C     C_R   0.285755 0.283538 0.664550 0.047289
C25   C     C_3   0.047089 0.805747 0.913238 -0.958343
C26   C     C_R   0.254416 0.850096 0.629459 0.450700
C27   C     C_R   0.349597 0.243897 0.695668 0.466353
C28   C     C_R   0.754416 0.350096 0.629459 0.450700
C29   C     C_R   0.849597 0.743897 0.695668 0.466354
C30   C     C_R   0.283250 0.879014 0.544357 -0.342115
C31   C     C_R   0.383448 0.211525 0.617333 -0.292494
C32   C     C_R   0.783250 0.379014 0.544357 -0.342115
C33   C     C_R   0.408623 0.900512 0.443254 0.851510
C34   C     C_R   0.883448 0.711525 0.617333 -0.292495
C35   C     C_R   0.674557 0.185246 0.504433 -0.225705
C36   C     C_R   0.695890 0.830780 0.523043 -0.223506
C37   C     C_R   0.174557 0.685246 0.504433 -0.225704
C38   C     C_R   0.195889 0.330780 0.523043 -0.223505
C39   C     C_R   0.640720 0.196912 0.679726 -0.262860
C40   C     C_R   0.678824 0.842571 0.706712 -0.208806
C41   C     C_R   0.140720 0.696912 0.679725 -0.262860
C42   C     C_R   0.178824 0.342571 0.706712 -0.208806
C43   C     C_R   0.357542 0.843240 0.410166 -0.095896
C44   C     C_R   0.916173 0.607350 0.447919 0.852101
C45   C     C_R   0.381277 0.180833 0.425591 -0.094585
C46   C     C_R   0.857542 0.343240 0.410166 -0.095896
C47   C     C_R   0.881277 0.680833 0.425591 -0.094585
C48   C     C_R   0.644686 0.994004 0.133808 -0.275486
C49   C     C_R   0.144686 0.494004 0.133808 -0.275486
C50   C     C_R   0.380786 0.024105 0.758405 -0.166476
C51   C     C_R   0.880786 0.524105 0.758405 -0.166476
C52   C     C_R   0.357735 0.055702 0.847060 0.400509
C53   C     C_R   0.857735 0.555702 0.847060 0.400508
C54   C     C_R   0.592185 0.900179 0.557957 0.860799
C55   C     C_R   0.908624 0.400512 0.443254 0.851509
C56   C     C_R   0.589498 0.100784 0.555433 0.838168
C57   C     C_R   0.092185 0.400178 0.557957 0.860799
C58   C     C_R   0.089498 0.600784 0.555433 0.838168
C59   C     C_R   0.405809 0.059714 0.943904 0.450073
C60   C     C_R   0.905809 0.559714 0.943904 0.450072
C61   C     C_R   0.473847 0.024669 0.949675 -0.155944
C62   C     C_R   0.973847 0.524669 0.949675 -0.155944
C63   C     C_R   0.495726 0.003504 0.852967 0.063702
C64   C     C_R   0.995726 0.503504 0.852967 0.063702
C65   C     C_R   0.522993 0.013716 0.046034 -0.105506
C66   C     C_R   0.717259 0.245429 0.520864 -0.009777
C67   C     C_R   0.022993 0.513717 0.046034 -0.105505
C68   C     C_R   0.595459 0.001028 0.040070 0.014625
C69   C     C_R   0.095459 0.501028 0.040070 0.014625
C70   C     C_R   0.617476 0.993645 0.940614 0.413944
C71   C     C_R   0.117476 0.493645 0.940614 0.413944
C72   C     C_R   0.567213 0.991975 0.849345 -0.262989
C73   C     C_R   0.067213 0.491975 0.849345 -0.262989
C74   C     C_R   0.502515 0.006357 0.147895 0.633300
C75   C     C_R   0.002515 0.506357 0.147895 0.633300
C76   C     C_R   0.621880 0.995261 0.232121 -0.136352
C77   C     C_R   0.762442 0.798953 0.554656 0.003886
C78   C     C_R   0.121880 0.495261 0.232121 -0.136352
C79   C     C_R   0.680238 0.259923 0.695847 -0.170431
C80   C     C_R   0.743998 0.807014 0.740117 -0.149010
C81   C     C_R   0.180237 0.759923 0.695847 -0.170431
C82   C     C_R   0.243998 0.307014 0.740117 -0.149010
C83   C     C_R   0.636401 0.160966 0.582380 -0.034521
C84   C     C_R   0.654682 0.854290 0.597491 -0.066141
C85   C     C_R   0.136401 0.660966 0.582380 -0.034521
C86   C     C_R   0.154682 0.354290 0.597491 -0.066141
C87   C     C_R   0.372767 0.792908 0.333058 -0.218910
C88   C     C_R   0.217259 0.745429 0.520864 -0.009777
C89   C     C_R   0.369427 0.209718 0.320530 -0.201283
C90   C     C_R   0.872766 0.292908 0.333058 -0.218910
C91   C     C_R   0.869427 0.709718 0.320530 -0.201284
C92   C     C_R   0.332259 0.731525 0.309447 -0.151358
C93   C     C_R   0.327289 0.273496 0.295233 -0.153664
C94   C     C_R   0.832259 0.231525 0.309446 -0.151357
C95   C     C_R   0.827289 0.773496 0.295233 -0.153663
C96   C     C_R   0.278890 0.716295 0.367375 -0.161828
C97   C     C_R   0.291694 0.304641 0.371570 -0.170190
C98   C     C_R   0.778890 0.216295 0.367375 -0.161828
C99   C     C_R   0.262442 0.298953 0.554656 0.003886
C100  C     C_R   0.791695 0.804641 0.371570 -0.170189
C101  C     C_R   0.263592 0.764255 0.448874 0.084221
C102  C     C_R   0.303332 0.276300 0.477636 0.078327
C103  C     C_R   0.763592 0.264255 0.448874 0.084221
C104  C     C_R   0.803332 0.776300 0.477636 0.078326
C105  C     C_R   0.300234 0.830836 0.465120 0.034451
C106  C     C_R   0.356897 0.222175 0.507459 0.022654
C107  C     C_R   0.800234 0.330836 0.465120 0.034451
C108  C     C_R   0.856897 0.722175 0.507459 0.022654
C109  C     C_3   0.717465 0.035981 0.888563 0.060945
C110  C     C_R   0.716665 0.285757 0.615488 0.074089
C111  C     C_3   0.789680 0.010871 0.864803 -0.320140
C112  C     C_3   0.827436 0.075177 0.821768 -0.983911
C113  C     C_3   0.217465 0.535981 0.888563 0.060947
C114  C     C_3   0.289679 0.510871 0.864802 -0.320140
C115  C     C_3   0.327435 0.575177 0.821767 -0.983911
C116  C     C_3   0.411724 0.928321 0.159836 0.099078
C117  C     C_3   0.377605 0.902348 0.051287 -0.458153
C118  C     C_3   0.339308 0.830168 0.061408 -0.942337
C119  C     C_3   0.911724 0.428321 0.159836 0.099079
C120  C     C_3   0.877605 0.402348 0.051287 -0.458153
H1    H     H_    0.611997 0.177931 0.741346 0.157036
H2    H     H_    0.085947 0.483562 0.775822 0.213063
H3    H     H_    0.879847 0.376035 0.712448 0.191903
H4    H     H_    0.820662 0.249614 0.836518 0.224999
H5    H     H_    0.849991 0.242783 0.709272 0.224372
H6    H     H_    0.971119 0.276962 0.791608 0.271388
H7    H     H_    0.942487 0.193005 0.848437 0.266536
H8    H     H_    0.942892 0.277949 0.921081 0.268755
H9    H     H_    0.910553 0.788770 0.930424 0.172801
H10   H     H_    0.909850 0.837134 0.806330 0.106995
H11   H     H_    0.003797 0.697504 0.883035 0.245307
H12   H     H_    0.007493 0.753841 0.765196 0.204172
H13   H     H_    0.681183 0.289094 0.769975 0.177141
H14   H     H_    0.041414 0.862920 0.878083 0.264233
H15   H     H_    0.101726 0.784605 0.913016 0.257257
H16   H     H_    0.037251 0.807207 0.997174 0.269461
H17   H     H_    0.761557 0.798494 0.824713 0.164903
H18   H     H_    0.181183 0.789094 0.769974 0.177140
H19   H     H_    0.261557 0.298494 0.824713 0.164903
H20   H     H_    0.668527 0.158329 0.428754 0.163668
H21   H     H_    0.674623 0.835949 0.439213 0.157956
H22   H     H_    0.168527 0.658328 0.428755 0.163668
H23   H     H_    0.174623 0.335949 0.439213 0.157956
H24   H     H_    0.418442 0.798589 0.294394 0.149008
H25   H     H_    0.648121 0.861662 0.766051 0.179710
H26   H     H_    0.392741 0.183167 0.258116 0.178659
H27   H     H_    0.918442 0.298589 0.294394 0.149008
H28   H     H_    0.892741 0.683167 0.258116 0.178659
H29   H     H_    0.754030 0.164138 0.350698 0.122186
H30   H     H_    0.757327 0.852487 0.347448 0.125156
H31   H     H_    0.254030 0.664138 0.350698 0.122185
H32   H     H_    0.257327 0.352487 0.347448 0.125156
H33   H     H_    0.345011 0.693042 0.250115 0.140778
H34   H     H_    0.319623 0.297384 0.215434 0.147959
H35   H     H_    0.845011 0.193042 0.250115 0.140778
H36   H     H_    0.111996 0.677932 0.741346 0.157037
H37   H     H_    0.819623 0.797384 0.215434 0.147959
H38   H     H_    0.300354 0.935357 0.550700 0.181844
H39   H     H_    0.431501 0.179779 0.644147 0.196592
H40   H     H_    0.800354 0.435357 0.550700 0.181844
H41   H     H_    0.931501 0.679779 0.644147 0.196592
H42   H     H_    0.659481 0.990464 0.304862 0.156790
H43   H     H_    0.159481 0.490464 0.304862 0.156790
H44   H     H_    0.723483 0.082348 0.945927 0.146766
H45   H     H_    0.685509 0.056296 0.812163 0.138918
H46   H     H_    0.822116 0.987975 0.939015 0.221847
H47   H     H_    0.148121 0.361662 0.766051 0.179710
H48   H     H_    0.783488 0.966305 0.804844 0.225025
H49   H     H_    0.795555 0.099929 0.748370 0.275950
H50   H     H_    0.878714 0.054818 0.802135 0.265350
H51   H     H_    0.837138 0.118327 0.883232 0.268101
H52   H     H_    0.223483 0.582348 0.945927 0.146766
H53   H     H_    0.185509 0.556297 0.812164 0.138917
H54   H     H_    0.322116 0.487975 0.939014 0.221847
H55   H     H_    0.283488 0.466306 0.804843 0.225025
H56   H     H_    0.295554 0.599929 0.748370 0.275950
H57   H     H_    0.378713 0.554818 0.802134 0.265349
H58   H     H_    0.700380 0.986786 0.131496 0.191887
H59   H     H_    0.337138 0.618327 0.883232 0.268101
H60   H     H_    0.370425 0.926627 0.211518 0.196768
H61   H     H_    0.455716 0.888467 0.191633 0.136052
H62   H     H_    0.338667 0.944744 0.012915 0.216848
H63   H     H_    0.419538 0.893147 0.001977 0.208082
H64   H     H_    0.377464 0.783819 0.088801 0.260795
H65   H     H_    0.308972 0.816557 0.983255 0.274242
H66   H     H_    0.301192 0.836307 0.118149 0.273312
H67   H     H_    0.870425 0.426627 0.211518 0.196768
H68   H     H_    0.955715 0.388467 0.191633 0.136052
H69   H     H_    0.200380 0.486786 0.131496 0.191887
H70   H     H_    0.838667 0.444744 0.012914 0.216848
H71   H     H_    0.919538 0.393147 0.001977 0.208082
H72   H     H_    0.877464 0.283819 0.088801 0.260794
H73   H     H_    0.808972 0.316557 0.983255 0.274242
H74   H     H_    0.801192 0.336307 0.118149 0.273312
H75   H     H_    0.335159 0.098741 0.141171 0.165722
H76   H     H_    0.294204 0.064370 0.019136 0.120397
H77   H     H_    0.325371 0.228949 0.068856 0.199112
H78   H     H_    0.280873 0.198398 0.944718 0.286333
H79   H     H_    0.184768 0.148154 0.032296 0.271536
H80   H     H_    0.346944 0.026779 0.682156 0.185207
H81   H     H_    0.196218 0.245623 0.057982 0.275981
H82   H     H_    0.228950 0.177236 0.160697 0.272076
H83   H     H_    0.835159 0.598741 0.141171 0.165722
H84   H     H_    0.794204 0.564370 0.019136 0.120396
H85   H     H_    0.825371 0.728949 0.068856 0.199112
H86   H     H_    0.780872 0.698398 0.944718 0.286333
H87   H     H_    0.684768 0.648154 0.032297 0.271536
H88   H     H_    0.696218 0.745623 0.057982 0.275981
H89   H     H_    0.728950 0.677236 0.160697 0.272075
H90   H     H_    0.244249 0.993870 0.853821 0.176387
H91   H     H_    0.846944 0.526779 0.682156 0.185207
H92   H     H_    0.233942 0.032059 0.717480 0.195908
H93   H     H_    0.188530 0.074021 0.814863 0.191435
H94   H     H_    0.744248 0.493870 0.853821 0.176387
H95   H     H_    0.733942 0.532058 0.717480 0.195908
H96   H     H_    0.688530 0.574020 0.814863 0.191435
H97   H     H_    0.360245 0.884602 0.842430 0.169410
H98   H     H_    0.379847 0.876036 0.712448 0.191903
H99   H     H_    0.320662 0.749614 0.836518 0.224999
H100  H     H_    0.349990 0.742783 0.709272 0.224372
H101  H     H_    0.471119 0.776962 0.791608 0.271388
H102  H     H_    0.585947 0.983562 0.775822 0.213063
H103  H     H_    0.442486 0.693005 0.848437 0.266536
H104  H     H_    0.442891 0.777949 0.921081 0.268755
H105  H     H_    0.410553 0.288771 0.930424 0.172801
H106  H     H_    0.409851 0.337134 0.806330 0.106994
H107  H     H_    0.503797 0.197504 0.883037 0.245307
H108  H     H_    0.507493 0.253839 0.765197 0.204172
H109  H     H_    0.541415 0.362919 0.878082 0.264233
H110  H     H_    0.601726 0.284603 0.913017 0.257257
H111  H     H_    0.537252 0.307207 0.997173 0.269462
H112  H     H_    0.860245 0.384602 0.842430 0.169410
N1    N     N_R   0.552340 1.000000 0.237260 -0.148547
N2    N     N_R   0.052340 0.500000 0.237260 -0.148547
N3    N     N_R   0.448170 0.000000 0.762060 -0.160625
N4    N     N_R   0.948170 0.500000 0.762060 -0.160625
O1    O     O_R   0.448200 0.076800 0.373930 -0.576626
O2    O     O_R   0.585240 0.076800 0.457600 -0.622818
O3    O     O_R   0.085240 0.423200 0.457600 -0.619904
O4    O     O_R   0.085240 0.576800 0.457600 -0.622818
O5    O     O_R   0.551780 0.923190 0.626070 -0.629856
O6    O     O_R   0.551780 0.076810 0.626070 -0.642161
O7    O     O_R   0.051780 0.423190 0.626070 -0.629856
O8    O     O_R   0.051780 0.576810 0.626070 -0.642161
O9    O     O_3   0.686864 0.975421 0.933894 -0.660908
O10   O     O_3   0.186864 0.475421 0.933894 -0.660908
O11   O     O_3   0.432476 0.002964 0.158012 -0.646162
O12   O     O_R   0.448200 0.923200 0.373930 -0.625660
O13   O     O_3   0.932476 0.502964 0.158012 -0.646163
O14   O     O_3   0.395469 0.110541 0.022424 -0.612045
O15   O     O_3   0.895469 0.610541 0.022424 -0.612044
O16   O     O_3   0.293720 0.094333 0.833230 -0.596528
O17   O     O_3   0.793720 0.594333 0.833230 -0.596527
O18   O     O_3   0.273191 0.876741 0.730831 -0.686849
O19   O     O_3   0.373513 0.226718 0.801983 -0.622317
O20   O     O_3   0.773192 0.376741 0.730831 -0.686849
O21   O     O_3   0.873513 0.726718 0.801983 -0.622317
O22   O     O_R   0.948200 0.576800 0.373930 -0.576626
O23   O     O_R   0.948200 0.423200 0.373930 -0.625660
O24   O     O_R   0.414750 0.076790 0.542400 -0.624219
O25   O     O_R   0.414750 0.923210 0.542400 -0.623662
O26   O     O_R   0.914750 0.576790 0.542400 -0.624219
O27   O     O_R   0.914750 0.423210 0.542400 -0.623662
O28   O     O_R   0.585240 0.923200 0.457600 -0.619904
Zn1   Zn    Zn3+2 0.522330 1.000000 0.387520 0.957075
Zn2   Zn    Zn3+2 0.022330 0.500000 0.387520 0.957075
Zn3   Zn    Zn3+2 0.477660 0.000000 0.612480 0.910884
Zn4   Zn    Zn3+2 0.977660 0.500000 0.612480 0.910884

loop_
_geom_bond_atom_site_label_1
_geom_bond_atom_site_label_2
_ccdc_geom_bond_type
C4    H75   S    
C4    O14   S    
C13   C26   A    
C13   C81   A    
C115  H57   S    
C24   C99   A    
C100  H30   S    
C38   H23   S    
C40   C84   A    
C37   C88   A    
C76   H42   S    
C111  C112  S    
C42   C82   A    
C24   C27   A    
C100  C104  A    
C34   H41   S    
C48   H58   S    
C88   C101  A    
C118  H66   S    
O8    Zn4   S    
C7    C8    S    
C50   N3    A    
C57   C86   S    
C67   C69   A    
C19   H3    S    
C90   H27   S    
C40   H25   S    
C38   C86   A    
C2    C29   A    
C55   O27   A    
C113  O10   S    
C37   C85   A    
C93   H34   S    
C64   N4    A    
C72   H102  S    
C18   H111  S    
C109  C111  S    
O26   Zn4   S    
C6    H79   S    
C17   H108  S    
N2    Zn2   S    
C112  H51   S    
C49   H69   S    
C94   C98   A    
C3    H72   S    
C98   C103  A    
C33   O25   A    
C69   C71   A    
C92   C96   A    
C49   C78   A    
C75   N2    A    
C60   C62   A    
C43   C105  A    
C15   H104  S    
C61   C63   A    
C25   H16   S    
C24   C82   A    
C119  H68   S    
O1    Zn1   S    
C62   C64   A    
C11   O17   S    
C53   C60   A    
C51   H91   S    
C112  H50   S    
C19   C20   S    
C9    H89   S    
C16   C17   S    
C32   C107  A    
C46   C55   S    
C60   O15   S    
C50   C52   A    
C64   C73   A    
C40   C80   A    
C76   N1    A    
C42   C86   A    
C87   H24   S    
C21   H7    S    
C45   C89   A    
C19   H112  S    
C7    H83   S    
C97   C102  A    
C79   C110  A    
C44   C47   S    
C11   H96   S    
C41   H36   S    
C109  O9    S    
C78   H43   S    
C49   C69   A    
C96   C101  A    
C22   H10   S    
N3    Zn3   S    
C34   C108  A    
C10   O16   S    
C14   H100  S    
C81   H18   S    
C53   O17   S    
C59   O14   S    
C58   O4    A    
C12   H98   S    
C91   H28   S    
C118  H65   S    
C10   H90   S    
C90   C94   A    
C113  H52   S    
C22   C23   S    
C22   O21   S    
C101  C105  A    
C89   H26   S    
C79   H13   S    
C16   H105  S    
C59   C61   A    
C3    H74   S    
C12   O18   S    
C37   H22   S    
C27   C31   A    
C33   C43   S    
C54   O5    A    
O4    Zn2   S    
C28   C32   A    
C74   N1    A    
O7    Zn4   S    
C6    H81   S    
C9    H87   S    
C120  H71   S    
C71   C73   A    
C35   C83   A    
C95   C100  A    
C8    C9    S    
C5    H77   S    
O12   Zn1   S    
C11   H94   S    
C35   C66   A    
C28   C110  A    
C96   H31   S    
C63   N3    A    
C29   C34   A    
C9    H88   S    
C89   C93   A    
C29   O21   S    
C65   C74   A    
O3    Zn2   S    
C7    O15   S    
C51   N4    A    
O24   Zn3   S    
C39   C79   A    
C15   H101  S    
C58   O8    A    
C36   H21   S    
C116  H61   S    
C7    H84   S    
C52   C59   A    
C120  H70   S    
C35   H20   S    
C6    H82   S    
C112  H49   S    
C116  O11   S    
C114  H54   S    
C78   N2    A    
C65   C68   A    
C41   C81   A    
O27   Zn4   S    
C20   C21   S    
C82   H19   S    
O5    Zn3   S    
C17   C18   S    
C94   H35   S    
C23   H11   S    
C111  H46   S    
C57   O3    A    
O6    Zn3   S    
C48   C68   A    
C21   H8    S    
C8    H86   S    
C25   H14   S    
C52   O16   S    
C92   H33   S    
C109  H45   S    
C62   C67   A    
C10   H92   S    
C114  H55   S    
C12   C14   S    
C26   C30   A    
C116  H60   S    
C46   C107  A    
C18   H110  S    
C45   C106  A    
C16   H106  S    
C31   C106  A    
C14   H99   S    
C67   C75   A    
C115  H59   S    
O22   Zn2   S    
C58   C85   S    
C93   C97   A    
C12   H97   S    
C104  C108  A    
C26   O18   S    
C42   H47   S    
C56   C83   S    
C113  H53   S    
C113  C114  S    
C56   O2    A    
C3    C120  S    
C30   H38   S    
C3    H73   S    
C56   O6    A    
C50   H80   S    
C1    O1    A    
C117  H62   S    
C47   C91   A    
C66   C103  A    
C73   H2    S    
O2    Zn1   S    
C28   O20   S    
C38   C99   A    
C109  H44   S    
C70   C72   A    
C119  C120  S    
C117  H63   S    
C10   H93   S    
O25   Zn3   S    
C5    H78   S    
C46   C90   A    
C118  H64   S    
C44   O22   A    
C41   C85   A    
C30   C105  A    
C39   H1    S    
C36   C77   A    
C43   C87   A    
C1    O24   A    
C119  O13   S    
O28   Zn1   S    
C39   C83   A    
C20   H5    S    
C57   O7    A    
O23   Zn2   S    
C75   O13   S    
C117  C118  S    
C44   O26   A    
C74   O11   S    
C17   H107  S    
C115  H56   S    
C1    C45   S    
C5    C6    S    
C36   C84   A    
C116  C117  S    
C13   C88   A    
C63   C72   A    
C16   O19   S    
C97   H32   S    
C23   H12   S    
C102  C106  A    
C55   O23   A    
C114  C115  S    
C23   C25   S    
C15   H103  S    
C8    H85   S    
C25   H15   S    
C119  H67   S    
C20   H4    S    
C2    C80   A    
C4    H76   S    
C70   O9    S    
N1    Zn1   S    
C48   C76   A    
C18   H109  S    
C61   C65   A    
C19   O20   S    
C4    C5    S    
C99   C102  A    
C33   O12   A    
C66   C110  A    
C91   C95   A    
C95   H37   S    
C47   C108  A    
C22   H9    S    
N4    Zn4   S    
C68   C70   A    
C2    C77   A    
C14   C15   S    
C77   C104  A    
C103  C107  A    
C111  H48   S    
C54   O28   A    
C71   O10   S    
C51   C53   A    
C21   H6    S    
C87   C92   A    
C54   C84   S    
C27   O19   S    
C31   H39   S    
C80   H17   S    
C11   H95   S    
C32   H40   S    
C98   H29   S    
