data_mof_unit_56314.cif
_audit_creation_date              2013-03-05T15:55:43-0500
_audit_creation_method            fapswitch 2.2
_symmetry_space_group_name_H-M    P1
_symmetry_Int_Tables_number       1
_space_group_crystal_system       triclinic
_cell_length_a                    6.932113
_cell_length_b                    17.592235
_cell_length_c                    19.449707
_cell_angle_alpha                 108.511548
_cell_angle_beta                  89.631278
_cell_angle_gamma                 90.515127
_cell_volume                      2249.08749624

loop_
_atom_site_label
_atom_site_type_symbol
_atom_site_description
_atom_site_fract_x
_atom_site_fract_y
_atom_site_fract_z
_atom_type_partial_charge
O1    O     O_R   0.494330 0.415710 0.413720 -0.605046
O2    O     O_R   0.819360 0.430070 0.560210 -0.566188
O3    O     O_R   0.994320 0.584290 0.586280 -0.580610
C1    C     C_R   0.650852 0.417335 0.583773 1.019869
O4    O     O_R   0.823740 0.406290 0.412670 -0.605881
O5    O     O_R   0.998730 0.560340 0.437690 -0.603905
C2    C     C_R   0.654741 0.383105 0.384688 0.902738
O6    O     O_R   0.489920 0.439660 0.562310 -0.569947
O7    O     O_3   0.662330 0.550570 0.508380 -0.287158
V1    V     V_3+5 0.935370 0.490620 0.498440 1.203975
O8    O     O_R   0.328720 0.569930 0.439790 -0.603569
C3    C     C_R   0.160616 0.585165 0.418224 0.933601
O9    O     O_R   0.324340 0.593710 0.587330 -0.603057
C4    C     C_R   0.155217 0.616862 0.615325 0.997905
V2    V     V_3+5 0.435940 0.509380 0.501560 1.185016
O10   O     O_3   0.159110 0.449430 0.491620 -0.263573
C5    C     C_R   0.312344 0.723348 0.718949 -0.111562
H1    H     H_    0.453266 0.703928 0.696117 0.122453
C6    C     C_R   0.301076 0.787154 0.783900 -0.109847
H2    H     H_    0.433924 0.815046 0.808968 0.123537
C7    C     C_R   0.121220 0.814578 0.815909 -0.132485
C8    C     C_R   0.952968 0.776383 0.781098 -0.117952
H3    H     H_    0.812038 0.795758 0.803944 0.120816
C9    C     C_R   0.964234 0.712627 0.716127 -0.051874
C10   C     C_R   0.144074 0.685219 0.684102 -0.132730
C11   C     C_R   0.308046 0.634446 0.321726 -0.247845
C12   C     C_R   0.153061 0.634650 0.368977 -0.136797
C13   C     C_R   0.989897 0.681525 0.368243 -0.244076
C14   C     C_R   0.981774 0.728366 0.321701 0.147689
C15   C     C_R   0.136620 0.726889 0.273815 0.032150
C16   C     C_R   0.299756 0.679354 0.273549 0.146631
C17   C     C_R   0.821561 0.776778 0.322196 -0.203173
C18   C     C_R   0.813436 0.822492 0.275038 -0.203765
C19   C     C_R   0.965093 0.820503 0.226330 0.149377
C20   C     C_R   0.128227 0.772965 0.226061 0.032010
C21   C     C_R   0.283075 0.771493 0.178177 0.143833
C22   C     C_R   0.443277 0.723071 0.177675 -0.196215
C23   C     C_R   0.451402 0.677357 0.224834 -0.201984
C24   C     C_R   0.956818 0.865426 0.178167 -0.246459
C25   C     C_R   0.111816 0.865238 0.130928 -0.143485
C26   C     C_R   0.274969 0.818351 0.131649 -0.232426
H4    H     H_    0.433709 0.598097 0.321481 0.135831
H5    H     H_    0.870174 0.682381 0.404627 0.140825
H6    H     H_    0.701662 0.778906 0.358772 0.146404
H7    H     H_    0.687585 0.859020 0.276325 0.144017
H8    H     H_    0.831159 0.901778 0.178417 0.135084
H9    H     H_    0.394693 0.817502 0.095268 0.144250
H10   H     H_    0.563173 0.720941 0.141097 0.150194
H11   H     H_    0.577250 0.640827 0.223545 0.145413
C27   C     C_R   0.768578 0.191181 0.875888 -0.107972
C28   C     C_R   0.622185 0.134099 0.869112 -0.182317
C29   C     C_R   0.478746 0.125276 0.816441 -0.151723
C30   C     C_R   0.477236 0.174026 0.771109 -0.014134
C31   C     C_R   0.627173 0.231566 0.778337 0.053212
C32   C     C_R   0.771674 0.239862 0.831038 0.172100
C33   C     C_R   0.333223 0.165761 0.717659 0.332373
C34   C     C_R   0.342827 0.213757 0.672344 -0.292393
C35   C     C_R   0.490564 0.270427 0.679173 0.163176
C36   C     C_R   0.633977 0.280255 0.732543 0.020961
C37   C     C_R   0.783148 0.338560 0.740224 -0.167946
C38   C     C_R   0.921695 0.348093 0.796407 0.364117
C39   C     C_R   0.916658 0.297492 0.839223 -0.306176
C40   C     C_R   0.495912 0.316855 0.632613 -0.139573
C41   C     C_R   0.644092 0.372617 0.637114 -0.315843
C42   C     C_R   0.787979 0.384198 0.691187 0.338853
H12   H     H_    0.878983 0.198342 0.916773 0.122767
H13   H     H_    0.232068 0.207243 0.631713 0.171971
H14   H     H_    0.386639 0.307997 0.591074 0.151182
H15   H     H_    0.024708 0.305137 0.881017 0.166723
C43   C     C_R   0.811566 0.276306 0.281605 -0.139442
H16   H     H_    0.952249 0.295490 0.304855 0.120408
C44   C     C_R   0.800491 0.212524 0.216633 -0.136452
H17   H     H_    0.933167 0.184426 0.191962 0.123561
C45   C     C_R   0.621005 0.185370 0.184116 -0.122470
C46   C     C_R   0.452895 0.223782 0.218446 -0.139154
H18   H     H_    0.312221 0.204592 0.195191 0.120904
C47   C     C_R   0.463971 0.287570 0.283423 -0.136217
H19   H     H_    0.331306 0.315673 0.308100 0.122912
C48   C     C_R   0.643464 0.314717 0.315939 -0.118064
O11   O     O_R   0.774940 0.060470 0.937800 -0.581873
O12   O     O_R   0.440880 0.093730 0.087350 -0.600340
O13   O     O_R   0.266130 0.939630 0.062280 -0.598032
C49   C     C_R   0.609819 0.116970 0.115374 0.913307
O14   O     O_R   0.445480 0.069960 0.939820 -0.595142
O15   O     O_R   0.270770 0.915690 0.913690 -0.599081
C50   C     C_R   0.614483 0.084688 0.918034 0.950152
O16   O     O_R   0.770300 0.084410 0.086380 -0.602012
O17   O     O_3   0.602600 0.949510 0.991670 -0.275665
V3    V     V_3+5 0.329470 0.009370 0.001550 1.164510
O18   O     O_R   0.940760 0.906160 0.912560 -0.597172
C51   C     C_R   0.109960 0.883025 0.884626 0.945215
O19   O     O_R   0.936150 0.929930 0.060100 -0.597579
C52   C     C_R   0.104256 0.914745 0.081700 0.953488
V4    V     V_3+5 0.828930 0.990450 0.998310 1.167629
O20   O     O_3   0.105670 0.050490 0.008320 -0.273309
H20   H     H_    0.371839 0.078617 0.810509 0.176249
N1    N     N_R   0.177174 0.108870 0.707681 0.231868
O21   O     O_R   0.074616 0.105317 0.762800 -0.432872
O22   O     O_R   0.116370 0.070582 0.642612 -0.394234
N2    N     N_R   0.937646 0.442197 0.695370 0.252963
O23   O     O_R   0.895135 0.517878 0.712974 -0.381614
O24   O     O_R   0.109345 0.418564 0.670929 -0.385649
N3    N     N_R   0.062846 0.411189 0.814376 0.261934
O25   O     O_R   0.244016 0.393875 0.817433 -0.380110
O26   O     O_R   0.007289 0.484667 0.845211 -0.329039
H21   H     H_    0.831375 0.684741 0.691063 0.129054

loop_
_geom_bond_atom_site_label_1
_geom_bond_atom_site_label_2
_geom_bond_distance
_ccdc_geom_bond_type
C49   O16   1.296915 A    
C32   C39   1.394486 A    
C18   H7    1.083630 S    
C20   C21   1.411587 A    
C45   C49   1.489845 S    
C1    O6    1.300408 A    
N1    O21   1.300218 A    
O15   C51   1.297214 A    
C23   H11   1.083631 S    
C30   C31   1.420333 A    
C11   C12   1.408596 A    
C22   C23   1.400412 A    
O13   V3    1.999267 S    
C15   C20   1.415183 A    
C21   C22   1.403787 A    
C38   N3    1.431858 S    
O14   C50   1.295015 A    
C14   C17   1.403777 A    
O5    C3    1.297748 A    
C15   C16   1.411520 A    
V2    O10   2.161299 S    
O16   V4    2.009185 S    
C33   C34   1.401765 A    
C19   C20   1.411521 A    
O19   C52   1.299627 A    
O11   C50   1.297908 A    
N1    O22   1.301339 A    
C40   H14   1.084728 S    
O8    V2    1.992198 S    
C6    H2    1.082736 S    
O18   V4    2.003753 S    
C43   H16   1.082733 S    
O1    V2    2.003379 S    
O7    V1    2.152641 S    
C25   C52   1.486257 S    
O18   C51   1.302504 A    
O12   V3    2.001784 S    
C36   C37   1.424542 A    
O13   C52   1.297775 A    
O9    C4    1.302454 A    
C21   C26   1.406007 A    
C38   C39   1.398906 A    
C33   N1    1.438547 S    
C34   H13   1.084375 S    
C28   C50   1.479047 S    
O19   V4    1.992115 S    
O12   C49   1.301473 A    
C27   C28   1.398216 A    
C31   C36   1.418593 A    
C47   C48   1.408514 A    
C17   H6    1.083656 S    
O17   V4    1.708864 S    
C45   C46   1.406474 A    
C3    C12   1.486275 S    
C28   C29   1.404140 A    
C9    C10   1.408810 A    
C44   C45   1.408493 A    
C24   C25   1.408576 A    
O4    C2    1.301413 A    
O15   V3    2.002594 S    
C35   C36   1.411365 A    
C47   H19   1.082756 S    
C19   C24   1.406060 A    
C39   H15   1.084662 S    
C37   C38   1.427879 A    
V3    O20   1.704279 S    
O2    C1    1.295509 A    
C46   H18   1.082731 S    
C14   C15   1.411583 A    
C46   C47   1.400516 A    
N2    O24   1.300622 A    
C5    H1    1.082731 S    
C26   H9    1.084288 S    
N3    O26   1.301003 A    
C22   H10   1.083658 S    
C27   H12   1.084646 S    
O3    C4    1.297139 A    
C24   H8    1.084336 S    
C25   C26   1.408565 A    
C37   C42   1.428529 A    
O6    V2    1.993665 S    
O9    V2    2.003702 S    
C8    C9    1.400464 A    
C9    H21   1.082743 S    
O14   V3    2.002301 S    
O11   V4    1.994253 S    
O2    V1    2.002394 S    
C12   C13   1.408559 A    
C29   C30   1.411893 A    
C11   H4    1.084334 S    
C2    C48   1.489839 S    
C7    C51   1.490226 S    
C30   C33   1.418905 A    
C35   C40   1.399025 A    
C31   C32   1.411020 A    
C13   C14   1.405985 A    
C6    C7    1.408869 A    
C43   C48   1.406451 A    
O1    C2    1.296960 A    
C42   N2    1.433000 S    
C44   H17   1.082756 S    
O5    V1    1.999319 S    
O8    C3    1.299623 A    
C1    C41   1.488066 S    
C13   H5    1.084288 S    
C27   C32   1.403066 A    
C16   C23   1.403833 A    
C5    C10   1.406186 A    
C41   C42   1.419962 A    
O7    V2    1.710779 S    
O4    V1    2.001773 S    
O3    V1    2.002617 S    
V1    O10   1.704340 S    
C17   C18   1.400393 A    
C34   C35   1.399892 A    
N2    O23   1.301142 A    
C5    C6    1.400655 A    
C18   C19   1.403820 A    
C29   H20   1.079967 S    
C4    C10   1.490090 S    
V4    O20   2.161382 S    
C40   C41   1.397726 A    
C11   C16   1.406090 A    
O17   V3    2.152532 S    
N3    O25   1.301123 A    
C8    H3    1.082714 S    
C43   C44   1.400404 A    
C7    C8    1.406212 A    
