data_mof_unit_50693.cif
_audit_creation_date              2012-12-11T15:26:03-0500
_audit_creation_method            fapswitch 2.2
_symmetry_space_group_name_H-M    P1
_symmetry_Int_Tables_number       1
_space_group_crystal_system       triclinic
_cell_length_a                    24.400159
_cell_length_b                    17.081334
_cell_length_c                    15.652547
_cell_angle_alpha                 90.198696
_cell_angle_beta                  50.249685
_cell_angle_gamma                 90.013565
_cell_volume                      5015.68696632

loop_
_atom_site_label
_atom_site_type_symbol
_atom_type_description
_atom_site_fract_x
_atom_site_fract_y
_atom_site_fract_z
_atom_type_partial_charge
C1    C     C_R   0.354563 0.146270 0.745707 -0.118924
C2    C     C_2   0.294694 0.891196 0.997756 -0.403159
C3    C     C_3   0.256013 0.531651 0.832715 -1.032492
C4    C     C_3   0.651620 0.528365 0.689274 0.160001
C5    C     C_3   0.595839 0.507347 0.676477 -0.325104
C6    C     C_3   0.578544 0.420054 0.694483 -0.994773
C7    C     C_3   0.237085 0.171020 0.245874 0.151861
C8    C     C_3   0.299062 0.163668 0.121224 -0.224047
C9    C     C_3   0.279869 0.111070 0.065057 -1.047806
C10   C     C_3   0.355408 0.534927 0.298898 0.157045
C11   C     C_3   0.435417 0.523020 0.233619 -0.284486
C12   C     C_3   0.454456 0.436262 0.220846 -1.015694
C13   C     C_2   0.374690 0.270822 0.812714 -0.353336
C14   C     C_3   0.792065 0.168925 0.724068 0.167409
C15   C     C_3   0.759006 0.086808 0.760655 -0.325169
C16   C     C_3   0.794271 0.036479 0.793638 -0.975372
C17   C     C_3   0.177641 0.978232 0.039980 0.165266
C18   C     C_3   0.135859 0.008253 0.004585 -0.276891
C19   C     C_3   0.122684 0.096311 0.023841 -1.010643
C20   C     C_3   0.796862 0.202183 0.988103 0.180128
C21   C     C_3   0.873515 0.188127 0.941522 -0.233666
C22   C     C_3   0.922814 0.167816 0.817827 -1.089153
C23   C     C_3   0.863933 0.935950 0.909374 0.224518
C24   C     C_2   0.698045 0.840055 0.021917 -0.335919
C25   C     C_3   0.888845 0.903018 0.970756 -0.341133
C26   C     C_3   0.885977 0.964403 0.044421 -0.902664
C27   C     C_3   0.327810 0.326935 0.688155 0.151607
C28   C     C_3   0.285081 0.324279 0.647588 -0.216411
C29   C     C_3   0.329528 0.350816 0.527199 -1.054674
C30   C     C_3   0.683441 0.482951 0.041427 0.179440
C31   C     C_3   0.636161 0.507676 0.164139 -0.321242
C32   C     C_3   0.617372 0.594610 0.178521 -1.021475
C33   C     C_3   0.312888 0.720481 0.973497 0.204921
C34   C     C_3   0.332776 0.634521 0.961950 -0.273229
C35   C     C_2   0.140548 0.762634 0.159357 -0.324138
C36   C     C_3   0.395260 0.614592 0.840656 -1.062333
C37   C     C_3   0.346485 0.415612 0.975039 0.102217
C38   C     C_3   0.388162 0.404923 0.016683 -0.251165
C39   C     C_3   0.428599 0.478795 0.001423 -1.024269
C40   C     C_3   0.880841 0.828857 0.671315 0.191790
C41   C     C_3   0.885110 0.806966 0.572428 -0.235709
C42   C     C_3   0.958403 0.824958 0.461988 -1.045395
C43   C     C_2   0.797905 0.385559 0.995630 -0.374336
C44   C     C_2   0.847687 0.749410 0.871451 -0.443403
C45   C     C_2   0.203213 0.359702 0.012162 -0.319112
C46   C     C_2   0.706856 0.289755 0.106970 0.458221
C47   C     C_2   0.227260 0.867431 0.049880 0.396924
C48   C     C_2   0.316884 0.311259 0.843746 0.413186
C49   C     C_R   0.667754 0.890044 0.199734 -0.096397
C50   C     C_2   0.767481 0.860277 0.951777 0.484469
C51   C     C_2   0.207730 0.789065 0.102637 0.473307
C52   C     C_2   0.728738 0.367111 0.052184 0.430726
C53   C     C_2   0.816130 0.806626 0.857135 0.402308
C54   C     C_2   0.274050 0.349419 0.954211 0.462057
C55   C     C_R   0.615541 0.101472 0.591075 -0.141741
C56   C     C_R   0.412800 0.853545 0.409066 -0.135361
C57   C     C_R   0.384192 0.100196 0.409118 -0.131451
C58   C     C_R   0.588090 0.854337 0.590732 -0.146375
C59   C     C_R   0.115524 0.602067 0.590856 -0.136059
C60   C     C_R   0.648661 0.143111 0.247081 -0.079403
C61   C     C_R   0.913085 0.353553 0.408807 -0.131332
C62   C     C_R   0.884424 0.600588 0.408907 -0.130890
C63   C     C_R   0.088625 0.354869 0.590909 -0.145867
C64   C     C_R   0.689801 0.102546 0.407365 -0.161594
C65   C     C_R   0.338049 0.855199 0.594166 -0.145272
C66   C     C_R   0.309730 0.100894 0.592866 -0.183437
C67   C     C_R   0.664533 0.856911 0.405456 -0.138555
C68   C     C_R   0.189876 0.602340 0.406979 -0.159013
C69   C     C_R   0.837827 0.355479 0.594099 -0.147096
C70   C     C_R   0.809847 0.601605 0.592793 -0.179358
C71   C     C_R   0.329602 0.903307 0.806284 -0.133125
C72   C     C_R   0.164619 0.356994 0.405538 -0.146117
C73   C     C_R   0.558321 0.143126 0.244111 -0.156768
C74   C     C_R   0.418522 0.906330 0.809793 -0.175053
C75   C     C_R   0.446701 0.146721 0.744019 -0.171701
C76   C     C_R   0.577838 0.890611 0.197610 -0.163969
C77   C     C_R   0.058700 0.642819 0.243284 -0.160862
C78   C     C_R   0.919689 0.403948 0.808296 -0.160097
C79   C     C_R   0.937577 0.638112 0.766901 -0.173384
C80   C     C_R   0.080224 0.395059 0.194243 -0.182942
C81   C     C_R   0.391688 0.192023 0.766469 0.172338
C82   C     C_R   0.846489 0.638818 0.765159 -0.119988
C83   C     C_R   0.648874 0.869797 0.136507 0.191168
C84   C     C_R   0.617386 0.185595 0.213059 0.156416
C85   C     C_R   0.345469 0.897684 0.875883 0.154355
C86   C     C_R   0.876738 0.678820 0.802842 0.219017
C87   C     C_R   0.152205 0.376846 0.132239 0.179275
C88   C     C_R   0.118212 0.684927 0.211169 0.171569
C89   C     C_R   0.846980 0.393837 0.874453 0.172702
C90   C     C_R   0.685252 0.116744 0.498911 0.138348
C91   C     C_R   0.362592 0.808763 0.502929 0.128886
C92   C     C_R   0.313920 0.113444 0.501551 0.132424
C93   C     C_R   0.168730 0.394190 0.199292 -0.104085
C94   C     C_R   0.640380 0.810598 0.496212 0.136359
C95   C     C_R   0.185540 0.616761 0.498203 0.140927
C96   C     C_R   0.862529 0.309068 0.502754 0.122627
C97   C     C_R   0.814237 0.614376 0.501176 0.126315
C98   C     C_R   0.141013 0.311222 0.496503 0.134161
C99   C     C_R   0.185179 0.145680 0.598089 0.580895
C100  C     C_R   0.729854 0.700834 0.393238 0.570008
C101  C     C_R   0.814120 0.147390 0.402932 0.593935
C102  C     C_R   0.272822 0.700323 0.604425 0.586027
C103  C     C_R   0.685473 0.645486 0.596710 0.597433
C104  C     C_R   0.149412 0.642547 0.245397 -0.101627
C105  C     C_R   0.230752 0.201811 0.394159 0.559626
C106  C     C_R   0.314759 0.647938 0.401276 0.589804
C107  C     C_R   0.772121 0.201755 0.605078 0.587948
C108  C     C_R   0.643772 0.699395 0.594244 -0.385897
C109  C     C_R   0.274021 0.152423 0.398015 -0.369859
C110  C     C_R   0.358564 0.698336 0.403770 -0.380142
C111  C     C_R   0.724793 0.159634 0.602533 -0.382560
C112  C     C_R   0.144180 0.200372 0.595180 -0.384452
C113  C     C_R   0.774555 0.653694 0.397031 -0.388731
C114  C     C_R   0.857919 0.198532 0.404351 -0.377719
C115  C     C_R   0.829992 0.401714 0.806337 -0.156370
C116  C     C_R   0.225735 0.658295 0.601082 -0.390794
C117  C     C_R   0.669767 0.734476 0.493603 -0.081759
C118  C     C_R   0.255984 0.132940 0.499911 -0.110255
C119  C     C_R   0.333885 0.732413 0.504576 -0.099907
C120  C     C_R   0.742613 0.138886 0.500881 -0.119822
C121  C     C_R   0.170488 0.235403 0.494298 -0.086018
C122  C     C_R   0.756502 0.633959 0.498944 -0.107601
C123  C     C_R   0.833375 0.233148 0.504736 -0.110939
C124  C     C_R   0.243413 0.638300 0.499370 -0.109966
C125  C     C_3   0.151647 0.030281 0.694450 0.169185
C126  C     C_2   0.639937 0.263258 0.161189 -0.348988
C127  C     C_3   0.086040 0.007900 0.706542 -0.314224
C128  C     C_3   0.082531 0.919532 0.696043 -1.009096
C129  C     C_3   0.749330 0.660533 0.235035 0.171272
C130  C     C_3   0.824556 0.641609 0.127892 -0.280085
C131  C     C_3   0.823091 0.580884 0.057730 -1.021737
C132  C     C_3   0.848166 0.029841 0.312139 0.162848
C133  C     C_3   0.924443 0.011111 0.264208 -0.291938
C134  C     C_3   0.934423 0.923566 0.269542 -1.026746
C135  C     C_3   0.281449 0.661163 0.734539 0.174747
C136  C     C_3   0.238592 0.584468 0.774619 -0.308408
H1    H     H_    0.307863 0.161183 0.755808 0.160185
H2    H     H_    0.442387 0.837075 0.323264 0.102362
H3    H     H_    0.701097 0.091794 0.832491 0.216455
H4    H     H_    0.765566 0.056987 0.691417 0.193528
H5    H     H_    0.852700 0.033098 0.724564 0.246274
H6    H     H_    0.771829 0.976496 0.813119 0.291205
H7    H     H_    0.783717 0.061186 0.868496 0.273427
H8    H     H_    0.229764 0.009052 0.988758 0.139447
H9    H     H_    0.147548 0.991988 0.129559 0.106602
H10   H     H_    0.166313 0.995522 0.914842 0.191519
H11   H     H_    0.084000 0.977346 0.052241 0.213865
H12   H     H_    0.091248 0.110445 0.113374 0.262668
H13   H     H_    0.405845 0.093874 0.324001 0.089317
H14   H     H_    0.092301 0.116095 0.997253 0.283127
H15   H     H_    0.174140 0.128325 0.974685 0.277368
H16   H     H_    0.798429 0.235151 0.925211 0.098690
H17   H     H_    0.771024 0.144861 0.001308 0.117774
H18   H     H_    0.894289 0.241674 0.952627 0.209228
H19   H     H_    0.874159 0.139827 0.988191 0.196116
H20   H     H_    0.901404 0.118006 0.801688 0.266859
H21   H     H_    0.976192 0.151536 0.789452 0.275688
H22   H     H_    0.928690 0.219124 0.769122 0.281959
H23   H     H_    0.876129 0.999339 0.894725 0.147072
H24   H     H_    0.557208 0.837851 0.676785 0.104520
H25   H     H_    0.895734 0.911005 0.824357 0.014262
H26   H     H_    0.855060 0.852921 0.023752 0.198734
H27   H     H_    0.944458 0.881453 0.909404 0.181189
H28   H     H_    0.922395 0.013684 0.993466 0.250672
H29   H     H_    0.903643 0.937282 0.087541 0.250582
H30   H     H_    0.830737 0.986968 0.107185 0.265008
H31   H     H_    0.376803 0.290689 0.631650 0.126481
H32   H     H_    0.343287 0.388827 0.685706 0.097510
H33   H     H_    0.266284 0.263572 0.654511 0.215325
H34   H     H_    0.237568 0.362938 0.701041 0.195243
H35   H     H_    0.094201 0.596427 0.675831 0.087656
H36   H     H_    0.347731 0.412062 0.518680 0.265161
H37   H     H_    0.296730 0.348127 0.500868 0.280011
H38   H     H_    0.376556 0.311860 0.471967 0.275383
H39   H     H_    0.659263 0.505653 0.005702 0.136040
H40   H     H_    0.736937 0.510508 0.992842 0.112829
H41   H     H_    0.586141 0.473026 0.213608 0.215033
H42   H     H_    0.664573 0.495956 0.196753 0.184398
H43   H     H_    0.666474 0.630613 0.126444 0.262532
H44   H     H_    0.586618 0.611772 0.266917 0.268667
H45   H     H_    0.584292 0.606625 0.154140 0.268812
H46   H     H_    0.943315 0.336960 0.322802 0.104263
H47   H     H_    0.361633 0.754793 0.939281 0.127380
H48   H     H_    0.296790 0.731570 0.922064 0.084460
H49   H     H_    0.348076 0.622224 0.013787 0.213652
H50   H     H_    0.285922 0.598049 0.992138 0.185993
H51   H     H_    0.382325 0.629817 0.786441 0.268250
H52   H     H_    0.407291 0.551272 0.831396 0.266144
H53   H     H_    0.443618 0.647325 0.812389 0.272788
H54   H     H_    0.313370 0.469462 0.012449 0.127661
H55   H     H_    0.385326 0.421727 0.882944 0.088915
H56   H     H_    0.350991 0.389488 0.106375 0.206887
H57   H     H_    0.906092 0.594060 0.323805 0.088320
H58   H     H_    0.426639 0.355855 0.970192 0.192748
H59   H     H_    0.458704 0.501973 0.916347 0.284998
H60   H     H_    0.466990 0.465189 0.014917 0.277614
H61   H     H_    0.390885 0.524221 0.062182 0.270534
H62   H     H_    0.926428 0.800324 0.659373 0.108885
H63   H     H_    0.886294 0.893361 0.672578 0.095028
H64   H     H_    0.874729 0.743419 0.575425 0.218280
H65   H     H_    0.843672 0.839622 0.577583 0.198601
H66   H     H_    0.969243 0.888781 0.454653 0.270637
H67   H     H_    0.960110 0.806073 0.392381 0.278608
H68   H     H_    0.058078 0.338736 0.676998 0.107336
H69   H     H_    0.000586 0.792672 0.455175 0.276254
H70   H     H_    0.737270 0.099707 0.321407 0.151683
H71   H     H_    0.298558 0.841916 0.680926 0.163972
H72   H     H_    0.262295 0.097521 0.678776 0.149717
H73   H     H_    0.721105 0.891269 0.172349 0.137800
H74   H     H_    0.706175 0.845426 0.318878 0.163269
H75   H     H_    0.237160 0.598883 0.321005 0.149838
H76   H     H_    0.797948 0.342570 0.680895 0.163604
H77   H     H_    0.762293 0.598736 0.678710 0.151316
H78   H     H_    0.205585 0.345023 0.318879 0.165897
H79   H     H_    0.520433 0.160394 0.233429 0.110909
H80   H     H_    0.447406 0.915015 0.840087 0.105354
H81   H     H_    0.485844 0.164823 0.751586 0.113066
H82   H     H_    0.549102 0.892871 0.166411 0.104350
H83   H     H_    0.020783 0.660171 0.232701 0.110386
H84   H     H_    0.692344 0.159661 0.244202 0.160465
H85   H     H_    0.948887 0.411986 0.838168 0.099735
H86   H     H_    0.973221 0.652443 0.783345 0.110642
H87   H     H_    0.052482 0.400135 0.161569 0.104361
H88   H     H_    0.592856 0.715983 0.672006 0.167600
H89   H     H_    0.324710 0.136451 0.319744 0.161412
H90   H     H_    0.409609 0.714031 0.325901 0.166472
H91   H     H_    0.673359 0.146541 0.681107 0.166648
H92   H     H_    0.093817 0.217973 0.672965 0.171792
H93   H     H_    0.825966 0.639494 0.319345 0.156193
H94   H     H_    0.909185 0.213522 0.326357 0.167337
H95   H     H_    0.277660 0.909361 0.829650 0.151883
H96   H     H_    0.174158 0.645366 0.679432 0.163152
H97   H     H_    0.318997 0.876652 0.034525 0.151811
H98   H     H_    0.601181 0.298619 0.165603 0.160495
H99   H     H_    0.678802 0.793161 0.000054 0.131115
H100  H     H_    0.401602 0.286613 0.844769 0.152963
H101  H     H_    0.823630 0.367402 0.028942 0.155455
H102  H     H_    0.101064 0.798097 0.165809 0.153781
H103  H     H_    0.180577 0.351977 0.971408 0.157022
H104  H     H_    0.847517 0.751616 0.940679 0.124514
H105  H     H_    0.145698 0.004318 0.764960 0.128885
H106  H     H_    0.797425 0.652372 0.781050 0.137344
H107  H     H_    0.200772 0.003647 0.617668 0.099844
H108  H     H_    0.036948 0.027835 0.788869 0.208454
H109  H     H_    0.088264 0.036866 0.640942 0.194438
H110  H     H_    0.130843 0.898680 0.613543 0.274193
H111  H     H_    0.035054 0.904980 0.704121 0.257263
H112  H     H_    0.078566 0.888795 0.762231 0.270811
H113  H     H_    0.716306 0.679578 0.212900 0.134249
H114  H     H_    0.724011 0.606271 0.285912 0.083197
H115  H     H_    0.850209 0.695891 0.078625 0.198895
H116  H     H_    0.857442 0.618411 0.148244 0.186836
H117  H     H_    0.219866 0.401969 0.177276 0.147863
H118  H     H_    0.796312 0.526675 0.106388 0.268172
H119  H     H_    0.878421 0.565955 0.983226 0.270423
H120  H     H_    0.794466 0.604616 0.029979 0.269564
H121  H     H_    0.836821 0.998564 0.262891 0.131691
H122  H     H_    0.809362 0.006089 0.398215 0.089297
H123  H     H_    0.962178 0.030693 0.176361 0.217642
H124  H     H_    0.936717 0.043250 0.312030 0.196103
H125  H     H_    0.896528 0.902917 0.356845 0.278464
H126  H     H_    0.989585 0.912040 0.237041 0.273526
H127  H     H_    0.925363 0.890221 0.218539 0.271493
H128  H     H_    0.193524 0.658891 0.241568 0.163720
H129  H     H_    0.278031 0.685916 0.803333 0.142044
H130  H     H_    0.339090 0.649665 0.664474 0.076585
H131  H     H_    0.180596 0.597961 0.833333 0.213543
H132  H     H_    0.251095 0.551910 0.702415 0.188840
H133  H     H_    0.314314 0.520993 0.778785 0.264761
H134  H     H_    0.228693 0.474637 0.851411 0.272123
H135  H     H_    0.236702 0.558796 0.912119 0.275367
H136  H     H_    0.634990 0.502309 0.767640 0.145520
H137  H     H_    0.703997 0.501381 0.620778 0.097629
H138  H     H_    0.546453 0.541679 0.736952 0.213936
H139  H     H_    0.777419 0.407503 0.831701 0.149854
H140  H     H_    0.616429 0.522842 0.591628 0.186947
H141  H     H_    0.627187 0.385152 0.631730 0.274262
H142  H     H_    0.537616 0.407112 0.685983 0.263114
H143  H     H_    0.557304 0.402520 0.778964 0.274566
H144  H     H_    0.189037 0.192794 0.259576 0.128160
H145  H     H_    0.225037 0.111283 0.283069 0.081910
H146  H     H_    0.313753 0.222435 0.082410 0.247996
H147  H     H_    0.346075 0.138690 0.107940 0.182631
H148  H     H_    0.263937 0.052251 0.104013 0.261402
H149  H     H_    0.326735 0.104220 0.975745 0.282965
H150  H     H_    0.594422 0.095141 0.675883 0.090640
H151  H     H_    0.235429 0.137318 0.072201 0.275619
H152  H     H_    0.339490 0.502973 0.255914 0.132149
H153  H     H_    0.324598 0.507705 0.382911 0.090071
H154  H     H_    0.465470 0.549472 0.149866 0.216310
H155  H     H_    0.451689 0.552969 0.277419 0.196973
H156  H     H_    0.430836 0.410702 0.302909 0.277379
H157  H     H_    0.513238 0.429314 0.165254 0.278894
H158  H     H_    0.434519 0.403695 0.184071 0.276128
H159  H     H_    0.789509 0.195398 0.791302 0.133686
H160  H     H_    0.849754 0.165494 0.649453 0.089212
N1    N     N_R   0.388930 0.078160 0.705470 -0.054214
N2    N     N_R   0.419500 0.922160 0.443350 -0.040913
N3    N     N_R   0.419500 0.077840 0.443350 -0.039961
N4    N     N_R   0.580500 0.922160 0.556650 -0.040249
N5    N     N_R   0.080500 0.577840 0.556650 -0.038186
N6    N     N_R   0.919500 0.422160 0.443350 -0.040087
N7    N     N_R   0.919500 0.577840 0.443350 -0.037666
N8    N     N_R   0.080500 0.422160 0.556650 -0.039304
N9    N     N_R   0.626210 0.077590 0.443410 -0.051835
N10   N     N_R   0.373790 0.922410 0.556590 -0.052404
N11   N     N_R   0.373790 0.077590 0.556590 -0.046637
N12   N     N_R   0.611070 0.921840 0.294530 -0.054292
N13   N     N_R   0.626210 0.922410 0.443410 -0.054392
N14   N     N_R   0.126210 0.577590 0.443410 -0.051171
N15   N     N_R   0.873790 0.422410 0.556590 -0.050528
N16   N     N_R   0.873790 0.577590 0.556590 -0.048140
N17   N     N_R   0.126210 0.422410 0.443410 -0.052725
N18   N     N_R   0.554800 0.077270 0.294580 -0.040433
N19   N     N_R   0.445200 0.922730 0.705420 -0.036212
N20   N     N_R   0.445200 0.077270 0.705420 -0.038610
N21   N     N_R   0.554800 0.922730 0.294580 -0.041756
N22   N     N_R   0.054800 0.577270 0.294580 -0.039518
N23   N     N_R   0.611070 0.078160 0.294530 -0.055387
N24   N     N_R   0.945200 0.422730 0.705420 -0.038051
N25   N     N_R   0.945200 0.577270 0.705420 -0.039439
N26   N     N_R   0.054800 0.422730 0.294580 -0.037896
N27   N     N_R   0.388930 0.921840 0.705470 -0.052027
N28   N     N_R   0.888930 0.578160 0.705470 -0.053913
N29   N     N_R   0.111070 0.421840 0.294530 -0.058528
N30   N     N_R   0.111070 0.578160 0.294530 -0.060229
N31   N     N_R   0.888930 0.421840 0.705470 -0.050259
N32   N     N_R   0.580500 0.077840 0.556650 -0.038263
Ni1   Ni    Ni4+2 0.382710 0.000000 0.629850 0.197013
Ni2   Ni    Ni4+2 0.617290 0.000000 0.370150 0.209943
Ni3   Ni    Ni4+2 0.882710 0.500000 0.629850 0.197853
Ni4   Ni    Ni4+2 0.117290 0.500000 0.370150 0.193426
Ni5   Ni    Ni4+2 0.513020 0.000000 0.629850 0.207669
Ni6   Ni    Ni4+2 0.486980 0.000000 0.370150 0.212450
Ni7   Ni    Ni4+2 0.013020 0.500000 0.629850 0.205593
Ni8   Ni    Ni4+2 0.986980 0.500000 0.370150 0.209517
O1    O     O_3   0.156985 0.112602 0.699399 -0.678838
O2    O     O_3   0.758733 0.241870 0.091444 -0.690066
O3    O     O_3   0.789205 0.927483 0.974698 -0.661466
O4    O     O_3   0.284864 0.296967 0.797217 -0.687916
O5    O     O_3   0.687300 0.400412 0.029235 -0.689315
O6    O     O_3   0.259480 0.740530 0.087191 -0.690836
O7    O     O_3   0.301850 0.350059 0.008439 -0.693457
O8    O     O_3   0.814056 0.804886 0.770581 -0.664957
O9    O     O_3   0.752042 0.723899 0.290874 -0.694185
O10   O     O_3   0.840767 0.111206 0.304049 -0.676198
O11   O     O_3   0.252715 0.717932 0.707132 -0.684372
O12   O     O_3   0.656904 0.610419 0.696950 -0.676886
O13   O     O_3   0.255573 0.226261 0.291099 -0.689048
O14   O     O_3   0.340599 0.615467 0.300770 -0.679539
O15   O     O_3   0.753046 0.218199 0.707416 -0.681561
O16   O     O_3   0.187003 0.896429 0.022356 -0.679981

loop_
_geom_bond_atom_site_label_1
_geom_bond_atom_site_label_2
_ccdc_geom_bond_type
C95   C124  S    
C4    H136  S    
C98   C121  S    
C112  H92   S    
C82   N28   A    
N13   Ni2   S    
C30   O5    S    
C43   C89   S    
C3    H134  S    
C136  H131  S    
C62   N7    A    
C67   H74   S    
C45   C87   S    
C63   C98   A    
C5    C6    S    
C108  H88   S    
C94   C117  S    
C131  H119  S    
C72   N17   A    
N26   N29   A    
C19   H14   S    
C82   H106  S    
C34   H50   S    
C44   C53   D    
C113  C122  A    
C77   C88   A    
N9    N32   A    
C67   C94   A    
N27   Ni1   S    
C107  C123  A    
C103  O12   S    
C21   C22   S    
C102  O11   S    
C41   H64   S    
C59   H35   S    
C76   C83   A    
C30   H40   S    
C109  C118  A    
C15   H3    S    
C78   C89   A    
C84   C126  S    
C129  H113  S    
C50   C53   S    
N8    N17   A    
C8    H147  S    
C132  H122  S    
C67   N13   A    
C39   H59   S    
C101  O10   S    
C55   H150  S    
N3    Ni6   S    
N32   Ni5   S    
C2    H97   S    
N5    Ni7   S    
C23   O3    S    
C13   H100  S    
N14   Ni4   S    
C28   H34   S    
C52   O5    S    
C22   H21   S    
C35   C51   D    
C6    H142  S    
C79   H86   S    
N22   Ni8   S    
C12   H157  S    
C65   C91   A    
C28   C29   S    
C14   H159  S    
C75   C81   A    
C4    C5    S    
C58   N4    A    
C47   O16   S    
C40   H63   S    
C2    C47   D    
C71   N27   A    
C19   H12   S    
C9    H149  S    
C130  C131  S    
C128  H110  S    
C80   H87   S    
N31   Ni3   S    
N3    N11   A    
C77   N22   A    
N18   Ni6   S    
C20   C21   S    
C106  C124  A    
C125  C127  S    
C71   H95   S    
C32   H44   S    
C100  C117  A    
C104  H128  S    
C102  C119  A    
C33   O6    S    
C89   C115  A    
C134  H127  S    
C57   C92   A    
C79   N25   A    
C49   N12   A    
N19   Ni5   S    
C61   C96   A    
C7    C8    S    
C130  H115  S    
C61   H46   S    
C17   H8    S    
C105  O13   S    
C4    H137  S    
N17   Ni4   S    
C55   C90   A    
C107  O15   S    
C38   C39   S    
C43   C52   D    
C75   H81   S    
C3    H135  S    
N22   N30   A    
C42   H69   S    
C3    C136  S    
C92   C118  S    
C43   H101  S    
C133  H124  S    
C23   H23   S    
N6    N15   A    
C19   H15   S    
C7    H145  S    
C37   H54   S    
C63   N8    A    
C116  H96   S    
C44   H104  S    
C88   C104  A    
C53   O8    S    
C24   C50   D    
N20   Ni5   S    
C20   H17   S    
C9    H151  S    
C31   H42   S    
C10   H152  S    
C32   H45   S    
C18   H11   S    
C110  H90   S    
N10   Ni1   S    
C77   H83   S    
C66   C92   A    
C76   N21   A    
C25   C26   S    
C4    O12   S    
C90   C120  S    
C45   H103  S    
C62   C97   A    
C8    H146  S    
C31   C32   S    
N21   Ni6   S    
N25   N28   A    
C33   H48   S    
C17   C18   S    
C21   H19   S    
C114  C123  A    
N5    N14   A    
N2    Ni6   S    
C134  H125  S    
C132  O10   S    
C10   C11   S    
N30   Ni4   S    
C54   O7    S    
N24   Ni7   S    
C91   C119  S    
C42   H66   S    
C10   O14   S    
C1    H1    S    
C129  C130  S    
N18   N23   A    
C105  C109  A    
C96   C123  S    
C101  C120  A    
C107  C111  A    
C108  C117  A    
N11   Ni1   S    
C57   N3    A    
C110  C119  A    
C113  H93   S    
C65   H71   S    
N23   Ni2   S    
C12   H156  S    
C55   N32   A    
C3    H133  S    
C136  H132  S    
C73   N18   A    
C112  C121  A    
C103  C122  A    
C40   H62   S    
C25   H27   S    
C87   C93   A    
C26   H28   S    
C100  O9    S    
C34   C36   S    
C74   C85   A    
C126  H98   S    
C65   N10   A    
C14   C15   S    
C48   O4    S    
C59   N5    A    
C72   H78   S    
C26   H29   S    
N25   Ni7   S    
C41   C42   S    
C64   C90   A    
C29   H38   S    
C135  C136  S    
C17   O16   S    
N28   Ni3   S    
C1    N1    A    
N4    Ni5   S    
C24   C83   S    
N12   N21   A    
C60   H84   S    
C30   C31   S    
C93   H117  S    
C1    C81   A    
C13   C81   S    
C2    C85   S    
C18   C19   S    
N4    N13   A    
C37   O7    S    
C56   C91   A    
C76   H82   S    
C135  H130  S    
C70   C97   A    
C27   H32   S    
N15   Ni3   S    
C11   H155  S    
C39   H61   S    
N16   Ni3   S    
C101  C114  A    
C128  H111  S    
C68   N14   A    
N7    Ni8   S    
C69   N15   A    
C6    H143  S    
C70   N16   A    
C12   H158  S    
C127  H108  S    
C14   H160  S    
C68   C95   A    
C16   H7    S    
C74   N19   A    
C131  H120  S    
C47   C51   S    
C22   H22   S    
C82   C86   A    
C64   H70   S    
C61   N6    A    
C38   H58   S    
C9    H148  S    
C34   H49   S    
C17   H9    S    
C66   H72   S    
C66   N11   A    
C69   H76   S    
C106  O14   S    
C64   N9    A    
C27   O4    S    
C133  C134  S    
C41   H65   S    
C7    H144  S    
C30   H39   S    
C15   H4    S    
C129  H114  S    
C116  C124  A    
C70   H77   S    
N1    N20   A    
C132  H121  S    
C130  H116  S    
N26   Ni8   S    
C39   H60   S    
C36   H51   S    
C135  O11   S    
C49   C83   A    
C58   H24   S    
N6    Ni8   S    
C16   H5    S    
C7    O13   S    
N1    Ni1   S    
C20   H16   S    
C28   H33   S    
C133  H123  S    
C49   H73   S    
C73   H79   S    
C5    H138  S    
C62   H57   S    
C36   H52   S    
C6    H141  S    
C79   C86   A    
N7    N16   A    
C80   N26   A    
C69   C96   A    
C131  H118  S    
C72   C98   A    
C48   C54   S    
C37   C38   S    
C31   H41   S    
N8    Ni7   S    
C80   C87   A    
N12   Ni2   S    
C15   C16   S    
C46   C52   S    
C14   O15   S    
C78   N24   A    
N29   Ni4   S    
N24   N31   A    
N19   N27   A    
C71   C85   A    
C115  N31   A    
C8    C9    S    
C33   H47   S    
C21   H18   S    
C32   H43   S    
C125  H105  S    
C103  C108  A    
C127  H109  S    
C73   C84   A    
C75   N20   A    
C40   O8    S    
C134  H126  S    
C42   H67   S    
C35   H102  S    
C59   C95   A    
C44   C86   S    
C10   H153  S    
C11   H154  S    
C63   H68   S    
C36   H53   S    
C128  H112  S    
C99   O1    S    
C109  H89   S    
C132  C133  S    
C56   N2    A    
C57   H13   S    
C111  C120  A    
C16   H6    S    
C97   C122  S    
C20   O2    S    
C56   H2    S    
C35   C88   S    
C25   H26   S    
C33   C34   S    
C105  C121  A    
C5    H140  S    
N2    N10   A    
C40   C41   S    
C37   H55   S    
C45   C54   D    
C38   H56   S    
C60   N23   A    
C22   H20   S    
C106  C110  A    
C50   O3    S    
C125  O1    S    
C26   H30   S    
C74   H80   S    
C46   O2    S    
C46   C126  D    
C100  C113  A    
C29   H37   S    
C18   H10   S    
C114  H94   S    
C13   C48   D    
C93   N29   A    
C11   C12   S    
C111  H91   S    
C58   C94   A    
C24   H99   S    
C99   C118  A    
C60   C84   A    
C99   C112  A    
C51   O6    S    
C125  H107  S    
C23   C25   S    
C29   H36   S    
C102  C116  A    
C78   H85   S    
C115  H139  S    
C27   C28   S    
C135  H129  S    
N9    Ni2   S    
C129  O9    S    
C68   H75   S    
C104  N30   A    
C127  C128  S    
C27   H31   S    
C23   H25   S    
