data_mof_unit_9475.cif
_audit_creation_date              2012-12-11T15:08:33-0500
_audit_creation_method            fapswitch 2.2
_symmetry_space_group_name_H-M    P1
_symmetry_Int_Tables_number       1
_space_group_crystal_system       triclinic
_cell_length_a                    26.875867
_cell_length_b                    7.176464
_cell_length_c                    11.817232
_cell_angle_alpha                 89.998762
_cell_angle_beta                  102.138726
_cell_angle_gamma                 90.00047
_cell_volume                      2228.27254919

loop_
_atom_site_label
_atom_site_type_symbol
_atom_type_description
_atom_site_fract_x
_atom_site_fract_y
_atom_site_fract_z
_atom_type_partial_charge
O1    O     O_R   0.437360 0.505910 0.042120 -0.545461
O2    O     O_R   0.562640 0.005910 0.957880 -0.545458
O3    O     O_R   0.542480 0.176660 0.157100 -0.540374
O4    O     O_R   0.457520 0.676660 0.842900 -0.540372
C1    C     C_R   0.558206 0.344175 0.196312 0.724728
C2    C     C_R   0.441794 0.844178 0.803689 0.724723
O5    O     O_R   0.436520 0.176250 0.054800 -0.538143
O6    O     O_R   0.563480 0.676250 0.945200 -0.538145
O7    O     O_R   0.455920 0.005040 0.854840 -0.538861
O8    O     O_R   0.544080 0.505040 0.145160 -0.538857
C3    C     C_R   0.417819 0.344372 0.067741 0.746059
C4    C     C_R   0.582181 0.844373 0.932259 0.746060
O9    O     O_3   0.506490 0.338900 0.934520 -0.384847
O10   O     O_3   0.493510 0.838900 0.065480 -0.384839
V1    V     V_3+5 0.498800 0.064400 0.012150 1.386016
V2    V     V_3+5 0.501200 0.564400 0.987850 1.386029
C5    C     C_R   0.687447 0.782523 0.761824 -0.262631
C6    C     C_R   0.312547 0.282608 0.238177 -0.262676
H1    H     H_    0.781720 0.719017 0.736930 0.139498
H2    H     H_    0.218275 0.219111 0.263077 0.139504
H3    H     H_    0.693271 0.740991 0.678202 0.119490
H4    H     H_    0.306718 0.241139 0.321804 0.119462
C7    C     C_R   0.632865 0.847500 0.897759 -0.140740
C8    C     C_R   0.367133 0.347498 0.102237 -0.140724
C9    C     C_R   0.863365 0.912377 0.220266 0.333407
C10   C     C_R   0.136633 0.412378 0.779728 0.333396
C11   C     C_R   0.813689 0.945692 0.244878 0.329221
C12   C     C_R   0.186308 0.445692 0.755113 0.329229
C13   C     C_R   0.771094 0.943961 0.154519 -0.321581
C14   C     C_R   0.228905 0.443939 0.845469 -0.321581
C15   C     C_R   0.772708 0.875197 0.045681 0.044866
C16   C     C_R   0.227290 0.375180 0.954308 0.044862
C17   C     C_R   0.821228 0.840291 0.018877 -0.005326
C18   C     C_R   0.178770 0.340295 0.981117 -0.005317
C19   C     C_R   0.726872 0.848320 0.961119 0.115909
C20   C     C_R   0.273126 0.348311 0.038872 0.115912
C21   C     C_R   0.730934 0.797647 0.848686 0.083939
C22   C     C_R   0.269062 0.297690 0.151312 0.083962
C23   C     C_R   0.778577 0.763110 0.822605 -0.195075
C24   C     C_R   0.221419 0.263170 0.177397 -0.195093
C25   C     C_R   0.822966 0.783820 0.905976 -0.169056
C26   C     C_R   0.177031 0.283855 0.094024 -0.169051
C27   C     C_R   0.677150 0.862804 0.985365 -0.303589
C28   C     C_R   0.322848 0.362768 0.014627 -0.303597
C29   C     C_R   0.638178 0.820307 0.781861 0.435458
C30   C     C_R   0.361818 0.320360 0.218139 0.435456
C31   C     C_R   0.866858 0.867973 0.103872 -0.227723
C32   C     C_R   0.133140 0.367972 0.896122 -0.227717
H5    H     H_    0.736279 0.998562 0.172635 0.135848
H6    H     H_    0.263722 0.498532 0.827354 0.135843
C33   C     C_R   0.090987 0.865539 0.314492 -0.091245
C34   C     C_R   0.909013 0.365538 0.685508 -0.091257
C35   C     C_R   0.405829 0.853293 0.689693 -0.082125
C36   C     C_R   0.594173 0.353280 0.310307 -0.082119
C37   C     C_R   0.105194 0.946935 0.519556 0.379175
C38   C     C_R   0.894802 0.446937 0.480444 0.379168
C39   C     C_R   0.073093 0.932968 0.409582 -0.277788
C40   C     C_R   0.926904 0.432989 0.590418 -0.277779
C41   C     C_R   0.142841 0.823055 0.328106 -0.249376
C42   C     C_R   0.857161 0.323009 0.671893 -0.249368
C43   C     C_R   0.177573 0.855134 0.435117 0.035775
C44   C     C_R   0.822428 0.355072 0.564882 0.035794
C45   C     C_R   0.157721 0.911088 0.532002 0.070100
C46   C     C_R   0.842277 0.411053 0.467998 0.070083
C47   C     C_R   0.231668 0.846214 0.447423 0.082919
C48   C     C_R   0.768334 0.346118 0.552575 0.082917
C49   C     C_R   0.264401 0.860300 0.559753 0.092449
C50   C     C_R   0.735600 0.360217 0.440246 0.092462
C51   C     C_R   0.242625 0.903753 0.654310 -0.190799
C52   C     C_R   0.757375 0.403690 0.345690 -0.190776
C53   C     C_R   0.191081 0.941028 0.638681 -0.138994
C54   C     C_R   0.808918 0.440984 0.361319 -0.138999
C55   C     C_R   0.254157 0.838771 0.350317 -0.237801
C56   C     C_R   0.745845 0.338624 0.649682 -0.237816
C57   C     C_R   0.306237 0.857836 0.362316 -0.198715
C58   C     C_R   0.693765 0.357682 0.637686 -0.198696
C59   C     C_R   0.338564 0.868100 0.471787 0.039632
C60   C     C_R   0.661440 0.368002 0.528214 0.039633
C61   C     C_R   0.318381 0.851289 0.572343 0.007386
C62   C     C_R   0.681620 0.351208 0.427656 0.007377
C63   C     C_R   0.390656 0.901282 0.480840 0.423615
C64   C     C_R   0.609352 0.401228 0.519165 0.423598
C65   C     C_R   0.423938 0.894810 0.590126 -0.284228
C66   C     C_R   0.576069 0.394811 0.409877 -0.284190
C67   C     C_R   0.352998 0.835463 0.681136 -0.251513
C68   C     C_R   0.647002 0.335409 0.318863 -0.251516
H7    H     H_    0.178226 0.000973 0.710929 0.152457
H8    H     H_    0.821771 0.500938 0.289070 0.152463
H9    H     H_    0.463766 0.925721 0.598425 0.121764
H10   H     H_    0.536245 0.425767 0.401578 0.121737
H11   H     H_    0.321015 0.866407 0.284129 0.174211
H12   H     H_    0.678987 0.366211 0.715875 0.174198
H13   H     H_    0.034388 0.981718 0.396494 0.152690
H14   H     H_    0.965606 0.481763 0.603504 0.152687
H15   H     H_    0.155281 0.771788 0.252817 0.120898
H16   H     H_    0.844724 0.271721 0.747181 0.120900
H17   H     H_    0.265525 0.930362 0.739391 0.115050
H18   H     H_    0.734474 0.430301 0.260610 0.115045
H19   H     H_    0.232199 0.834895 0.262823 0.140806
H20   H     H_    0.767802 0.334715 0.737176 0.140804
O11   O     O_R   0.955980 0.206520 0.854760 -0.537556
O12   O     O_R   0.044020 0.706520 0.145240 -0.537553
O13   O     O_R   0.063490 0.536770 0.945200 -0.544841
O14   O     O_R   0.936510 0.036770 0.054800 -0.544841
C69   C     C_R   0.082217 0.369023 0.931819 0.774259
C70   C     C_R   0.917782 0.869022 0.068177 0.774261
O15   O     O_R   0.957530 0.536190 0.842880 -0.541325
O16   O     O_R   0.042470 0.036190 0.157120 -0.541323
O17   O     O_R   0.937350 0.707210 0.042130 -0.542592
O18   O     O_R   0.062650 0.207210 0.957870 -0.542595
C71   C     C_R   0.942877 0.368440 0.802378 0.729762
C72   C     C_R   0.057123 0.868439 0.197622 0.729765
O19   O     O_3   0.993540 0.373870 0.065440 -0.388865
O20   O     O_3   0.006460 0.873870 0.934560 -0.388865
V3    V     V_3+5 0.001200 0.648440 0.987860 1.385617
V4    V     V_3+5 0.998800 0.148440 0.012140 1.385616
O21   O     O_3   0.595052 0.825493 0.692078 -0.546777
C73   C     C_3   0.606836 0.888956 0.586533 0.162055
H21   H     H_    0.630808 0.789272 0.550443 0.140887
H22   H     H_    0.625635 0.027228 0.597765 0.102073
C74   C     C_3   0.559367 0.901206 0.493236 -0.760698
H23   H     H_    0.530213 0.983783 0.523192 0.205186
H24   H     H_    0.568199 0.967151 0.414718 0.185384
H25   H     H_    0.544913 0.758566 0.471054 0.224580
O22   O     O_3   0.404943 0.325572 0.307922 -0.546768
C75   C     C_3   0.393158 0.389009 0.413470 0.162085
H26   H     H_    0.369190 0.289304 0.449558 0.140892
H27   H     H_    0.374354 0.527269 0.402244 0.102058
C76   C     C_3   0.440625 0.401261 0.506769 -0.760692
H28   H     H_    0.469788 0.483776 0.476795 0.205172
H29   H     H_    0.431794 0.467269 0.585273 0.185383
H30   H     H_    0.455066 0.258610 0.528987 0.224591
H31   H     H_    0.339741 0.807998 0.759749 0.111425
H32   H     H_    0.660256 0.307938 0.240250 0.111422
O23   O     O_3   0.087490 0.035121 0.607622 -0.570060
C77   C     C_3   0.065734 0.908977 0.674786 0.087311
H33   H     H_    0.053090 0.775396 0.630813 0.130105
H34   H     H_    0.031452 0.976761 0.694521 0.160328
C78   C     C_3   0.101860 0.874812 0.790278 -0.670783
H35   H     H_    0.118031 0.007710 0.828843 0.213386
H36   H     H_    0.081195 0.810344 0.850777 0.227859
H37   H     H_    0.133041 0.780726 0.779719 0.199546
O24   O     O_3   0.912502 0.535127 0.392374 -0.570051
C79   C     C_3   0.934258 0.408977 0.325211 0.087286
H38   H     H_    0.946894 0.275391 0.369176 0.130101
H39   H     H_    0.968543 0.476743 0.305486 0.160328
C80   C     C_3   0.898134 0.374828 0.209716 -0.670774
H40   H     H_    0.881958 0.507730 0.171151 0.213393
H41   H     H_    0.918803 0.310362 0.149218 0.227854
H42   H     H_    0.866955 0.280735 0.220275 0.199535
O25   O     O_3   0.405810 0.977871 0.386002 -0.547040
C81   C     C_3   0.443805 0.872209 0.350991 0.068924
H43   H     H_    0.461382 0.766329 0.414592 0.101205
H44   H     H_    0.473800 0.969381 0.335819 0.171912
C82   C     C_3   0.422209 0.776407 0.237438 -0.631575
H45   H     H_    0.411503 0.880417 0.167106 0.226663
H46   H     H_    0.451835 0.681481 0.218696 0.208658
H47   H     H_    0.388106 0.694209 0.243205 0.189442
O26   O     O_3   0.594208 0.477786 0.614023 -0.547041
C83   C     C_3   0.556177 0.372202 0.648969 0.068905
H48   H     H_    0.538593 0.266370 0.585339 0.101172
H49   H     H_    0.526192 0.469448 0.664113 0.171905
C84   C     C_3   0.577735 0.276313 0.762528 -0.631370
H50   H     H_    0.588419 0.380276 0.832896 0.226673
H51   H     H_    0.548097 0.181343 0.781190 0.208586
H52   H     H_    0.611850 0.194143 0.756807 0.189439
H53   H     H_    0.671475 0.878616 0.072574 0.119702
H54   H     H_    0.328523 0.378543 0.927416 0.119705
O27   O     O_3   0.909535 0.929195 0.301632 -0.566550
C85   C     C_3   0.904249 0.937199 0.418320 0.213309
H55   H     H_    0.878725 0.826284 0.437877 0.192071
H56   H     H_    0.890349 0.075886 0.438170 0.153513
C86   C     C_3   0.954740 0.908538 0.500493 -0.790585
H57   H     H_    0.976902 0.038783 0.507985 0.194349
H58   H     H_    0.948380 0.871576 0.587646 0.186710
H59   H     H_    0.976119 0.795509 0.468960 0.250909
O28   O     O_3   0.090462 0.429213 0.698365 -0.566555
C87   C     C_3   0.095746 0.437205 0.581674 0.213304
H60   H     H_    0.121272 0.326290 0.562122 0.192058
H61   H     H_    0.109645 0.575896 0.561816 0.153525
C88   C     C_3   0.045255 0.408533 0.499508 -0.790573
H62   H     H_    0.023095 0.538782 0.491997 0.194337
H63   H     H_    0.051613 0.371537 0.412360 0.186715
H64   H     H_    0.023875 0.295524 0.531058 0.250917
O29   O     O_3   0.806833 0.999288 0.354080 -0.573055
C89   C     C_3   0.765524 0.904412 0.386521 0.087814
H65   H     H_    0.754835 0.773055 0.337842 0.124018
H66   H     H_    0.731491 0.995819 0.370701 0.141759
C90   C     C_3   0.778744 0.854797 0.514278 -0.741470
H67   H     H_    0.787543 0.980948 0.568396 0.235012
H68   H     H_    0.745835 0.782410 0.537551 0.177815
H69   H     H_    0.812182 0.761113 0.533007 0.211665
O30   O     O_3   0.193162 0.499320 0.645912 -0.573053
C91   C     C_3   0.234473 0.404481 0.613461 0.087809
H70   H     H_    0.245170 0.273118 0.662134 0.124017
H71   H     H_    0.268503 0.495909 0.629277 0.141767
C92   C     C_3   0.221251 0.354880 0.485704 -0.741475
H72   H     H_    0.212436 0.481031 0.431589 0.235019
H73   H     H_    0.254166 0.282548 0.462423 0.177810
H74   H     H_    0.187823 0.261149 0.466985 0.211662
H75   H     H_    0.858542 0.755626 0.880291 0.131136
H76   H     H_    0.141455 0.255676 0.119712 0.131134

loop_
_geom_bond_atom_site_label_1
_geom_bond_atom_site_label_2
_ccdc_geom_bond_type
C50   C62   A    
C48   C50   A    
C69   O18   A    
C75   H26   S    
C7    C29   A    
C82   H46   S    
O27   C85   S    
C30   O22   S    
O12   C72   A    
C84   H50   S    
O1    C3    A    
O2    C4    A    
C2    O7    A    
O14   C70   A    
O20   V3    S    
C6    C22   A    
C47   C55   A    
O23   C77   S    
C23   C25   A    
C13   H5    S    
C86   H57   S    
C92   H74   S    
O5    C3    A    
C84   H51   S    
C4    C7    S    
C33   C72   S    
C56   C58   A    
C16   C20   A    
C80   H41   S    
C58   C60   A    
C77   C78   S    
C11   O29   S    
H2    C24   S    
C78   H37   S    
C60   C62   A    
C10   O28   S    
C91   C92   S    
C11   C13   A    
C85   H55   S    
C29   O21   S    
O24   C79   S    
C48   C56   A    
C3    C8    S    
C7    C27   A    
C42   C44   A    
C28   H54   S    
C51   C53   A    
C73   H21   S    
C74   H25   S    
C62   C68   A    
O12   V3    S    
C34   C42   A    
C63   C65   A    
O14   V4    S    
C38   O24   S    
C68   H32   S    
C80   H40   S    
C18   C26   A    
C47   C49   A    
C37   C45   A    
C44   C46   A    
O25   C81   S    
C38   C46   A    
C33   C39   A    
C19   C27   A    
C9    C31   A    
C57   H11   S    
C76   H30   S    
C24   C26   A    
C91   H70   S    
C14   H6    S    
O6    V2    S    
C32   C69   S    
C39   H13   S    
C82   H47   S    
C55   C57   A    
C92   H72   S    
C41   H15   S    
C37   O23   S    
C79   C80   S    
C6    C30   A    
C36   C66   A    
C54   H8    S    
C87   H60   S    
C33   C41   A    
C88   H63   S    
C65   H9    S    
C5    C29   A    
C41   C43   A    
C52   C54   A    
C15   C17   A    
C44   C48   A    
C83   C84   S    
C1    C36   S    
C80   H42   S    
C49   C61   A    
C10   C32   A    
C77   H34   S    
C36   C68   A    
C79   H38   S    
C56   H20   S    
O5    V1    S    
C34   C71   S    
C16   C18   A    
C88   H62   S    
C5    H3    S    
O16   C72   A    
C49   C51   A    
C73   C74   S    
C83   H49   S    
O4    V2    S    
C90   H69   S    
O13   V3    S    
C60   C64   A    
O20   V4    S    
O26   C83   S    
C81   C82   S    
C59   C63   A    
O6    C4    A    
C31   C70   S    
C84   H52   S    
C43   C45   A    
C91   H71   S    
C59   C61   A    
O13   C69   A    
O1    V2    S    
C5    C21   A    
C34   C40   A    
O2    V1    S    
C57   C59   A    
O15   V3    S    
C74   H23   S    
C86   H58   S    
H1    C23   S    
C58   H12   S    
C53   H7    S    
C42   H16   S    
C79   H39   S    
C45   C53   A    
O28   C87   S    
C64   C66   A    
C37   C39   A    
O22   C75   S    
C8    C28   A    
C15   C19   A    
C20   C28   A    
O4    C2    A    
C9    C11   A    
C2    C35   S    
C25   H75   S    
O18   V4    S    
C61   C67   A    
O3    V1    S    
C76   H28   S    
C86   H59   S    
C9    O27   S    
C55   H19   S    
O11   V4    S    
C75   H27   S    
C88   H64   S    
C19   C21   A    
C6    H4    S    
O15   C71   A    
C81   H44   S    
C77   H33   S    
O3    C1    A    
C12   O30   S    
C87   H61   S    
C78   H35   S    
C27   H53   S    
O11   C71   A    
C10   C12   A    
C75   C76   S    
C35   C65   A    
C8    C30   A    
C83   H48   S    
O19   V4    S    
C89   C90   S    
C92   H73   S    
O7    V1    S    
C17   C25   A    
C12   C14   A    
C13   C15   A    
C63   O25   S    
O21   C73   S    
C14   C16   A    
C64   O26   S    
C78   H36   S    
O16   V4    S    
O29   C89   S    
O8    V2    S    
C22   C24   A    
C17   C31   A    
C20   C22   A    
C38   C40   A    
C46   C54   A    
C40   H14   S    
C90   H67   S    
C73   H22   S    
C74   H24   S    
C87   C88   S    
C26   H76   S    
O17   V3    S    
C66   H10   S    
C43   C47   A    
C76   H29   S    
C1    O8    A    
C18   C32   A    
C81   H43   S    
C21   C23   A    
O30   C91   S    
O9    V2    S    
C82   H45   S    
C50   C52   A    
O10   V1    S    
C35   C67   A    
C85   H56   S    
C90   H68   S    
C89   H65   S    
C89   H66   S    
C85   C86   S    
C52   H18   S    
C67   H31   S    
O19   V3    S    
C70   O17   A    
C51   H17   S    
