data_mof_unit_50096.cif
_audit_creation_date              2012-12-10T20:34:46-0500
_audit_creation_method            fapswitch 2.2
_symmetry_space_group_name_H-M    P1
_symmetry_Int_Tables_number       1
_space_group_crystal_system       triclinic
_cell_length_a                    10.734506
_cell_length_b                    10.625761
_cell_length_c                    9.839501
_cell_angle_alpha                 90.706217
_cell_angle_beta                  89.29182
_cell_angle_gamma                 91.620232
_cell_volume                      1121.70113909

loop_
_atom_site_label
_atom_site_type_symbol
_atom_type_description
_atom_site_fract_x
_atom_site_fract_y
_atom_site_fract_z
_atom_type_partial_charge
C1    C     C_R   0.515260 0.261009 0.498071 0.847954
C2    C     C_3   0.876118 0.477070 0.500949 0.028914
C3    C     C_3   0.928656 0.613952 0.494208 -0.433502
C4    C     C_3   0.924552 0.400985 0.376418 -0.461703
C5    C     C_R   0.571400 0.067699 0.612949 0.099485
C6    C     C_R   0.548507 0.130871 0.491978 -0.153712
C7    C     C_R   0.558013 0.062101 0.366373 0.152336
C8    C     C_R   0.550455 0.931509 0.372491 -0.283918
C9    C     C_R   0.536804 0.871756 0.497984 -0.153996
C10   C     C_R   0.564459 0.939466 0.615622 0.140717
C11   C     C_3   0.512966 0.935206 0.756860 -0.494126
C12   C     C_R   0.257488 0.488541 0.500575 0.851163
C13   C     C_3   0.523510 0.078185 0.756414 -0.474315
C14   C     C_R   0.390755 0.503344 0.073124 0.236988
C15   C     C_R   0.607837 0.488134 0.070315 -0.147329
C16   C     C_R   0.607924 0.489542 0.926512 -0.153234
C17   C     C_R   0.390695 0.501757 0.930130 0.203049
C18   C     C_3   0.300367 0.604851 0.926139 -0.526110
C19   C     C_3   0.302654 0.609216 0.079729 -0.514621
C20   C     C_R   0.506466 0.740502 0.500388 0.900277
C21   C     C_R   0.740814 0.487915 0.499347 0.842387
C22   C     C_3   0.065747 0.398095 0.628046 0.020096
C23   C     C_3   0.919826 0.412176 0.634905 -0.041831
C24   C     C_3   0.071091 0.616597 0.508824 -0.065047
C25   C     C_3   0.067474 0.418132 0.363721 -0.003145
C26   C     C_3   0.119802 0.476751 0.502448 0.011656
H1    H     H_    0.103849 0.442389 0.721935 0.143982
H2    H     H_    0.882410 0.432928 0.280470 0.181360
H3    H     H_    0.108027 0.661589 0.414011 0.112522
H4    H     H_    0.546965 0.877225 0.278568 0.172287
H5    H     H_    0.414991 0.898361 0.761086 0.196349
H6    H     H_    0.577741 0.891701 0.828730 0.205559
H7    H     H_    0.432414 0.123264 0.767148 0.214035
H8    H     H_    0.595890 0.116264 0.826689 0.209491
H9    H     H_    0.695162 0.481883 0.122902 0.149524
H10   H     H_    0.339445 0.691537 0.877673 0.216361
H11   H     H_    0.210126 0.569188 0.886397 0.205665
H12   H     H_    0.211670 0.582130 0.126568 0.190392
H13   H     H_    0.899482 0.479538 0.718877 0.163679
H14   H     H_    0.881954 0.673616 0.571264 0.193924
H15   H     H_    0.084208 0.491387 0.285499 0.160854
H16   H     H_    0.897372 0.300083 0.388593 0.175293
N1    N     N_R   0.499150 0.499140 0.142800 -0.103816
N2    N     N_R   0.499150 0.499180 0.857150 -0.102714
O1    O     O_R   0.500020 0.316790 0.614690 -0.623657
O2    O     O_R   0.500000 0.316760 0.385350 -0.624031
O3    O     O_R   0.314800 0.500000 0.614670 -0.617059
O4    O     O_R   0.314790 0.499960 0.385330 -0.633590
O5    O     O_R   0.500000 0.683240 0.614650 -0.614420
O6    O     O_R   0.499980 0.683210 0.385310 -0.616207
O7    O     O_R   0.685210 0.500040 0.614670 -0.636841
O8    O     O_R   0.685200 0.500000 0.385330 -0.636300
Zn1   Zn    Zn3+2 0.500010 0.500020 0.653130 0.919713
Zn2   Zn    Zn3+2 0.499990 0.499980 0.346870 0.920027
H17   H     H_    0.904612 0.654998 0.394431 0.158131
C27   C     C_3   0.569700 0.118733 0.225055 -0.346954
C28   C     C_3   0.694840 0.188036 0.205439 -0.876076
H18   H     H_    0.704236 0.268398 0.277196 0.273865
H19   H     H_    0.772506 0.123104 0.221410 0.249524
H20   H     H_    0.701909 0.224539 0.100584 0.239068
H21   H     H_    0.564820 0.044010 0.144973 0.182375
H22   H     H_    0.490648 0.179532 0.202043 0.221797
C29   C     C_3   0.102360 0.256550 0.636186 -0.434509
C30   C     C_3   0.238876 0.228612 0.633280 -0.879660
H23   H     H_    0.287165 0.283076 0.714849 0.291066
H24   H     H_    0.249648 0.126543 0.651299 0.231994
H25   H     H_    0.277797 0.247859 0.531461 0.254638
H26   H     H_    0.069679 0.218534 0.734832 0.244075
H27   H     H_    0.057130 0.197825 0.557392 0.210475
H28   H     H_    0.695421 0.486771 0.871583 0.164726
H29   H     H_    0.346314 0.697384 0.121581 0.212822
C31   C     C_3   0.841704 0.288804 0.672992 -0.373718
C32   C     C_3   0.848568 0.256106 0.824441 -0.951677
H30   H     H_    0.926265 0.307512 0.876387 0.256652
H31   H     H_    0.760845 0.280667 0.877342 0.250001
H32   H     H_    0.860507 0.153314 0.835937 0.258430
H33   H     H_    0.741857 0.295725 0.651337 0.230889
H34   H     H_    0.866169 0.206770 0.608965 0.187675
C33   C     C_3   0.120567 0.711420 0.620896 -0.368878
C34   C     C_3   0.048089 0.719862 0.755985 -0.893484
H35   H     H_    0.961126 0.772520 0.745019 0.250302
H36   H     H_    0.025987 0.626684 0.799161 0.240901
H37   H     H_    0.105595 0.773962 0.830726 0.247241
H38   H     H_    0.219684 0.696940 0.642965 0.220721
H39   H     H_    0.119862 0.807575 0.577328 0.193747
C35   C     C_3   0.127930 0.298260 0.301119 -0.371191
C36   C     C_3   0.098713 0.282046 0.149781 -0.945957
H40   H     H_    0.996654 0.270777 0.134579 0.269133
H41   H     H_    0.134685 0.364231 0.091280 0.256116
H42   H     H_    0.143970 0.196535 0.109039 0.254570
H43   H     H_    0.230529 0.301830 0.310014 0.230704
H44   H     H_    0.093781 0.211128 0.350331 0.209651

loop_
_geom_bond_atom_site_label_1
_geom_bond_atom_site_label_2
_ccdc_geom_bond_type
C36   H40   S    
C32   H30   S    
C19   H29   S    
C21   O7    A    
C12   O4    A    
C4    C25   S    
C7    C8    A    
O4    Zn2   S    
C20   O5    A    
C18   H11   S    
C24   C26   S    
C35   H43   S    
C34   H37   S    
C5    C6    A    
C23   H13   S    
C1    O2    A    
C28   H19   S    
C15   C16   A    
C27   C28   S    
C18   C19   S    
C24   H3    S    
C20   O6    A    
N1    Zn2   S    
C22   C29   S    
C3    H17   S    
N2    Zn1   S    
C29   H27   S    
C8    C9    A    
C31   H34   S    
C9    C10   A    
C16   N2    A    
C5    C13   S    
O3    Zn1   S    
C11   H5    S    
C32   H31   S    
C14   C17   A    
C3    C24   S    
C7    C27   S    
C12   O3    A    
C23   C31   S    
C15   H9    S    
C4    H2    S    
O8    Zn2   S    
C1    C6    S    
C30   H25   S    
C16   H28   S    
C34   H36   S    
C25   H15   S    
C35   C36   S    
C34   H35   S    
C28   H20   S    
C25   C26   S    
C29   C30   S    
C24   C33   S    
C12   C26   S    
O7    Zn1   S    
C30   H24   S    
C2    C4    S    
C13   H7    S    
C31   H33   S    
C19   H12   S    
C9    C20   S    
O2    Zn2   S    
C2    C21   S    
C17   C18   S    
O6    Zn2   S    
C3    H14   S    
C22   H1    S    
C36   H41   S    
C32   H32   S    
C27   H22   S    
C33   H39   S    
C29   H26   S    
C27   H21   S    
C14   C19   S    
C31   C32   S    
C11   H6    S    
C6    C7    A    
C8    H4    S    
C30   H23   S    
C2    C3    S    
C17   N2    A    
C15   N1    A    
C13   H8    S    
C35   H44   S    
C11   C13   S    
C1    O1    A    
C28   H18   S    
C33   H38   S    
C4    H16   S    
O5    Zn1   S    
C25   C35   S    
C10   C11   S    
O1    Zn1   S    
C33   C34   S    
C5    C10   A    
C22   C26   S    
C36   H42   S    
C2    C23   S    
C22   C23   S    
C18   H10   S    
C21   O8    A    
C14   N1    A    
