data_mof_unit_50893.cif
_audit_creation_date              2012-10-26T20:22:04-0400
_audit_creation_method            fapswitch 2.2
_symmetry_space_group_name_H-M    P1
_symmetry_Int_Tables_number       1
_space_group_crystal_system       triclinic
_cell_length_a                    10.783657
_cell_length_b                    9.619548
_cell_length_c                    10.662225
_cell_angle_alpha                 91.45166
_cell_angle_beta                  92.111966
_cell_angle_gamma                 89.730055
_cell_volume                      1104.92030319

loop_
_atom_site_label
_atom_site_type_symbol
_atom_type_description
_atom_site_fract_x
_atom_site_fract_y
_atom_site_fract_z
_atom_type_partial_charge
C1    C     C_R   0.871377 0.501277 0.496742 0.026828
C2    C     C_3   0.495213 0.363874 0.034445 -0.146281
C3    C     C_3   0.400360 0.441013 0.949515 0.287857
C4    C     C_3   0.601687 0.556505 0.051154 0.281442
C5    C     C_3   0.505313 0.504128 0.877897 0.016901
C6    C     C_3   0.496222 0.494070 0.122404 0.013523
C7    C     C_R   0.405709 0.073044 0.441062 0.353291
C8    C     C_R   0.592150 0.926366 0.562140 0.335422
C9    C     C_R   0.594525 0.075855 0.559536 0.334131
C10   C     C_R   0.404882 0.924973 0.442192 0.340387
C11   C     C_R   0.062252 0.392743 0.436186 -0.143861
C12   C     C_R   0.128397 0.501503 0.496663 0.029628
C13   C     C_R   0.937392 0.611643 0.555040 -0.138258
C14   C     C_R   0.933836 0.393607 0.434862 -0.145519
C15   C     C_R   0.065795 0.612092 0.554469 -0.116418
C16   C     C_3   0.310208 0.157783 0.262867 -0.099962
C17   C     C_3   0.659850 0.871956 0.759388 -0.105269
C18   C     C_3   0.803776 0.119169 0.582616 -0.090296
C19   C     C_3   0.298549 0.820617 0.274647 -0.069494
C20   C     C_3   0.220343 0.317241 0.969414 -0.123622
C21   C     C_3   0.781773 0.682813 0.038687 -0.126761
C22   C     C_R   0.262416 0.500328 0.498757 0.537520
C23   C     C_R   0.737516 0.500027 0.499092 0.553665
C24   C     C_R   0.497144 0.498155 0.259454 0.548821
C25   C     C_R   0.503425 0.501562 0.740641 0.568951
C26   C     C_3   0.399468 0.569577 0.038122 -0.163738
C27   C     C_3   0.602381 0.428004 0.962010 -0.145681
C28   C     C_3   0.506750 0.633966 0.966377 -0.154669
Cu1   Cu    Cu3+1 0.500000 0.640660 0.500000 1.036430
Cu2   Cu    Cu3+1 0.500000 0.359340 0.500000 1.047135
H1    H     H_    0.302906 0.269891 0.242554 0.132246
H2    H     H_    0.279947 0.707760 0.264357 0.138114
H3    H     H_    0.386554 0.844358 0.227617 0.091521
H4    H     H_    0.220480 0.873045 0.224465 0.100983
H5    H     H_    0.197603 0.385798 0.051135 0.092445
H6    H     H_    0.265758 0.219687 0.000956 0.098732
H7    H     H_    0.131503 0.288175 0.920107 0.144133
H8    H     H_    0.739576 0.785654 0.018307 0.102075
H9    H     H_    0.800071 0.622423 0.950759 0.100584
H10   H     H_    0.872742 0.702307 0.087784 0.142877
H11   H     H_    0.313489 0.623056 0.066656 0.082961
H12   H     H_    0.228624 0.108250 0.214404 0.096029
H13   H     H_    0.686234 0.373437 0.928277 0.121045
H14   H     H_    0.510929 0.744453 0.940775 0.093618
H15   H     H_    0.489784 0.254334 0.063583 0.100198
H16   H     H_    0.109446 0.308589 0.388422 0.161814
H17   H     H_    0.889961 0.696074 0.602581 0.158105
H18   H     H_    0.883373 0.310912 0.385133 0.118755
H19   H     H_    0.116135 0.697015 0.601225 0.149211
H20   H     H_    0.396220 0.115075 0.221004 0.072048
H21   H     H_    0.691812 0.776088 0.805560 0.117535
H22   H     H_    0.560153 0.887550 0.780717 0.112157
H23   H     H_    0.715240 0.959960 0.800356 0.129177
H24   H     H_    0.866652 0.206062 0.610974 0.140852
H25   H     H_    0.803647 0.107191 0.478374 0.103546
H26   H     H_    0.844347 0.025509 0.626708 0.146627
N1    N     N_R   0.500000 0.852070 0.500000 -0.264171
N2    N     N_R   0.500000 0.147930 0.500000 -0.263178
O1    O     O_R   0.319640 0.618740 0.499990 -0.471604
O2    O     O_3   0.681186 0.854577 0.630346 -0.558500
O3    O     O_3   0.684882 0.150165 0.627868 -0.542097
O4    O     O_3   0.296971 0.857415 0.403483 -0.521987
O5    O     O_3   0.294903 0.385022 0.884570 -0.543486
O6    O     O_3   0.706582 0.609789 0.119066 -0.547678
O7    O     O_R   0.680360 0.381260 0.500010 -0.480925
O8    O     O_R   0.680360 0.618740 0.500010 -0.449874
O9    O     O_R   0.319640 0.381260 0.499990 -0.451018
O10   O     O_R   0.499970 0.618770 0.316850 -0.491388
O11   O     O_R   0.500030 0.381230 0.683150 -0.443838
O12   O     O_R   0.500030 0.618770 0.683150 -0.506618
O13   O     O_R   0.499970 0.381230 0.316850 -0.527220
O14   O     O_3   0.302127 0.141134 0.393525 -0.525912

loop_
_geom_bond_atom_site_label_1
_geom_bond_atom_site_label_2
_ccdc_geom_bond_type
C7    C10   A    
C11   C12   A    
C24   O13   A    
C18   O3    S    
C2    C27   S    
C25   O12   A    
C3    O5    S    
C8    N1    A    
C5    C28   S    
C4    C27   S    
C4    O6    S    
C7    N2    A    
C26   C28   S    
Cu2   O9    S    
C21   H9    S    
C12   C15   A    
C18   H26   S    
C6    C24   S    
C23   O7    A    
C20   O5    S    
C15   H19   S    
Cu2   O13   S    
C6    C26   S    
C10   O4    S    
C8    O2    S    
C16   H1    S    
C20   H7    S    
C20   H5    S    
C17   H21   S    
C2    C6    S    
C21   H10   S    
C18   H25   S    
C5    C25   S    
C19   H2    S    
Cu2   N2    S    
C17   H22   S    
C20   H6    S    
C4    C28   S    
Cu1   N1    S    
C1    C23   S    
C2    C3    S    
C10   N1    A    
C13   C15   A    
C2    H15   S    
C19   H3    S    
C11   C14   A    
C9    O3    S    
C22   O9    A    
Cu2   O7    S    
C1    C13   A    
C24   O10   A    
C19   O4    S    
Cu1   Cu2   S    
Cu1   O8    S    
Cu1   O10   S    
C17   H23   S    
C22   O1    A    
Cu2   O11   S    
C12   C22   S    
C23   O8    A    
C4    C6    S    
Cu1   O12   S    
C25   O11   A    
C7    O14   S    
C13   H17   S    
C27   H13   S    
C18   H24   S    
C9    N2    A    
C11   H16   S    
C14   H18   S    
C1    C14   A    
C17   O2    S    
C3    C5    S    
C5    C27   S    
C16   H12   S    
C28   H14   S    
C3    C26   S    
C21   H8    S    
Cu1   O1    S    
C26   H11   S    
C16   H20   S    
C8    C9    A    
C21   O6    S    
C19   H4    S    
C16   O14   S    
