data_mof_unit_60498.cif
_audit_creation_date              2012-12-10T18:29:41-0500
_audit_creation_method            fapswitch 2.2
_symmetry_space_group_name_H-M    P1
_symmetry_Int_Tables_number       1
_space_group_crystal_system       triclinic
_cell_length_a                    19.392274
_cell_length_b                    18.108924
_cell_length_c                    23.544425
_cell_angle_alpha                 90.006686
_cell_angle_beta                  92.045847
_cell_angle_gamma                 90.005326
_cell_volume                      8262.9010638

loop_
_atom_site_label
_atom_site_type_symbol
_atom_type_description
_atom_site_fract_x
_atom_site_fract_y
_atom_site_fract_z
_atom_type_partial_charge
C1    C     C_R   0.367071 0.499997 0.500471 0.938125
C2    C     C_R   0.632929 0.500003 0.499528 0.938066
C3    C     C_R   0.507414 0.564039 0.237690 0.558221
C4    C     C_R   0.493386 0.564032 0.762372 0.557013
C5    C     C_R   0.507276 0.565793 0.296950 0.565540
C6    C     C_R   0.493207 0.565815 0.703100 0.565804
C7    C     C_R   0.500817 0.499689 0.328015 -0.355355
C8    C     C_R   0.499354 0.499690 0.671991 -0.354731
C9    C     C_R   0.495148 0.432312 0.298465 -0.312744
C10   C     C_R   0.504955 0.432279 0.701514 -0.311166
C11   C     C_R   0.495341 0.430807 0.239288 0.652476
C12   C     C_R   0.505043 0.430781 0.760701 0.649700
C13   C     C_R   0.501378 0.496657 0.208735 -0.029983
C14   C     C_R   0.499404 0.496639 0.791225 -0.023892
C15   C     C_R   0.253849 0.567060 0.502063 0.563028
C16   C     C_R   0.746166 0.432944 0.498145 0.561384
C17   C     C_R   0.746145 0.567088 0.497796 0.563036
C18   C     C_R   0.253839 0.432915 0.501987 0.561369
C19   C     C_R   0.181837 0.567176 0.501914 0.294110
C20   C     C_R   0.818178 0.432835 0.498281 0.293567
C21   C     C_R   0.818160 0.567229 0.497967 0.294299
C22   C     C_R   0.181825 0.432784 0.501826 0.293580
C23   C     C_R   0.145365 0.499982 0.501509 -0.326754
C24   C     C_R   0.854641 0.500036 0.498486 -0.326817
C25   C     C_R   0.290734 0.499991 0.501450 -0.436365
C26   C     C_R   0.709266 0.500012 0.498547 -0.436404
C27   C     C_R   0.500224 0.500020 0.390709 0.929726
C28   C     C_R   0.499795 0.500025 0.609292 0.929477
C29   C     C_R   0.930288 0.500009 0.499239 0.560407
C30   C     C_R   0.069724 0.500018 0.500760 0.560645
C31   C     C_R   0.543374 0.277347 0.536629 0.546372
C32   C     C_R   0.456510 0.722647 0.463461 0.581770
C33   C     C_R   0.456631 0.277329 0.463366 0.546198
C34   C     C_R   0.543487 0.722666 0.536541 0.581625
C35   C     C_R   0.543848 0.199503 0.537018 -0.233164
C36   C     C_R   0.456041 0.800490 0.463069 -0.227042
C37   C     C_R   0.456153 0.199485 0.462981 -0.233328
C38   C     C_R   0.543957 0.800510 0.536932 -0.227114
C39   C     C_R   0.499998 0.159077 0.500001 -0.080767
C40   C     C_R   0.500000 0.840917 0.500000 -0.086716
C41   C     C_R   0.499999 0.924178 0.500000 0.499267
C42   C     C_R   0.499998 0.075815 0.500001 0.492212
C43   C     C_R   0.560725 0.505268 0.881962 0.707415
C44   C     C_R   0.440549 0.484478 0.117889 0.708445
C45   C     C_R   0.438991 0.484270 0.878661 0.706306
C46   C     C_R   0.562343 0.505087 0.121182 0.706797
C47   C     C_R   0.437835 0.483501 0.938393 -0.161292
C48   C     C_R   0.563615 0.504984 0.061454 -0.162391
C49   C     C_R   0.500405 0.494146 0.969911 -0.075727
C50   C     C_R   0.501076 0.494194 0.029941 -0.076779
C51   C     C_R   0.562343 0.504958 0.941528 -0.107347
C52   C     C_R   0.439110 0.483642 0.058323 -0.109176
C53   C     C_R   0.376311 0.472727 0.967463 0.687417
C54   C     C_R   0.625196 0.515425 0.032382 0.688306
C55   C     C_R   0.377209 0.472870 0.026706 -0.170036
C56   C     C_R   0.624290 0.515387 0.973140 -0.170325
Cu1   Cu    Cu3+1 0.500000 0.573360 0.500000 1.155012
Cu2   Cu    Cu3+1 0.500000 0.426640 0.500000 1.102277
H1    H     H_    0.578719 0.170899 0.566462 0.219776
H2    H     H_    0.421080 0.829094 0.433696 0.219446
H3    H     H_    0.421286 0.170866 0.433533 0.219830
H4    H     H_    0.578916 0.829128 0.566306 0.219556
H5    H     H_    0.329020 0.464598 0.047719 0.228714
H6    H     H_    0.672468 0.523719 0.952124 0.228807
H7    H     H_    0.490519 0.380585 0.321060 0.257306
H8    H     H_    0.509409 0.380550 0.678898 0.257280
N1    N     N_R   0.499735 0.495173 0.852043 -0.425457
N2    N     N_R   0.501453 0.495182 0.147858 -0.427539
N3    N     N_R   0.035423 0.462738 0.540962 -0.136062
N4    N     N_R   0.964592 0.537288 0.459037 -0.135668
N5    N     N_R   0.966816 0.462738 0.540214 -0.134240
N6    N     N_R   0.033199 0.537293 0.459788 -0.134430
N7    N     N_R   0.500000 0.316380 0.500000 -0.258687
N8    N     N_R   0.500000 0.683620 0.500000 -0.268523
N9    N     N_R   0.457192 0.036915 0.463963 -0.187898
N10   N     N_R   0.542806 0.963078 0.536037 -0.186170
N11   N     N_R   0.542805 0.036934 0.536038 -0.187865
N12   N     N_R   0.457192 0.963059 0.463963 -0.186237
O1    O     O_R   0.400150 0.561970 0.500010 -0.518786
O2    O     O_R   0.599850 0.438030 0.499990 -0.513236
O3    O     O_R   0.599850 0.561970 0.499990 -0.518726
O4    O     O_R   0.400150 0.438030 0.500010 -0.513138
O5    O     O_R   0.499980 0.561970 0.417880 -0.513662
O6    O     O_R   0.500020 0.438030 0.582120 -0.578648
O7    O     O_R   0.500020 0.561970 0.582120 -0.513781
O8    O     O_R   0.499980 0.438030 0.417880 -0.578787
O9    O     O_2   0.619537 0.515619 0.854040 -0.467287
O10   O     O_2   0.381541 0.475161 0.145748 -0.463184
O11   O     O_2   0.380160 0.474493 0.847240 -0.396747
O12   O     O_2   0.621231 0.514782 0.152549 -0.392503
F1    F     F_    0.314920 0.462163 0.939089 -0.555096
F2    F     F_    0.686599 0.525933 0.060749 -0.554266
F3    F     F_    0.513228 0.628007 0.208204 -0.544786
F4    F     F_    0.487481 0.627913 0.791960 -0.547640
F5    F     F_    0.514112 0.632036 0.323544 -0.546288
F6    F     F_    0.486334 0.632078 0.676543 -0.546828
F7    F     F_    0.489991 0.365235 0.211580 -0.573932
F8    F     F_    0.510772 0.365292 0.788465 -0.574504
F9    F     F_    0.287342 0.632931 0.503526 -0.544224
F10   F     F_    0.712688 0.367061 0.496912 -0.544728
F11   F     F_    0.712672 0.632965 0.496850 -0.543815
F12   F     F_    0.287294 0.367030 0.502699 -0.544211
Cl1   Cl    Cl    0.138825 0.652956 0.504620 -0.345886
Cl2   Cl    Cl    0.861192 0.347035 0.495807 -0.348975
Cl3   Cl    Cl    0.861291 0.653102 0.499969 -0.344349
Cl4   Cl    Cl    0.138658 0.346939 0.499585 -0.347249
Cl5   Cl    Cl    0.600668 0.321507 0.585053 -0.463664
Cl6   Cl    Cl    0.399054 0.678477 0.415165 -0.393396
Cl7   Cl    Cl    0.399370 0.321466 0.414918 -0.462099
Cl8   Cl    Cl    0.600928 0.678521 0.584847 -0.391093

loop_
_geom_bond_atom_site_label_1
_geom_bond_atom_site_label_2
_ccdc_geom_bond_type
C28   O6    A    
Cu1   O1    S    
C19   C23   A    
C47   C49   A    
C54   F2    S    
C42   N9    A    
C10   H8    S    
C17   C26   A    
C32   C36   A    
Cu2   O4    S    
C32   N8    A    
C31   N7    A    
C7    C27   S    
C35   H1    S    
C51   C56   A    
C18   F12   S    
C45   C47   A    
N3    N5    A    
C17   F11   S    
C24   C29   S    
C15   C19   A    
C19   Cl1   S    
C20   C24   A    
C49   C51   A    
C55   H5    S    
C53   F1    S    
C50   C52   A    
C14   N1    S    
C56   H6    S    
C45   O11   S    
C12   F8    S    
C3    C13   A    
C52   C55   A    
Cu2   O2    S    
C47   C53   A    
C44   C52   A    
C48   C50   A    
C18   C22   A    
C1    C25   S    
C18   C25   A    
Cu2   O8    S    
C5    F5    S    
C39   C42   S    
C54   C56   A    
C53   C55   A    
C16   C26   A    
C46   C48   A    
C23   C30   S    
C36   C40   A    
C2    O2    A    
N10   N11   A    
C4    C6    A    
C41   N12   A    
C5    C7    A    
C16   F10   S    
C6    C8    A    
C3    C5    A    
C1    O4    A    
C22   Cl4   S    
C33   C37   A    
Cu1   N8    S    
C48   C54   A    
C27   O8    A    
C35   C39   A    
C46   N2    A    
Cu2   O6    S    
C30   N6    A    
C16   C20   A    
Cu1   O5    S    
C3    F3    S    
C9    C11   A    
C10   C12   A    
C34   N8    A    
C4    F4    S    
C33   N7    A    
C40   C41   S    
C12   C14   A    
C6    F6    S    
C34   Cl8   S    
C31   C35   A    
C44   N2    A    
C33   Cl7   S    
C30   N3    A    
C1    O1    A    
C29   N4    A    
C7    C9    A    
C34   C38   A    
C31   Cl5   S    
C8    C10   A    
C15   F9    S    
C36   H2    S    
C2    C26   S    
C37   H3    S    
C45   N1    A    
C46   O12   S    
C11   F7    S    
C43   O9    S    
C27   O5    A    
C37   C39   A    
C41   N10   A    
C38   C40   A    
C11   C13   A    
C43   C51   A    
Cu1   Cu2   S    
C8    C28   S    
Cu1   O7    S    
Cu1   O3    S    
C4    C14   A    
N9    N12   A    
C9    H7    S    
C15   C25   A    
C20   Cl2   S    
C42   N11   A    
C43   N1    A    
C49   C50   A    
C32   Cl6   S    
C21   C24   A    
C28   O7    A    
C22   C23   A    
C2    O3    A    
N4    N6    A    
C38   H4    S    
C44   O10   S    
C21   Cl3   S    
Cu2   N7    S    
C29   N5    A    
C13   N2    S    
C17   C21   A    
