data_mof_unit_9441.cif
_audit_creation_date              2012-12-11T15:20:41-0500
_audit_creation_method            fapswitch 2.2
_symmetry_space_group_name_H-M    P1
_symmetry_Int_Tables_number       1
_space_group_crystal_system       triclinic
_cell_length_a                    12.968381
_cell_length_b                    13.065101
_cell_length_c                    15.307202
_cell_angle_alpha                 117.149321
_cell_angle_beta                  63.906704
_cell_angle_gamma                 97.345111
_cell_volume                      2063.94832519

loop_
_atom_site_label
_atom_site_type_symbol
_atom_type_description
_atom_site_fract_x
_atom_site_fract_y
_atom_site_fract_z
_atom_type_partial_charge
C1    C     C_R   0.031874 0.833369 0.023859 -0.115466
C2    C     C_R   0.299622 0.593783 0.791040 -0.127008
C3    C     C_R   0.245289 0.480837 0.106599 -0.182065
C4    C     C_R   0.691482 0.419755 0.213652 0.111903
C5    C     C_R   0.987927 0.298973 0.695045 -0.122229
C6    C     C_R   0.338210 0.541035 0.073777 0.163108
C7    C     C_R   0.927480 0.204090 0.694476 0.048405
C8    C     C_R   0.293742 0.567835 0.695117 0.040315
C9    C     C_R   0.093305 0.147010 0.958888 0.069789
C10   C     C_R   0.930568 0.045428 0.421709 -0.165423
C11   C     C_R   0.925804 0.139344 0.515780 -0.176182
C12   C     C_R   0.684341 0.470563 0.318006 -0.048980
C13   C     C_R   0.890534 0.126654 0.610862 0.142888
C14   C     C_R   0.836529 0.028718 0.617004 -0.169997
C15   C     C_R   0.840853 0.935068 0.523056 -0.166733
C16   C     C_R   0.740207 0.580727 0.949871 -0.143420
C17   C     C_R   0.900643 0.939152 0.423008 0.145278
C18   C     C_R   0.580406 0.602138 0.515833 -0.180527
C19   C     C_R   0.480539 0.634288 0.611091 -0.168532
C20   C     C_R   0.378223 0.589866 0.606282 0.145712
C21   C     C_R   0.370721 0.539542 0.506903 -0.176945
C22   C     C_R   0.470714 0.507453 0.411726 -0.177704
C23   C     C_R   0.638013 0.565443 0.024422 0.152768
C24   C     C_R   0.577498 0.525827 0.416315 0.149805
C25   C     C_2   0.431882 0.564597 0.105028 -0.200739
C26   C     C_2   0.524580 0.607844 0.053343 -0.195651
C27   C     C_2   0.909401 0.968034 0.020963 -0.205464
C28   C     C_R   0.938639 0.722137 0.314309 -0.123079
C29   C     C_2   0.906461 0.059127 0.110695 -0.158504
C30   C     C_R   0.661682 0.485599 0.049748 -0.121994
C31   C     C_R   0.027412 0.821748 0.220880 -0.117569
C32   C     C_R   0.792249 0.504451 0.310938 0.110333
C33   C     C_R   0.930679 0.748886 0.928091 -0.165409
C34   C     C_R   0.949789 0.832195 0.322582 0.036682
C35   C     C_R   0.958645 0.854803 0.989100 0.176968
C36   C     C_3   0.639924 0.308313 0.165732 -0.459488
C37   C     C_3   0.614987 0.234372 0.226206 -0.223478
C38   C     C_3   0.588750 0.113183 0.161722 -0.930852
C39   C     C_3   0.842457 0.491057 0.378824 -0.473624
C40   C     C_3   0.954297 0.411802 0.310296 -0.197221
C41   C     C_3   0.996737 0.394303 0.381501 -0.987284
C42   C     C_R   0.324323 0.577289 0.008202 -0.109944
C43   C     C_R   0.903848 0.200370 0.790481 -0.144739
C44   C     C_R   0.197595 0.508502 0.695378 -0.124326
C45   C     C_R   0.103357 0.252197 0.037292 -0.157476
C46   C     C_R   0.003526 0.168284 0.941039 -0.125017
H1    H     H_    0.081831 0.895690 0.060145 0.094706
H2    H     H_    0.960725 0.216782 0.509926 0.110814
H3    H     H_    0.801564 0.018812 0.690849 0.105563
H4    H     H_    0.808186 0.856864 0.528523 0.103064
H5    H     H_    0.659307 0.632275 0.522198 0.110622
H6    H     H_    0.486961 0.682814 0.687358 0.104945
H7    H     H_    0.290668 0.513129 0.500954 0.109158
H8    H     H_    0.463434 0.462024 0.335973 0.117543
H9    H     H_    0.433515 0.523753 0.152178 0.123664
H10   H     H_    0.521335 0.653336 0.010441 0.122759
H11   H     H_    0.868894 0.976217 0.975422 0.114612
H12   H     H_    0.845503 0.147008 0.823689 0.083154
H13   H     H_    0.868630 0.142870 0.136283 0.135439
H14   H     H_    0.748815 0.629044 0.906306 0.090283
H15   H     H_    0.885714 0.699186 0.377811 0.095168
H16   H     H_    0.601754 0.450462 0.101341 0.091309
H17   H     H_    0.064409 0.890880 0.201037 0.086654
H18   H     H_    0.886415 0.734119 0.878641 0.090574
H19   H     H_    0.371403 0.638409 0.979322 0.080243
H20   H     H_    0.511742 0.117761 0.149094 0.258988
H21   H     H_    0.663435 0.068559 0.081382 0.254938
H22   H     H_    0.571185 0.062079 0.207377 0.258086
H23   H     H_    0.159754 0.484768 0.639158 0.086214
H24   H     H_    0.689552 0.227882 0.241089 0.195112
H25   H     H_    0.539572 0.275269 0.306623 0.201118
H26   H     H_    0.558606 0.326118 0.165876 0.167464
H27   H     H_    0.701803 0.257200 0.079263 0.198266
H28   H     H_    0.013314 0.478386 0.437788 0.265157
H29   H     H_    0.931822 0.353446 0.429597 0.267016
H30   H     H_    0.078318 0.336850 0.329071 0.249584
H31   H     H_    0.939308 0.326248 0.254737 0.200409
H32   H     H_    0.021685 0.450960 0.262568 0.201092
H33   H     H_    0.856189 0.575391 0.436292 0.175701
H34   H     H_    0.166606 0.268083 0.068935 0.111212
H35   H     H_    0.778835 0.452205 0.429963 0.199034
H36   H     H_    0.973947 0.105891 0.882783 0.100507
H37   H     H_    0.356627 0.648911 0.823102 0.083952
H38   H     H_    0.223870 0.452497 0.168325 0.097184
H39   H     H_    0.008135 0.337338 0.640737 0.086135
H40   H     H_    0.968577 0.053841 0.346959 0.115456
N1    N     N_R   0.037310 0.720000 0.995790 -0.046800
N2    N     N_R   0.824890 0.517960 0.936420 -0.039930
N3    N     N_R   0.003210 0.648190 0.211380 -0.040373
N4    N     N_R   0.774330 0.457010 0.995840 -0.046901
N5    N     N_R   0.053760 0.709140 0.151960 -0.040172
N6    N     N_R   0.853860 0.498840 0.211410 -0.060509
N7    N     N_R   0.974240 0.667310 0.936390 -0.038701
N8    N     N_R   0.225670 0.542990 0.004160 -0.043042
N9    N     N_R   0.946240 0.290860 0.848040 -0.037600
N10   N     N_R   0.146140 0.501160 0.788590 -0.038176
N11   N     N_R   0.025760 0.332690 0.063610 -0.051928
N12   N     N_R   0.962690 0.280000 0.004210 -0.046918
N13   N     N_R   0.209210 0.553840 0.847990 -0.038990
N14   N     N_R   0.175110 0.482040 0.063580 -0.041156
N15   N     N_R   0.996790 0.351810 0.788620 -0.036964
N16   N     N_R   0.790790 0.446160 0.152010 -0.067338
Ni1   Ni    Ni4+2 0.130310 0.630310 0.999970 0.209973
Ni2   Ni    Ni4+2 0.869690 0.369690 0.000030 0.196271
Ni3   Ni    Ni4+2 0.985640 0.509470 0.863740 0.212304
Ni4   Ni    Ni4+2 0.014360 0.490530 0.136260 0.203166

loop_
_geom_bond_atom_site_label_1
_geom_bond_atom_site_label_2
_ccdc_geom_bond_type
C1    N1    A    
N13   Ni1   S    
N10   Ni3   S    
C4    C36   S    
C9    C45   A    
C27   C29   D    
C19   C20   A    
C30   N4    A    
C3    C6    A    
C32   C39   S    
N11   N12   A    
C11   H2    S    
C22   H8    S    
C8    C20   S    
C18   C24   A    
C21   C22   A    
C36   C37   S    
C23   C26   S    
C6    C25   S    
C10   C17   A    
N10   N13   A    
C18   C19   A    
C16   H14   S    
C15   H4    S    
C43   H12   S    
N7    Ni3   S    
C41   H28   S    
C46   H36   S    
C19   H6    S    
C29   H13   S    
C4    N16   A    
N3    Ni4   S    
C42   H19   S    
C43   N9    A    
C28   N3    A    
C7    C43   A    
N3    N5    A    
N6    N16   A    
C5    H39   S    
C28   H15   S    
C46   N12   A    
C28   C34   A    
C9    C46   A    
C13   C14   A    
C12   C32   A    
C2    H37   S    
C3    N14   A    
C18   H5    S    
N15   Ni3   S    
C5    N15   A    
C23   C30   A    
C31   H17   S    
C39   H35   S    
C27   H11   S    
N5    Ni1   S    
C39   C40   S    
C5    C7    A    
C1    H1    S    
C27   C35   S    
C25   C26   D    
C33   N7    A    
C39   H33   S    
C37   C38   S    
C44   N10   A    
C41   H29   S    
N8    N14   A    
C31   C34   A    
C44   H23   S    
C38   H21   S    
N16   Ni2   S    
N4    Ni2   S    
N1    Ni1   S    
N11   Ni4   S    
N6    Ni4   S    
C40   C41   S    
N2    N4    A    
N8    Ni1   S    
C16   C23   A    
C31   N5    A    
C30   H16   S    
C40   H32   S    
C4    C12   A    
C17   C34   S    
N9    Ni2   S    
C1    C35   A    
C15   C17   A    
C38   H20   S    
C10   H40   S    
C42   N8    A    
C2    C8    A    
C8    C44   A    
C38   H22   S    
C26   H10   S    
C2    N13   A    
C12   C24   S    
N14   Ni4   S    
C37   H25   S    
C45   N11   A    
C41   H30   S    
C21   H7    S    
N2    Ni3   S    
C11   C13   A    
C32   N6    A    
C33   H18   S    
N12   Ni2   S    
N1    N7    A    
C33   C35   A    
C25   H9    S    
C45   H34   S    
C22   C24   A    
C40   H31   S    
C10   C11   A    
C14   H3    S    
N9    N15   A    
C7    C13   S    
C20   C21   A    
C6    C42   A    
C3    H38   S    
C16   N2    A    
C14   C15   A    
C37   H24   S    
C36   H27   S    
C36   H26   S    
