data_mof_unit_35218.cif
_audit_creation_date              2012-12-11T14:17:48-0500
_audit_creation_method            fapswitch 2.2
_symmetry_space_group_name_H-M    P1
_symmetry_Int_Tables_number       1
_space_group_crystal_system       triclinic
_cell_length_a                    11.159894
_cell_length_b                    11.159896
_cell_length_c                    18.753923
_cell_angle_alpha                 89.999956
_cell_angle_beta                  90.00002
_cell_angle_gamma                 120.000155
_cell_volume                      2022.75041468

loop_
_atom_site_label
_atom_site_type_symbol
_atom_type_description
_atom_site_fract_x
_atom_site_fract_y
_atom_site_fract_z
_atom_type_partial_charge
C1    C     C_R   0.520806 0.454129 0.146003 0.526060
C2    C     C_R   0.545871 0.066678 0.146003 0.526059
C3    C     C_R   0.933322 0.479194 0.146003 0.526059
C4    C     C_R   0.459522 0.519803 0.852055 0.537776
C5    C     C_R   0.060281 0.540478 0.852055 0.537775
C6    C     C_R   0.480197 0.939719 0.852055 0.537776
C7    C     C_R   0.410243 0.019711 0.464207 -0.158283
C8    C     C_R   0.980290 0.390533 0.464207 -0.158284
C9    C     C_R   0.609468 0.589757 0.464207 -0.158284
C10   C     C_R   0.996056 0.397360 0.537718 -0.161371
C11   C     C_R   0.401304 0.003944 0.537719 -0.161372
C12   C     C_R   0.602641 0.598696 0.537718 -0.161371
C13   C     C_R   0.750876 0.047854 0.571533 0.180204
C14   C     C_R   0.952148 0.703023 0.571532 0.180204
C15   C     C_R   0.296976 0.249124 0.571532 0.180202
C16   C     C_R   0.066602 0.758629 0.433697 0.169530
C17   C     C_R   0.692027 0.933399 0.433697 0.169529
C18   C     C_R   0.241371 0.307973 0.433696 0.169530
C19   C     C_R   0.816013 0.980526 0.544666 -0.145929
C20   C     C_R   0.019473 0.835487 0.544664 -0.145931
C21   C     C_R   0.164512 0.183986 0.544664 -0.145931
C22   C     C_R   0.071165 0.862919 0.476074 -0.171270
C23   C     C_R   0.791754 0.928835 0.476075 -0.171271
C24   C     C_R   0.137080 0.208246 0.476074 -0.171271
C25   C     C_R   0.518880 0.454703 0.354387 0.543684
C26   C     C_R   0.545297 0.064178 0.354387 0.543683
C27   C     C_R   0.935822 0.481120 0.354387 0.543683
C28   C     C_R   0.455844 0.518494 0.645825 0.542501
C29   C     C_R   0.062650 0.544156 0.645825 0.542500
C30   C     C_R   0.481506 0.937349 0.645825 0.542500
C31   C     C_R   0.498361 0.005603 0.922180 -0.005271
C32   C     C_R   0.994397 0.492757 0.922180 -0.005271
C33   C     C_R   0.507243 0.501639 0.922180 -0.005272
C34   C     C_R   0.973726 0.493665 0.071032 0.005203
C35   C     C_R   0.519939 0.026274 0.071032 0.005202
C36   C     C_R   0.506335 0.480061 0.071032 0.005203
C37   C     C_R   0.382230 0.985173 0.963759 0.030477
C38   C     C_R   0.014828 0.397058 0.963760 0.030477
C39   C     C_R   0.602943 0.617770 0.963760 0.030476
C40   C     C_R   0.019324 0.409131 0.038976 0.018770
C41   C     C_R   0.389807 0.980677 0.038976 0.018770
C42   C     C_R   0.590870 0.610193 0.038976 0.018770
C43   C     C_R   0.637463 0.067795 0.027982 -0.133822
C44   C     C_R   0.932204 0.569667 0.027982 -0.133822
C45   C     C_R   0.430333 0.362537 0.027982 -0.133822
C46   C     C_R   0.945236 0.571582 0.954980 -0.148497
C47   C     C_R   0.626346 0.054764 0.954980 -0.148497
C48   C     C_R   0.428418 0.373654 0.954980 -0.148498
C49   C     C_R   0.258307 0.967230 0.933284 -0.085090
C50   C     C_R   0.032770 0.291077 0.933284 -0.085090
C51   C     C_R   0.708923 0.741694 0.933284 -0.085090
C52   C     C_R   0.067325 0.334870 0.079712 -0.096817
C53   C     C_R   0.267544 0.932676 0.079712 -0.096817
C54   C     C_R   0.665132 0.732456 0.079712 -0.096817
C55   C     C_R   0.140506 0.925146 0.974675 -0.135036
C56   C     C_R   0.074855 0.215362 0.974676 -0.135036
C57   C     C_R   0.784640 0.859495 0.974675 -0.135036
C58   C     C_R   0.094150 0.238444 0.047558 -0.128594
C59   C     C_R   0.144293 0.905851 0.047558 -0.128594
C60   C     C_R   0.761558 0.855707 0.047558 -0.128594
C61   C     C_R   0.509196 0.003476 0.575268 -0.009396
C62   C     C_R   0.996524 0.505720 0.575268 -0.009395
C63   C     C_R   0.494280 0.490804 0.575268 -0.009395
C64   C     C_R   0.992896 0.504497 0.426325 -0.003889
C65   C     C_R   0.511601 0.007104 0.426325 -0.003888
C66   C     C_R   0.495503 0.488400 0.426325 -0.003888
C67   C     C_R   0.626726 0.021825 0.537251 0.027778
C68   C     C_R   0.978176 0.604902 0.537251 0.027778
C69   C     C_R   0.395097 0.373274 0.537251 0.027778
C70   C     C_R   0.015259 0.623741 0.464350 0.030157
C71   C     C_R   0.608483 0.984742 0.464350 0.030158
C72   C     C_R   0.376259 0.391518 0.464350 0.030157
Cr1   Cr    Cr6+3 0.768550 0.541320 0.250660 0.999841
Cr2   Cr    Cr6+3 0.458680 0.227230 0.250660 0.999841
Cr3   Cr    Cr6+3 0.772770 0.231450 0.250660 0.999841
Cr4   Cr    Cr6+3 0.541320 0.768550 0.749340 1.001224
Cr5   Cr    Cr6+3 0.227230 0.458680 0.749340 1.001227
Cr6   Cr    Cr6+3 0.231450 0.772770 0.749340 1.001224
H1    H     H_    0.740190 0.111669 0.050614 0.153551
H2    H     H_    0.888330 0.628520 0.050613 0.153551
H3    H     H_    0.371479 0.259810 0.050613 0.153551
H4    H     H_    0.922144 0.639815 0.924274 0.132130
H5    H     H_    0.717671 0.077855 0.924274 0.132129
H6    H     H_    0.360184 0.282328 0.924274 0.132129
H7    H     H_    0.251289 0.989881 0.877987 0.129404
H8    H     H_    0.010119 0.261408 0.877988 0.129403
H9    H     H_    0.738593 0.748712 0.877987 0.129403
H10   H     H_    0.086228 0.351554 0.136368 0.126755
H11   H     H_    0.265325 0.913773 0.136367 0.126755
H12   H     H_    0.648448 0.734675 0.136368 0.126755
H13   H     H_    0.045715 0.906369 0.949624 0.099665
H14   H     H_    0.093632 0.139347 0.949625 0.099665
H15   H     H_    0.860654 0.954286 0.949625 0.099665
H16   H     H_    0.128145 0.180162 0.079441 0.118686
H17   H     H_    0.052016 0.871856 0.079440 0.118686
H18   H     H_    0.819840 0.947984 0.079440 0.118686
H19   H     H_    0.338789 0.042082 0.436754 0.153576
H20   H     H_    0.957917 0.296707 0.436754 0.153577
H21   H     H_    0.703294 0.661211 0.436754 0.153576
H22   H     H_    0.007566 0.318665 0.565117 0.164401
H23   H     H_    0.311099 0.992433 0.565117 0.164397
H24   H     H_    0.681336 0.688901 0.565117 0.164400
H25   H     H_    0.879174 0.961762 0.579903 0.092425
H26   H     H_    0.038236 0.917412 0.579901 0.092424
H27   H     H_    0.082586 0.120824 0.579901 0.092428
H28   H     H_    0.114926 0.966324 0.455452 0.113759
H29   H     H_    0.851397 0.885073 0.455453 0.113759
H30   H     H_    0.033675 0.148602 0.455451 0.113759
O1    O     O_R   0.910960 0.572410 0.171010 -0.526466
O2    O     O_R   0.427590 0.338550 0.171010 -0.526467
O3    O     O_R   0.661450 0.089040 0.171010 -0.526466
O4    O     O_R   0.572410 0.910960 0.828990 -0.517612
O5    O     O_R   0.338550 0.427590 0.828990 -0.517611
O6    O     O_R   0.089040 0.661450 0.828990 -0.517612
O7    O     O_R   0.639750 0.528530 0.175600 -0.514923
O8    O     O_R   0.471470 0.111220 0.175600 -0.514923
O9    O     O_R   0.888780 0.360250 0.175600 -0.514923
O10   O     O_R   0.528530 0.639750 0.824400 -0.515741
O11   O     O_R   0.111220 0.471470 0.824400 -0.515741
O12   O     O_R   0.360250 0.888780 0.824400 -0.515740
O13   O     O_R   0.909330 0.572400 0.331540 -0.478691
O14   O     O_R   0.427600 0.336930 0.331540 -0.478691
O15   O     O_R   0.663070 0.090670 0.331540 -0.478691
O16   O     O_R   0.572400 0.909330 0.668460 -0.479470
O17   O     O_R   0.336930 0.427600 0.668460 -0.479467
O18   O     O_R   0.090670 0.663070 0.668460 -0.479470
O19   O     O_R   0.638240 0.528520 0.324410 -0.522473
O20   O     O_R   0.471480 0.109720 0.324410 -0.522473
O21   O     O_R   0.890280 0.361760 0.324410 -0.522473
O22   O     O_R   0.528520 0.638240 0.675590 -0.520119
O23   O     O_R   0.109720 0.471480 0.675590 -0.520119
O24   O     O_R   0.361760 0.890280 0.675590 -0.520120
O25   O     O_3   0.666667 0.333333 0.250630 -0.251355
O26   O     O_3   0.333333 0.666667 0.749370 -0.246720
N1    N     N_2   0.798618 0.118053 0.638653 -0.488851
H31   H     H_    0.888667 0.127881 0.659564 0.230411
C73   C     C_3   0.764508 0.221460 0.660779 -0.300335
H32   H     H_    0.677715 0.176195 0.699192 0.145143
H33   H     H_    0.739077 0.265770 0.614265 0.131498
H34   H     H_    0.852677 0.304620 0.690055 0.136174
N2    N     N_2   0.881949 0.680566 0.638652 -0.488849
H35   H     H_    0.872118 0.760786 0.659562 0.230409
C74   C     C_3   0.778540 0.543048 0.660778 -0.300335
H36   H     H_    0.695380 0.548057 0.690054 0.136173
H37   H     H_    0.823805 0.501521 0.699192 0.145143
H38   H     H_    0.734231 0.473307 0.614264 0.131498
N3    N     N_2   0.319433 0.201383 0.638652 -0.488840
H39   H     H_    0.239214 0.111322 0.659558 0.230404
C75   C     C_3   0.456951 0.235492 0.660777 -0.300333
H40   H     H_    0.498480 0.322284 0.699191 0.145143
H41   H     H_    0.526691 0.260923 0.614263 0.131497
H42   H     H_    0.451942 0.147322 0.690053 0.136172
N4    N     N_2   0.119353 0.795238 0.362672 -0.477747
H43   H     H_    0.130832 0.886870 0.343084 0.236215
C76   C     C_3   0.225675 0.765930 0.340155 -0.299289
H44   H     H_    0.304776 0.853946 0.308936 0.137526
H45   H     H_    0.181208 0.676453 0.303462 0.144616
H46   H     H_    0.274960 0.746526 0.386625 0.131871
N5    N     N_2   0.675887 0.880649 0.362673 -0.477746
H47   H     H_    0.756040 0.869171 0.343085 0.236214
C77   C     C_3   0.540257 0.774326 0.340156 -0.299289
H48   H     H_    0.549172 0.695225 0.308937 0.137526
H49   H     H_    0.495246 0.818792 0.303463 0.144616
H50   H     H_    0.471567 0.725040 0.386625 0.131871
N6    N     N_2   0.204762 0.324114 0.362672 -0.477746
H51   H     H_    0.113131 0.243961 0.343084 0.236215
C78   C     C_3   0.234070 0.459744 0.340155 -0.299289
H52   H     H_    0.323547 0.504755 0.303462 0.144616
H53   H     H_    0.253474 0.528433 0.386624 0.131871
H54   H     H_    0.146054 0.450829 0.308936 0.137526

loop_
_geom_bond_atom_site_label_1
_geom_bond_atom_site_label_2
_ccdc_geom_bond_type
C2    C35   S    
C74   H38   S    
C39   C51   A    
N6    H51   S    
C55   C59   A    
C5    O6    A    
C76   H45   S    
C36   C42   A    
N3    H39   S    
Cr3   O9    S    
C77   H48   S    
C53   C59   A    
N1    H31   S    
C78   H53   S    
Cr6   O6    S    
C7    C11   A    
C73   H33   S    
C17   C23   A    
C5    O11   A    
Cr3   O15   S    
C40   C52   A    
N3    C75   S    
C54   H12   S    
C75   H41   S    
C4    C33   S    
C43   H1    S    
C74   H36   S    
Cr2   O25   S    
C74   H37   S    
Cr5   O23   S    
C8    H20   S    
C9    C66   A    
C55   H13   S    
C3    O9    A    
C46   H4    S    
Cr4   O22   S    
Cr2   O20   S    
C63   C69   A    
N5    C77   S    
C51   C57   A    
C32   C38   A    
C39   C42   A    
C35   C43   A    
C25   O14   A    
C28   O22   A    
C5    C32   S    
C32   C46   A    
C6    C31   S    
C14   N2    S    
C23   H29   S    
C9    H21   S    
C38   C40   A    
C57   H15   S    
C29   O18   A    
C76   H46   S    
C37   C41   A    
C13   N1    S    
C4    O10   A    
N6    C78   S    
C10   C62   A    
C59   H17   S    
Cr5   O5    S    
C6    O12   A    
C77   H49   S    
C18   N6    S    
C44   C46   A    
C78   H54   S    
C18   C72   A    
C15   C69   A    
C73   H34   S    
C66   C72   A    
C2    O3    A    
C76   H44   S    
C13   C19   A    
Cr4   O16   S    
C49   H7    S    
C4    O5    A    
C44   H2    S    
C16   C70   A    
C18   C24   A    
C75   H42   S    
C51   H9    S    
C78   H52   S    
C12   C63   A    
Cr4   O26   S    
C19   C23   A    
C57   C60   A    
C54   C60   A    
C3    C34   S    
C11   C61   A    
Cr1   O19   S    
C19   H25   S    
Cr4   O10   S    
C31   C37   A    
C69   C72   A    
Cr6   O12   S    
C12   H24   S    
C14   C20   A    
C1    O2    A    
C7    C65   A    
C37   C49   A    
C61   C67   A    
N5    H47   S    
C52   H10   S    
Cr4   O4    S    
Cr2   O8    S    
C34   C44   A    
C36   C45   A    
C11   H23   S    
C33   C39   A    
C26   O20   A    
C10   H22   S    
Cr6   O26   S    
C41   C53   A    
C35   C41   A    
C52   C58   A    
C8    C64   A    
C20   H26   S    
C60   H18   S    
C22   H28   S    
Cr2   O14   S    
C30   O16   A    
C17   C71   A    
C64   C70   A    
C53   H11   S    
C27   O21   A    
C34   C40   A    
C21   C24   A    
N4    C76   S    
Cr5   O26   S    
Cr6   O18   S    
Cr1   O25   S    
C77   H50   S    
Cr5   O17   S    
C28   O17   A    
Cr6   O24   S    
C13   C67   A    
C45   C48   A    
N1    C73   S    
C29   C62   S    
C16   C22   A    
C7    H19   S    
C26   C65   S    
C6    O4    A    
C8    C10   A    
C45   H3    S    
C25   C66   S    
C20   C22   A    
Cr5   O11   S    
C49   C55   A    
Cr2   O2    S    
C2    O8    A    
Cr3   O25   S    
Cr1   O1    S    
C38   C50   A    
C73   H32   S    
Cr3   O3    S    
Cr1   O7    S    
C62   C68   A    
N2    C74   S    
C25   O19   A    
C65   C71   A    
C75   H40   S    
C42   C54   A    
C15   N3    S    
C29   O23   A    
C3    O1    A    
C30   O24   A    
C56   C58   A    
C67   C71   A    
C58   H16   S    
C17   N5    S    
C9    C12   A    
C50   C56   A    
C27   C64   S    
C50   H8    S    
C47   H5    S    
C28   C63   S    
C48   H6    S    
C15   C21   A    
C68   C70   A    
C26   O15   A    
C30   C61   S    
C16   N4    S    
C27   O13   A    
C33   C48   A    
C14   C68   A    
C31   C47   A    
C1    O7    A    
N4    H43   S    
N2    H35   S    
C56   H14   S    
C43   C47   A    
C21   H27   S    
C24   H30   S    
Cr3   O21   S    
C1    C36   S    
Cr1   O13   S    
