data_mof_unit_23020.cif
_audit_creation_date              2012-12-11T17:08:32-0500
_audit_creation_method            fapswitch 2.2
_symmetry_space_group_name_H-M    P1
_symmetry_Int_Tables_number       1
_space_group_crystal_system       triclinic
_cell_length_a                    6.963748
_cell_length_b                    14.513163
_cell_length_c                    16.092408
_cell_angle_alpha                 89.992228
_cell_angle_beta                  89.99835
_cell_angle_gamma                 89.997105
_cell_volume                      1626.39544716

loop_
_atom_site_label
_atom_site_type_symbol
_atom_type_description
_atom_site_fract_x
_atom_site_fract_y
_atom_site_fract_z
_atom_type_partial_charge
O1    O     O_R   0.505700 0.583890 0.413310 -0.536459
O2    O     O_R   0.175960 0.594920 0.586080 -0.543414
O3    O     O_R   0.005660 0.416110 0.586690 -0.536952
C1    C     C_R   0.344688 0.616921 0.614841 0.690882
O4    O     O_R   0.175980 0.594920 0.413930 -0.546488
O5    O     O_R   0.005680 0.416110 0.413310 -0.531726
C2    C     C_R   0.344706 0.616900 0.385153 0.706202
O6    O     O_R   0.505680 0.583890 0.586690 -0.537798
O7    O     O_3   0.339200 0.441330 0.500000 -0.365478
V1    V     V_3+5 0.064350 0.510880 0.500000 1.394830
O8    O     O_R   0.675960 0.405080 0.413920 -0.534575
C3    C     C_R   0.844744 0.385516 0.383299 0.695336
O9    O     O_R   0.675940 0.405080 0.586070 -0.543742
C4    C     C_R   0.844717 0.383063 0.614805 0.694026
V2    V     V_3+5 0.564340 0.489120 0.500000 1.405100
O10   O     O_3   0.839360 0.558670 0.500000 -0.373957
C5    C     C_R   0.007026 0.317330 0.741355 0.099488
C6    C     C_R   0.852666 0.317597 0.685478 -0.112451
C7    C     C_R   0.701079 0.255754 0.701213 -0.178888
H1    H     H_    0.578576 0.253544 0.660084 0.133223
C8    C     C_R   0.712287 0.191554 0.766740 -0.177854
H2    H     H_    0.597471 0.142101 0.774270 0.127506
C9    C     C_R   0.875735 0.187029 0.818326 -0.111014
C10   C     C_R   0.018559 0.253547 0.805961 0.104764
C11   C     C_3   0.229146 0.241179 0.794088 -0.408812
C12   C     C_3   0.216706 0.311073 0.724009 -0.399256
H3    H     H_    0.265229 0.170574 0.772398 0.166033
H4    H     H_    0.313247 0.266132 0.848306 0.177074
H5    H     H_    0.246382 0.281244 0.661699 0.170818
H6    H     H_    0.292847 0.376620 0.737864 0.168155
C13   C     C_R   0.741217 0.179405 0.245601 0.092294
C14   C     C_R   0.882795 0.183842 0.184063 -0.176015
C15   C     C_R   0.023590 0.252906 0.192047 -0.181848
H7    H     H_    0.137347 0.257860 0.146347 0.143278
C16   C     C_R   0.009283 0.322042 0.253454 0.335491
C17   C     C_R   0.858093 0.318764 0.313510 -0.197223
C18   C     C_R   0.730659 0.244167 0.309090 0.050302
C19   C     C_3   0.516239 0.243159 0.307925 -0.371487
C20   C     C_3   0.528255 0.172308 0.238503 -0.385653
H8    H     H_    0.455159 0.310145 0.287645 0.220937
H9    H     H_    0.454835 0.214952 0.366388 0.165107
H10   H     H_    0.473493 0.198229 0.177963 0.181648
H11   H     H_    0.474416 0.103200 0.257063 0.159783
C21   C     C_R   0.508969 0.747545 0.689541 0.101723
C22   C     C_R   0.352679 0.687456 0.681423 -0.110532
C23   C     C_R   0.200334 0.697925 0.738225 -0.178077
H12   H     H_    0.077172 0.652891 0.734644 0.130918
C24   C     C_R   0.211957 0.761835 0.804032 -0.178592
H13   H     H_    0.096303 0.764952 0.848752 0.129893
C25   C     C_R   0.376917 0.816669 0.815346 -0.109111
C26   C     C_R   0.520880 0.810473 0.754850 0.097642
C27   C     C_3   0.730586 0.794164 0.765404 -0.414772
C28   C     C_3   0.717691 0.725989 0.693988 -0.396001
H14   H     H_    0.763923 0.761087 0.826002 0.171074
H15   H     H_    0.817142 0.856316 0.750337 0.171888
H16   H     H_    0.744330 0.653460 0.713017 0.166905
H17   H     H_    0.796161 0.748884 0.637483 0.173190
C29   C     C_R   0.508904 0.747587 0.310518 0.098489
C30   C     C_R   0.352714 0.687420 0.318565 -0.110361
C31   C     C_R   0.200453 0.697824 0.261718 -0.167490
H18   H     H_    0.077366 0.652729 0.265256 0.127198
C32   C     C_R   0.212078 0.761771 0.195931 -0.176066
H19   H     H_    0.096503 0.764851 0.151171 0.129560
C33   C     C_R   0.376956 0.816692 0.184691 -0.110559
C34   C     C_R   0.520804 0.810560 0.245237 0.098122
C35   C     C_3   0.730583 0.794395 0.234764 -0.412307
C36   C     C_3   0.717700 0.726147 0.306141 -0.396125
H20   H     H_    0.816920 0.856594 0.249897 0.171595
H21   H     H_    0.764164 0.761397 0.174165 0.171712
H22   H     H_    0.795996 0.749035 0.362684 0.172148
H23   H     H_    0.744567 0.653649 0.287090 0.167095
O11   O     O_R   0.229000 0.916070 0.913330 -0.540131
O12   O     O_R   0.558770 0.905070 0.086080 -0.539435
O13   O     O_R   0.729000 0.083900 0.086690 -0.535321
C37   C     C_R   0.389756 0.882857 0.114677 0.695020
O14   O     O_R   0.558720 0.905070 0.913930 -0.540038
O15   O     O_R   0.728960 0.083900 0.913310 -0.539396
C38   C     C_R   0.389698 0.882832 0.885365 0.692156
O16   O     O_R   0.229050 0.916070 0.086710 -0.539931
O17   O     O_3   0.395460 0.058650 0.000020 -0.369672
V3    V     V_3+5 0.670340 0.989120 0.000000 1.394109
O18   O     O_R   0.058670 0.094960 0.913900 -0.539798
C39   C     C_R   0.889617 0.116820 0.885041 0.696017
O19   O     O_R   0.058720 0.094960 0.086050 -0.543926
C40   C     C_R   0.890012 0.116859 0.114764 0.719567
V4    V     V_3+5 0.170330 0.010930 0.999970 1.390763
O20   O     O_3   0.895340 0.941350 0.999980 -0.372233
O21   O     O_3   0.137704 0.394216 0.248428 -0.657075
H24   H     H_    0.075986 0.450428 0.270752 0.278976

loop_
_geom_bond_atom_site_label_1
_geom_bond_atom_site_label_2
_ccdc_geom_bond_type
C35   H20   S    
C4    C6    S    
C16   C17   A    
C1    O6    A    
C22   C23   A    
C21   C22   A    
C11   H4    S    
C32   H19   S    
C9    C39   S    
C5    C12   S    
C17   C18   A    
C7    C8    A    
O19   V4    S    
O5    C3    A    
C19   C20   S    
C35   H21   S    
O15   C39   A    
V2    O10   S    
C31   C32   A    
C6    C7    A    
O12   V3    S    
C32   C33   A    
O8    V2    S    
C21   C28   S    
C7    H1    S    
O17   V4    S    
C9    C10   A    
O1    V2    S    
C3    C17   S    
O7    V1    S    
C27   H15   S    
C24   C25   A    
C35   C36   S    
C30   C31   A    
O9    C4    A    
O12   C37   A    
C25   C38   S    
C2    C30   S    
C27   H14   S    
C5    C6    A    
C20   H10   S    
C1    C22   S    
C23   C24   A    
C5    C10   A    
C26   C27   S    
C10   C11   S    
C19   H9    S    
O4    C2    A    
C28   H17   S    
V4    O20   S    
C20   H11   S    
C25   C26   A    
C29   C30   A    
O18   V4    S    
C13   C18   A    
C31   H18   S    
O2    C1    A    
C18   C19   S    
C16   O21   S    
C29   C34   A    
C13   C14   A    
O15   V3    S    
C15   H7    S    
O19   C40   A    
V3    O20   S    
O3    C4    A    
C21   C26   A    
C24   H13   S    
C12   H6    S    
O6    V2    S    
O9    V2    S    
O13   V3    S    
O2    V1    S    
C27   C28   S    
C28   H16   S    
C23   H12   S    
O1    C2    A    
O14   C38   A    
O17   V3    S    
O14   V3    S    
O5    V1    S    
O11   V4    S    
O8    C3    A    
C11   H3    S    
C36   H22   S    
C14   C15   A    
C8    C9    A    
C11   C12   S    
O4    V1    S    
O3    V1    S    
V1    O10   S    
C33   C34   A    
C19   H8    S    
C14   C40   S    
C15   C16   A    
C33   C37   S    
C13   C20   S    
C36   H23   S    
C34   C35   S    
O13   C40   A    
O7    V2    S    
C29   C36   S    
O21   H24   S    
C12   H5    S    
O18   C39   A    
O11   C38   A    
C8    H2    S    
C37   O16   A    
O16   V4    S    
