data_mof_unit_66319.cif
_audit_creation_date              2012-12-10T16:55:28-0500
_audit_creation_method            fapswitch 2.2
_symmetry_space_group_name_H-M    P1
_symmetry_Int_Tables_number       1
_space_group_crystal_system       triclinic
_cell_length_a                    21.798969
_cell_length_b                    21.792232
_cell_length_c                    22.378699
_cell_angle_alpha                 120.179495
_cell_angle_beta                  120.582416
_cell_angle_gamma                 87.588906
_cell_volume                      7578.4492802

loop_
_atom_site_label
_atom_site_type_symbol
_atom_type_description
_atom_site_fract_x
_atom_site_fract_y
_atom_site_fract_z
_atom_type_partial_charge
C1    C     C_R   0.003595 0.382852 0.504133 0.909615
C2    C     C_R   0.996403 0.617146 0.495864 0.909273
C3    C     C_3   0.286587 0.838351 0.049503 -0.469394
C4    C     C_3   0.749746 0.163774 0.950466 -0.462299
C5    C     C_3   0.232836 0.793182 0.952108 0.731556
C6    C     C_3   0.803438 0.211711 0.047972 0.729262
C7    C     C_1   0.336172 0.836962 0.174270 -0.001173
C8    C     C_1   0.662775 0.163227 0.825713 -0.001812
C9    C     C_1   0.162270 0.663094 0.825722 0.092223
C10   C     C_1   0.837305 0.337237 0.174284 0.082723
C11   C     C_1   0.125434 0.625581 0.750872 -0.135377
C12   C     C_1   0.874473 0.374557 0.249138 -0.140857
C13   C     C_2   0.990986 0.247450 0.558945 0.479892
C14   C     C_2   0.009007 0.752545 0.441046 0.480559
C15   C     C_2   0.982999 0.182497 0.495713 -0.347430
C16   C     C_2   0.017002 0.817500 0.504283 -0.348410
C17   C     C_2   0.982944 0.309428 0.548607 -0.336055
C18   C     C_2   0.017048 0.690565 0.451380 -0.334136
C19   C     C_2   0.016243 0.324523 0.518845 -0.198410
C20   C     C_2   0.983753 0.675473 0.481147 -0.197266
C21   C     C_R   0.617701 0.997195 0.497450 0.796700
C22   C     C_R   0.382291 0.002796 0.502529 0.798586
C23   C     C_R   0.081127 0.581117 0.662172 0.893787
C24   C     C_R   0.918868 0.418876 0.337832 0.895853
C25   C     C_R   0.418765 0.919068 0.337815 0.902783
C26   C     C_R   0.581250 0.080931 0.662181 0.902657
C27   C     C_R   0.880936 0.003868 0.500099 0.920835
C28   C     C_R   0.119065 0.996132 0.499904 0.920981
C29   C     C_R   0.995248 0.118738 0.499422 0.970100
C30   C     C_R   0.004753 0.881261 0.500578 0.970192
C31   C     C_2   0.748695 0.991713 0.432334 -0.138972
C32   C     C_2   0.251330 0.008414 0.567710 -0.138501
C33   C     C_2   0.816398 0.015864 0.501956 -0.237654
C34   C     C_2   0.183611 0.984135 0.498061 -0.237386
C35   C     C_2   0.684370 0.999915 0.437637 -0.035803
C36   C     C_2   0.315667 0.000227 0.562430 -0.035486
C37   C     C_2   0.679759 0.987346 0.488799 0.242244
C38   C     C_2   0.320205 0.012619 0.511122 0.243944
C39   C     C_3   0.277415 0.681929 0.951058 0.203656
C40   C     C_3   0.707824 0.284214 0.049354 0.187478
C41   C     C_3   0.160435 0.700056 0.950352 0.230990
C42   C     C_3   0.813471 0.330769 0.049187 0.231710
C43   C     C_3   0.207576 0.756395 0.048654 -0.273294
C44   C     C_3   0.769376 0.276886 0.950819 -0.283417
C45   C     C_1   0.374088 0.874941 0.249118 -0.165191
C46   C     C_1   0.625468 0.125104 0.750870 -0.165595
C47   C     C_3   0.206787 0.708932 0.917397 0.031387
C48   C     C_3   0.792144 0.291759 0.082595 0.044434
C49   C     C_3   0.324751 0.727991 0.049134 -0.285118
C50   C     C_3   0.658524 0.238106 0.951214 -0.276622
C51   C     C_3   0.289485 0.789650 0.082631 0.049257
C52   C     C_3   0.708499 0.210805 0.917349 0.047607
H1    H     H_    0.382271 0.755570 0.075345 0.167564
H2    H     H_    0.617426 0.188396 0.925507 0.168412
H3    H     H_    0.268638 0.887480 0.078239 0.210856
H4    H     H_    0.781219 0.137993 0.922110 0.180448
H5    H     H_    0.964045 0.175023 0.436503 0.123581
H6    H     H_    0.035960 0.824973 0.563493 0.123236
H7    H     H_    0.948788 0.342550 0.565257 0.184278
H8    H     H_    0.051200 0.657440 0.434725 0.183567
H9    H     H_    0.740462 0.966516 0.371805 0.166752
H10   H     H_    0.259573 0.033721 0.628257 0.167203
H11   H     H_    0.825159 0.047265 0.563147 0.189433
H12   H     H_    0.174845 0.952641 0.436869 0.190388
H13   H     H_    0.258426 0.622370 0.925083 0.171893
H14   H     H_    0.700691 0.340750 0.074884 0.176274
H15   H     H_    0.184098 0.804210 0.065059 0.147938
H16   H     H_    0.808186 0.251652 0.933674 0.141253
H17   H     H_    0.343661 0.860743 0.070029 0.177828
H18   H     H_    0.708211 0.116887 0.929224 0.205528
O1    O     O_R   0.051090 0.409550 0.500010 -0.615085
O2    O     O_R   0.948910 0.590450 0.499990 -0.616085
O3    O     O_R   0.874830 0.965310 0.430660 -0.625516
O4    O     O_R   0.125170 0.034690 0.569340 -0.625680
O5    O     O_R   0.034670 0.125130 0.569340 -0.553233
O6    O     O_R   0.965330 0.874870 0.430660 -0.552726
O7    O     O_R   0.965310 0.055770 0.430620 -0.640307
O8    O     O_R   0.034690 0.944230 0.569380 -0.640772
O9    O     O_R   0.948930 0.409540 0.500030 -0.616400
O10   O     O_R   0.051070 0.590460 0.499970 -0.616579
O11   O     O_R   0.112510 0.561440 0.622850 -0.596895
O12   O     O_R   0.887490 0.438560 0.377150 -0.602389
O13   O     O_R   0.010350 0.561430 0.622870 -0.616624
O14   O     O_R   0.989650 0.438570 0.377130 -0.613079
O15   O     O_R   0.590290 0.948920 0.499990 -0.611200
O16   O     O_R   0.409710 0.051080 0.500010 -0.610180
O17   O     O_R   0.590320 0.051050 0.499970 -0.618323
O18   O     O_R   0.409680 0.948950 0.500030 -0.617747
O19   O     O_R   0.438380 0.887500 0.377150 -0.603374
O20   O     O_R   0.561620 0.112500 0.622850 -0.603628
O21   O     O_R   0.438400 0.989630 0.377130 -0.610310
O22   O     O_R   0.561600 0.010370 0.622870 -0.610452
O23   O     O_R   0.944190 0.034670 0.569380 -0.613567
O24   O     O_R   0.055810 0.965330 0.430620 -0.612812
Zn1   Zn    Zn3+2 0.068220 0.500010 0.499990 1.018371
Zn2   Zn    Zn3+2 0.931780 0.499990 0.500010 1.013120
Zn3   Zn    Zn3+2 0.499800 0.931810 0.500010 1.014764
Zn4   Zn    Zn3+2 0.500200 0.068190 0.499990 1.015233
Zn5   Zn    Zn3+2 0.046310 0.046310 0.592620 1.026619
Zn6   Zn    Zn3+2 0.953690 0.953690 0.407380 1.028699
C53   C     C_1   0.333814 0.679367 0.079299 0.185769
N1    N     N_1   0.341070 0.641287 0.102955 -0.161005
C54   C     C_1   0.613338 0.280829 0.920618 0.182625
N2    N     N_1   0.577813 0.314211 0.896627 -0.159496
O25   O     O_3   0.319715 0.683422 0.920339 -0.700379
H19   H     H_    0.355120 0.733392 0.957246 0.377308
O26   O     O_3   0.685269 0.254882 0.081115 -0.715679
H20   H     H_    0.668703 0.200049 0.044082 0.380725
O27   O     O_3   0.003633 0.255036 0.629724 -0.729867
H21   H     H_    0.007833 0.307117 0.668173 0.342340
O28   O     O_3   0.996352 0.744958 0.370263 -0.727951
H22   H     H_    0.992145 0.692875 0.331810 0.343805
C55   C     C_1   0.072957 0.290737 0.510698 0.216950
N3    N     N_1   0.118088 0.264002 0.504254 -0.165570
C56   C     C_1   0.927041 0.709260 0.489297 0.216180
N4    N     N_1   0.881911 0.735996 0.495743 -0.167309
C57   C     C_1   0.625518 0.016776 0.382786 0.143363
N5    N     N_1   0.578482 0.030162 0.338887 -0.173018
C58   C     C_1   0.374635 0.983621 0.617490 0.145284
N6    N     N_1   0.421765 0.970443 0.661558 -0.171551
O29   O     O_3   0.729589 0.955726 0.525474 -0.754661
H23   H     H_    0.722139 0.955356 0.565478 0.345362
O30   O     O_3   0.270281 0.044061 0.474246 -0.753625
H24   H     H_    0.277727 0.044340 0.434197 0.345851
C59   C     C_1   0.088464 0.716245 0.913690 0.331237
N7    N     N_1   0.032109 0.728706 0.884998 -0.182148
C60   C     C_1   0.894166 0.347195 0.085030 0.365587
N8    N     N_1   0.957222 0.360239 0.113078 -0.175364
O31   O     O_3   0.141099 0.625605 0.924105 -0.760796
H25   H     H_    0.184063 0.615314 0.960391 0.341828
O32   O     O_3   0.799390 0.400650 0.075978 -0.764204
H26   H     H_    0.745651 0.394283 0.040444 0.342504
C61   C     C_1   0.202842 0.725121 0.092092 0.253533
N9    N     N_1   0.199109 0.700814 0.126122 -0.163733
C62   C     C_1   0.740143 0.315474 0.907594 0.258953
N10   N     N_1   0.717372 0.345548 0.873731 -0.160096
O33   O     O_3   0.269824 0.800870 0.918657 -0.764755
H27   H     H_    0.281387 0.853766 0.938387 0.352328
O34   O     O_3   0.787125 0.176969 0.079148 -0.770870
H28   H     H_    0.828805 0.200379 0.138709 0.357166
O35   O     O_3   0.171634 0.822130 0.930801 -0.801916
H29   H     H_    0.143143 0.799857 0.869676 0.346361
O36   O     O_3   0.877534 0.216135 0.071617 -0.812654
H30   H     H_    0.883645 0.165756 0.054548 0.356684

loop_
_geom_bond_atom_site_label_1
_geom_bond_atom_site_label_2
_ccdc_geom_bond_type
O3    Zn6   S    
C21   O17   A    
C53   N1    T    
C25   C45   S    
C39   H13   S    
C14   C18   S    
O28   H22   S    
C28   O4    A    
C4    H18   S    
C62   N10   T    
C27   C33   S    
C5    C47   S    
C1    O1    A    
C6    C48   S    
C4    C52   S    
C32   C36   S    
C3    H17   S    
O31   H25   S    
C44   H16   S    
C49   C53   S    
O11   Zn1   S    
C49   H1    S    
O1    Zn1   S    
C19   C55   S    
C26   O22   A    
O36   H30   S    
C22   C38   S    
C24   O12   A    
O7    Zn6   S    
C28   O24   A    
C6    O34   S    
C43   C61   S    
C36   C58   S    
C31   H9    S    
C13   O27   S    
C3    H3    S    
C49   C51   S    
C50   C52   S    
O26   H20   S    
C31   C33   D    
C60   N8    T    
C42   O32   S    
C22   O18   A    
O23   Zn5   S    
C18   C20   D    
O18   Zn3   S    
O17   Zn4   S    
C44   C52   S    
C44   C62   S    
C28   C34   S    
C50   C54   S    
C40   H14   S    
C4    H4    S    
C15   H5    S    
C42   C44   S    
C2    O2    A    
C10   C12   T    
C34   H12   S    
O22   Zn3   S    
C15   C29   S    
C35   C57   S    
C14   O28   S    
C21   O15   A    
C25   O21   A    
O12   Zn2   S    
C2    C20   S    
C41   C59   S    
O30   H24   S    
O15   Zn3   S    
C4    C6    S    
C3    C51   S    
C42   C48   S    
C1    C19   S    
O19   Zn3   S    
O14   Zn1   S    
C30   O8    A    
C30   O6    A    
C5    O35   S    
O24   Zn6   S    
C33   H11   S    
O5    Zn5   S    
C41   C47   S    
C21   C37   S    
C16   H6    S    
O10   Zn1   S    
C9    C11   T    
O29   H23   S    
C23   O13   A    
C42   C60   S    
C17   H7    S    
C40   O26   S    
C37   O29   S    
C18   H8    S    
C39   C49   S    
C9    C47   S    
C13   C15   D    
C10   C48   S    
C61   N9    T    
C1    O9    A    
C14   C16   D    
C27   O23   A    
C26   O20   A    
O32   H26   S    
C7    C45   T    
O8    Zn5   S    
C39   C47   S    
C55   N3    T    
O33   H27   S    
C39   O25   S    
C8    C52   S    
C40   C48   S    
C23   O11   A    
C35   C37   D    
C41   C43   S    
C38   O30   S    
C3    C5    S    
C20   C56   S    
O34   H28   S    
C5    O33   S    
O4    Zn5   S    
C29   O5    A    
O6    Zn6   S    
O25   H19   S    
C12   C24   S    
C25   O19   A    
C13   C17   S    
C36   C38   D    
C24   O14   A    
C32   H10   S    
O9    Zn2   S    
C50   H2    S    
C27   O3    A    
C57   N5    T    
C41   O31   S    
C43   C51   S    
C59   N7    T    
C40   C50   S    
O13   Zn2   S    
C11   C23   S    
C17   C19   D    
C31   C35   S    
C22   O16   A    
O21   Zn4   S    
O16   Zn4   S    
C8    C46   T    
C2    O10   A    
C26   C46   S    
C7    C51   S    
O2    Zn2   S    
C29   O7    A    
C43   H15   S    
C58   N6    T    
O27   H21   S    
C54   N2    T    
C6    O36   S    
O35   H29   S    
C16   C30   S    
O20   Zn4   S    
C56   N4    T    
C32   C34   D    
