data_mof_unit_15258.cif
_audit_creation_date              2012-12-10T20:39:56-0500
_audit_creation_method            fapswitch 2.2
_symmetry_space_group_name_H-M    P1
_symmetry_Int_Tables_number       1
_space_group_crystal_system       triclinic
_cell_length_a                    22.391081
_cell_length_b                    10.942348
_cell_length_c                    10.00257
_cell_angle_alpha                 88.821866
_cell_angle_beta                  90.720023
_cell_angle_gamma                 91.271488
_cell_volume                      2449.43850056

loop_
_atom_site_label
_atom_site_type_symbol
_atom_type_description
_atom_site_fract_x
_atom_site_fract_y
_atom_site_fract_z
_atom_type_partial_charge
C1    C     C_R   0.499587 0.260648 0.501347 0.849877
C2    C     C_R   0.962864 0.255334 0.260805 -0.162624
C3    C     C_R   0.026088 0.254495 0.261857 -0.110614
C4    C     C_R   0.059293 0.366515 0.267630 -0.073006
C5    C     C_R   0.028582 0.478129 0.260724 0.015713
C6    C     C_R   0.061154 0.589598 0.246411 -0.109946
C7    C     C_R   0.030361 0.700500 0.226423 -0.045740
C8    C     C_R   0.967644 0.700651 0.239338 -0.060716
C9    C     C_R   0.122074 0.373456 0.288628 0.494990
C10   C     C_R   0.123767 0.584625 0.257434 0.528275
C11   C     C_R   0.234168 0.606274 0.415817 -0.118621
C12   C     C_R   0.388456 0.501924 0.498617 0.909115
C13   C     C_R   0.293074 0.612673 0.463070 -0.027877
C14   C     C_R   0.323066 0.502396 0.490995 -0.216602
C15   C     C_R   0.290222 0.390446 0.493451 -0.135287
C16   C     C_R   0.227909 0.392302 0.469504 0.046635
C17   C     C_R   0.204394 0.493093 0.396286 0.078978
C18   C     C_R   0.765936 0.377415 0.470302 0.010711
C19   C     C_R   0.703730 0.380077 0.487248 -0.097241
C20   C     C_R   0.676578 0.494498 0.498250 -0.144278
C21   C     C_R   0.711956 0.602764 0.503589 -0.194254
C22   C     C_R   0.773402 0.597307 0.472276 -0.039150
C23   C     C_R   0.502749 0.739367 0.498364 0.923623
C24   C     C_R   0.795817 0.485543 0.424545 0.171278
C25   C     C_R   0.498509 0.057117 0.617590 0.078562
C26   C     C_R   0.500633 0.129204 0.501623 -0.086348
C27   C     C_R   0.506089 0.069638 0.379346 -0.162993
C28   C     C_R   0.507845 0.942172 0.373387 -0.090030
C29   C     C_R   0.505382 0.871399 0.494444 -0.108597
C30   C     C_R   0.502176 0.934267 0.613442 0.041672
C31   C     C_3   0.500605 0.914578 0.762426 -0.311140
C32   C     C_3   0.494826 0.057172 0.768319 -0.273663
C33   C     C_R   0.447775 0.502632 0.068814 0.248009
C34   C     C_R   0.611455 0.500331 0.500289 0.801758
C35   C     C_R   0.551634 0.517304 0.072651 -0.061854
C36   C     C_R   0.552076 0.507875 0.930565 -0.069383
C37   C     C_R   0.447719 0.504307 0.927443 0.303098
C38   C     C_3   0.395829 0.415337 0.921910 -0.407919
C39   C     C_3   0.394869 0.415998 0.076179 -0.290501
C40   C     C_R   0.873157 0.584596 0.280520 0.526431
C41   C     C_R   0.870598 0.374088 0.293870 0.620121
C42   C     C_R   0.932771 0.367003 0.271753 -0.090779
C43   C     C_R   0.965829 0.478181 0.264561 0.012379
C44   C     C_R   0.935266 0.589554 0.258358 -0.085817
H1    H     H_    0.510681 0.122030 0.287251 0.248320
H2    H     H_    0.409752 0.328354 0.878918 0.165836
H3    H     H_    0.212446 0.691272 0.393764 0.223195
N1    N     N_R   0.847899 0.481392 0.336485 -0.311136
N2    N     N_R   0.149189 0.483852 0.315696 -0.313747
N3    N     N_R   0.499610 0.499140 0.142800 -0.158220
N4    N     N_R   0.499610 0.499180 0.857150 -0.180498
O1    O     O_R   0.500010 0.316790 0.614690 -0.608959
O2    O     O_2   0.833197 0.279370 0.267339 -0.506351
O3    O     O_2   0.155698 0.273341 0.281064 -0.553832
O4    O     O_2   0.158597 0.673293 0.201958 -0.549236
O5    O     O_R   0.500000 0.316760 0.385350 -0.610169
O6    O     O_R   0.416160 0.499980 0.614700 -0.595956
O7    O     O_R   0.416150 0.499940 0.385360 -0.580880
O8    O     O_R   0.500000 0.683240 0.614650 -0.610848
O9    O     O_R   0.499990 0.683210 0.385310 -0.637266
O10   O     O_R   0.583850 0.500060 0.614640 -0.600931
O11   O     O_R   0.583840 0.500020 0.385300 -0.624015
O12   O     O_2   0.838047 0.676625 0.239052 -0.544647
Zn1   Zn    Zn3+2 0.500000 0.500020 0.653130 1.016505
Zn2   Zn    Zn3+2 0.500000 0.499980 0.346870 1.010870
C45   C     C_2   0.929058 0.138231 0.248756 1.104370
O13   O     O_2   0.901698 0.096227 0.344621 -0.469636
O14   O     O_R   0.927835 0.075819 0.128306 -0.765869
H4    H     H_    0.951708 0.119704 0.055750 0.322580
C46   C     C_2   0.666852 0.265239 0.492397 0.463598
H5    H     H_    0.624370 0.262864 0.542749 0.110933
O15   O     O_2   0.682323 0.173744 0.435433 -0.525212
C47   C     C_2   0.683524 0.718993 0.539633 0.583437
H6    H     H_    0.638619 0.738295 0.504436 0.028034
O16   O     O_2   0.708545 0.791344 0.614084 -0.464888
C48   C     C_2   0.815013 0.701340 0.502293 1.031313
O17   O     O_2   0.861552 0.682196 0.563742 -0.586497
O18   O     O_R   0.802265 0.819761 0.456662 -0.696914
H7    H     H_    0.834304 0.881877 0.483112 0.394014
C49   C     C_2   0.513307 0.889741 0.239165 0.609146
H8    H     H_    0.543391 0.815714 0.222217 0.046468
O19   O     O_2   0.484478 0.931098 0.144968 -0.424749
C50   C     C_2   0.445598 0.840564 0.805808 1.033959
O20   O     O_2   0.446225 0.780852 0.910414 -0.552519
O21   O     O_R   0.393148 0.845580 0.728666 -0.759305
H9    H     H_    0.358510 0.799195 0.771515 0.392658
C51   C     C_2   0.558915 0.864479 0.818081 0.990091
O22   O     O_2   0.599193 0.838870 0.743028 -0.564641
O23   O     O_R   0.567003 0.850051 0.956042 -0.753779
H10   H     H_    0.607766 0.817628 0.981256 0.355282
C52   C     C_2   0.434750 0.096927 0.817523 0.939864
O24   O     O_2   0.422102 0.081222 0.935159 -0.510785
O25   O     O_R   0.392041 0.142102 0.727889 -0.818799
H11   H     H_    0.352773 0.159197 0.772566 0.349618
C53   C     C_2   0.546784 0.124054 0.835617 0.961472
O26   O     O_2   0.586752 0.171413 0.769023 -0.589892
O27   O     O_R   0.549851 0.127901 0.975093 -0.693500
H12   H     H_    0.586463 0.174617 0.008692 0.372907
C54   C     C_2   0.606901 0.558574 0.141289 0.532587
H13   H     H_    0.606797 0.641283 0.199160 0.044128
O28   O     O_2   0.652736 0.500599 0.134937 -0.521660
C55   C     C_2   0.056365 0.135519 0.265886 0.521271
H14   H     H_    0.088139 0.114079 0.189303 0.139974
O29   O     O_2   0.046692 0.061950 0.356819 -0.505353
C56   C     C_2   0.610541 0.502912 0.866307 1.040621
O30   O     O_2   0.631543 0.403800 0.841915 -0.566136
O31   O     O_R   0.643799 0.610511 0.843122 -0.772676
H15   H     H_    0.684558 0.594464 0.805064 0.364202
C57   C     C_2   0.340588 0.463653 0.852571 0.491534
H16   H     H_    0.303619 0.401048 0.831175 0.072345
O32   O     O_2   0.336268 0.571709 0.822159 -0.533370
C58   C     C_2   0.340066 0.472900 0.135061 0.500710
H17   H     H_    0.299417 0.418160 0.147453 0.110068
O33   O     O_2   0.340151 0.580470 0.165483 -0.496800
C59   C     C_2   0.409512 0.293468 0.139538 0.951416
O34   O     O_2   0.457809 0.248114 0.118825 -0.559750
O35   O     O_R   0.367791 0.230824 0.219667 -0.790057
H18   H     H_    0.383070 0.149814 0.255443 0.379374
C60   C     C_2   0.062691 0.818548 0.201451 0.585704
H19   H     H_    0.100443 0.845671 0.263913 0.127341
O36   O     O_2   0.046866 0.886622 0.110109 -0.559587
C61   C     C_2   0.938515 0.817760 0.261780 0.589582
H20   H     H_    0.905472 0.852148 0.191360 0.170778
O37   O     O_2   0.950696 0.874221 0.362736 -0.490343
C62   C     C_2   0.322068 0.735937 0.471366 1.005195
O38   O     O_2   0.375390 0.750360 0.451519 -0.597621
O39   O     O_R   0.287498 0.837263 0.498388 -0.747458
H21   H     H_    0.312015 0.916245 0.500675 0.403316
C63   C     C_2   0.321763 0.272463 0.506167 0.549636
H22   H     H_    0.368640 0.271488 0.533225 0.059657
O40   O     O_2   0.296933 0.175683 0.478213 -0.463979
C64   C     C_2   0.186817 0.309354 0.547613 0.572563
H23   H     H_    0.138826 0.318073 0.538070 0.059882
O41   O     O_2   0.205663 0.236147 0.630777 -0.513512
C65   C     C_2   0.800117 0.274306 0.531081 0.564734
H24   H     H_    0.778575 0.186965 0.554159 0.139966
O42   O     O_2   0.852586 0.288192 0.563335 -0.535316

loop_
_geom_bond_atom_site_label_1
_geom_bond_atom_site_label_2
_ccdc_geom_bond_type
C45   O14   S    
C51   O22   D    
O25   H11   S    
C41   C42   A    
C11   H3    S    
C53   O26   D    
C22   C48   S    
C58   O33   D    
O27   H12   S    
C7    C8    A    
O21   H9    S    
C23   O8    A    
C56   O31   S    
O8    Zn1   S    
C29   C30   A    
C40   O12   S    
C18   C24   A    
C5    C6    A    
C23   C29   S    
C28   C29   A    
C1    O5    A    
C48   O18   S    
C57   O32   D    
C30   C31   S    
C37   N4    A    
C32   C52   S    
C15   C16   A    
C21   C47   S    
C34   O11   A    
C31   C50   S    
C65   O42   D    
C18   C19   A    
C47   H6    S    
C50   O20   D    
C64   H23   S    
C59   O35   S    
O31   H15   S    
C46   H5    S    
C20   C34   S    
C27   H1    S    
C25   C32   S    
C45   O13   D    
C5    C43   A    
C21   C22   A    
C47   O16   D    
C35   C54   S    
C58   H17   S    
C1    O1    A    
C60   O36   D    
C23   O9    A    
C1    C26   S    
C31   C51   S    
C24   N1    S    
C7    C60   S    
C65   H24   S    
C9    N2    A    
C48   O17   D    
C49   O19   D    
O1    Zn1   S    
C17   N2    S    
C52   O24   D    
O18   H7    S    
O14   H4    S    
C25   C26   A    
C34   O10   A    
C33   C37   A    
C3    C4    A    
C35   C36   A    
C38   C39   S    
O10   Zn1   S    
C43   C44   A    
C37   C38   S    
C52   O25   S    
O7    Zn2   S    
C54   H13   S    
C15   C63   S    
C40   C44   A    
C35   N3    A    
C26   C27   A    
C18   C65   S    
C33   C39   S    
C38   C57   S    
C55   O29   D    
C10   O4    S    
C41   O2    S    
C36   N4    A    
C12   O6    A    
C3    C55   S    
C39   C58   S    
C50   O21   S    
C12   C14   S    
O9    Zn2   S    
C39   C59   S    
C51   O23   S    
C62   O38   D    
C22   C24   A    
C42   C43   A    
C28   C49   S    
C61   O37   D    
O39   H21   S    
O23   H10   S    
O6    Zn1   S    
C63   H22   S    
C25   C30   A    
C40   N1    A    
C11   C17   A    
O11   Zn2   S    
C54   O28   D    
C36   C56   S    
C31   C32   S    
N4    Zn1   S    
C8    C44   A    
C49   H8    S    
C2    C45   S    
C6    C10   A    
C60   H19   S    
C53   O27   S    
C61   H20   S    
C6    C7    A    
C56   O30   D    
C19   C20   A    
C2    C3    A    
C33   N3    A    
C12   O7    A    
O35   H18   S    
C11   C13   A    
C8    C61   S    
C59   O34   D    
C16   C17   A    
C2    C42   A    
C41   N1    A    
C55   H14   S    
C16   C64   S    
N3    Zn2   S    
C38   H2    S    
C4    C5    A    
C32   C53   S    
C20   C21   A    
C64   O41   D    
C57   H16   S    
C27   C28   A    
C62   O39   S    
C14   C15   A    
C19   C46   S    
C46   O15   D    
C9    O3    S    
C4    C9    A    
C13   C14   A    
C10   N2    A    
C13   C62   S    
O5    Zn2   S    
C63   O40   D    
