data_mof_unit_25921.cif
_audit_creation_date              2012-12-11T16:49:07-0500
_audit_creation_method            fapswitch 2.2
_symmetry_space_group_name_H-M    P1
_symmetry_Int_Tables_number       1
_space_group_crystal_system       triclinic
_cell_length_a                    6.930322
_cell_length_b                    25.911592
_cell_length_c                    28.959885
_cell_angle_alpha                 89.804079
_cell_angle_beta                  90.149032
_cell_angle_gamma                 89.902568
_cell_volume                      5200.43533389

loop_
_atom_site_label
_atom_site_type_symbol
_atom_type_description
_atom_site_fract_x
_atom_site_fract_y
_atom_site_fract_z
_atom_type_partial_charge
O1    O     O_R   0.601010 0.796750 0.202520 -0.536909
O2    O     O_R   0.398990 0.203250 0.797480 -0.538353
O3    O     O_R   0.271260 0.802890 0.297300 -0.535697
O4    O     O_R   0.728740 0.197110 0.702700 -0.534986
O5    O     O_R   0.100940 0.703200 0.297630 -0.516869
O6    O     O_R   0.899060 0.296800 0.702370 -0.516317
C1    C     C_R   0.440283 0.815373 0.313341 0.702654
C2    C     C_R   0.559713 0.184616 0.686668 0.701743
O7    O     O_R   0.271300 0.802890 0.202860 -0.539831
O8    O     O_R   0.728700 0.197110 0.797140 -0.542283
O9    O     O_R   0.100980 0.703210 0.202520 -0.539627
O10   O     O_R   0.899020 0.296790 0.797480 -0.537331
C3    C     C_R   0.439916 0.815169 0.186905 0.713531
C4    C     C_R   0.560012 0.184487 0.812930 0.713962
O11   O     O_R   0.600970 0.796740 0.297640 -0.543587
O12   O     O_R   0.399030 0.203260 0.702360 -0.544823
O13   O     O_3   0.434500 0.717270 0.250080 -0.372132
O14   O     O_3   0.565500 0.282730 0.749920 -0.368154
V1    V     V_3+5 0.159650 0.756040 0.250080 1.430624
V2    V     V_3+5 0.840350 0.243960 0.749920 1.431193
O15   O     O_R   0.771260 0.697060 0.202850 -0.543789
O16   O     O_R   0.228740 0.302940 0.797150 -0.539273
C5    C     C_R   0.940111 0.684553 0.186902 0.688031
C6    C     C_R   0.059880 0.315268 0.813032 0.687715
O17   O     O_R   0.771230 0.697050 0.297300 -0.553246
O18   O     O_R   0.228770 0.302950 0.702700 -0.554147
C7    C     C_R   0.940501 0.684934 0.313788 0.734016
C8    C     C_R   0.059498 0.315074 0.686219 0.732473
V3    V     V_3+5 0.659640 0.743910 0.250080 1.390141
V4    V     V_3+5 0.340360 0.256090 0.749920 1.396186
O19   O     O_3   0.934660 0.782680 0.250080 -0.367470
O20   O     O_3   0.065340 0.217320 0.749920 -0.370882
C9    C     C_R   0.098076 0.651251 0.386922 0.449402
C10   C     C_R   0.901936 0.348780 0.613094 0.449689
C11   C     C_R   0.105728 0.615254 0.423619 -0.212290
C12   C     C_R   0.894289 0.384788 0.576407 -0.212181
H1    H     H_    0.212940 0.620320 0.450465 0.151717
H2    H     H_    0.787096 0.379725 0.549556 0.151856
C13   C     C_R   0.975330 0.573775 0.426213 -0.040255
C14   C     C_R   0.024665 0.426273 0.573828 -0.040240
C15   C     C_R   0.832773 0.569731 0.391699 -0.133777
C16   C     C_R   0.167190 0.430314 0.608350 -0.133615
C17   C     C_R   0.821458 0.605925 0.355612 -0.266462
C18   C     C_R   0.178504 0.394109 0.644429 -0.267261
H3    H     H_    0.710646 0.601375 0.329520 0.134778
H4    H     H_    0.289283 0.398656 0.670529 0.134004
C19   C     C_R   0.952993 0.647039 0.352685 -0.135647
C20   C     C_R   0.047003 0.352985 0.647336 -0.134762
N1    N     N_R   0.860072 0.495642 0.468040 -0.285815
N2    N     N_R   0.139926 0.504411 0.532006 -0.286027
N3    N     N_R   0.871913 0.461268 0.502393 -0.286701
N4    N     N_R   0.128085 0.538786 0.497652 -0.286924
C21   C     C_R   0.012149 0.464782 0.535212 0.541752
C22   C     C_R   0.987849 0.535271 0.464833 0.541746
C23   C     C_R   0.117276 0.616349 0.142299 -0.193863
C24   C     C_R   0.939359 0.341764 0.890540 -0.185401
H5    H     H_    0.239039 0.619951 0.165586 0.124379
H6    H     H_    0.866086 0.305016 0.893656 0.106934
C25   C     C_R   0.127831 0.580627 0.106185 -0.087625
C26   C     C_R   0.927781 0.377154 0.926860 -0.081526
H7    H     H_    0.256107 0.556992 0.103319 0.141486
H8    H     H_    0.850000 0.365949 0.957582 0.131654
C27   C     C_R   0.973982 0.574982 0.074738 0.135178
C28   C     C_R   0.018095 0.425733 0.923794 0.145278
C29   C     C_R   0.806904 0.605072 0.081456 -0.164873
C30   C     C_R   0.127926 0.436684 0.883989 -0.126481
H9    H     H_    0.686074 0.602236 0.057893 0.144072
H10   H     H_    0.198903 0.473603 0.880015 0.113898
C31   C     C_R   0.794493 0.639878 0.118264 -0.170711
C32   C     C_R   0.145474 0.400390 0.848410 -0.162262
H11   H     H_    0.664250 0.662601 0.122190 0.121759
H12   H     H_    0.230389 0.409875 0.818208 0.112198
C33   C     C_R   0.950291 0.646297 0.148856 -0.047920
C34   C     C_R   0.048887 0.352970 0.851127 -0.041546
C35   C     C_R   0.823029 0.507975 0.023405 -0.301579
C36   C     C_R   0.163907 0.494324 0.974081 -0.319631
H13   H     H_    0.689780 0.513768 0.042007 0.170947
H14   H     H_    0.298610 0.489391 0.955788 0.194508
C37   C     C_R   0.829099 0.471409 0.987269 0.493381
C38   C     C_R   0.156090 0.531198 0.009433 0.465772
C39   C     C_R   0.002388 0.464316 0.962220 -0.081510
C40   C     C_R   0.985766 0.537367 0.035576 -0.081481
C41   C     C_R   0.369984 0.134136 0.628115 -0.160875
C42   C     C_R   0.629987 0.865797 0.371938 -0.159394
C43   C     C_R   0.358644 0.098495 0.592032 -0.138756
C44   C     C_R   0.641323 0.901417 0.408038 -0.138720
H15   H     H_    0.219050 0.090887 0.576649 0.102889
H16   H     H_    0.780908 0.909008 0.423432 0.102648
C45   C     C_R   0.525465 0.073826 0.575426 0.093869
C46   C     C_R   0.474509 0.926089 0.424643 0.093879
C47   C     C_R   0.704190 0.085907 0.595906 -0.141258
C48   C     C_R   0.295791 0.914029 0.404150 -0.140265
H17   H     H_    0.835331 0.067172 0.584484 0.098562
H18   H     H_    0.164656 0.932765 0.415574 0.098790
C49   C     C_R   0.715672 0.121713 0.631953 -0.144742
C50   C     C_R   0.284315 0.878247 0.368083 -0.145431
H19   H     H_    0.855626 0.129959 0.646887 0.119345
H20   H     H_    0.144370 0.870018 0.353137 0.119356
C51   C     C_R   0.548602 0.146266 0.648588 -0.052494
C52   C     C_R   0.451383 0.853696 0.351443 -0.052551
C53   C     C_R   0.656872 0.033623 0.502789 -0.146766
C54   C     C_R   0.343112 0.966283 0.497286 -0.147037
H21   H     H_    0.778127 0.059895 0.503682 0.113094
H22   H     H_    0.221853 0.940013 0.496390 0.112682
C55   C     C_R   0.644248 0.998237 0.466480 -0.152061
C56   C     C_R   0.355738 0.001668 0.533596 -0.152677
H23   H     H_    0.756304 0.998270 0.440500 0.108572
H24   H     H_    0.243681 0.001636 0.559575 0.107893
C57   C     C_R   0.487214 0.964051 0.463218 0.082135
C58   C     C_R   0.512770 0.035856 0.536857 0.082116
C59   C     C_R   0.388741 0.113066 0.854005 -0.237471
C60   C     C_R   0.580051 0.844354 0.112184 -0.230145
C61   C     C_R   0.377045 0.075858 0.889201 0.468784
C62   C     C_R   0.588848 0.878691 0.074687 0.475921
C63   C     C_R   0.523139 0.072945 0.923503 -0.011975
C64   C     C_R   0.475696 0.924340 0.074752 -0.008470
C65   C     C_R   0.684085 0.105836 0.919469 -0.183885
C66   C     C_R   0.346256 0.932209 0.111558 -0.199110
H25   H     H_    0.798370 0.104986 0.945015 0.133436
H26   H     H_    0.257734 0.966621 0.112966 0.129845
C67   C     C_R   0.698456 0.141124 0.883004 -0.153570
C68   C     C_R   0.331267 0.896277 0.147526 -0.159486
H27   H     H_    0.823680 0.166004 0.881107 0.127791
H28   H     H_    0.230425 0.903380 0.175316 0.126117
C69   C     C_R   0.549658 0.145589 0.850343 -0.120197
C70   C     C_R   0.450222 0.852541 0.148460 -0.109076
C71   C     C_R   0.677804 0.010603 0.979548 -0.196422
C72   C     C_R   0.322581 0.988888 0.020501 -0.187501
H29   H     H_    0.816961 0.017556 0.963829 0.133132
H30   H     H_    0.182484 0.980595 0.035177 0.114988
C73   C     C_R   0.667389 0.975738 0.016417 -0.104140
C74   C     C_R   0.334122 0.025280 0.984851 -0.103264
H31   H     H_    0.800039 0.958697 0.029077 0.149506
H32   H     H_    0.203735 0.045363 0.974666 0.144289
C75   C     C_R   0.488913 0.963327 0.036676 0.103722
C76   C     C_R   0.511103 0.035717 0.962999 0.101471
O21   O     O_3   0.218441 0.693844 0.387211 -0.559952
C77   C     C_3   0.408582 0.677873 0.377474 -0.178299
H33   H     H_    0.499851 0.712694 0.373272 0.156471
H34   H     H_    0.415723 0.655835 0.344577 0.129184
H35   H     H_    0.470573 0.654793 0.406350 0.130896
O22   O     O_3   0.781578 0.306186 0.612793 -0.559917
C78   C     C_3   0.591424 0.322152 0.622524 -0.178056
H36   H     H_    0.584251 0.344191 0.655420 0.129386
H37   H     H_    0.500166 0.287329 0.626723 0.156417
H38   H     H_    0.529442 0.345230 0.593645 0.130980
O23   O     O_3   0.662453 0.446578 0.972636 -0.552142
C79   C     C_3   0.572627 0.420655 0.009794 -0.299762
H39   H     H_    0.483016 0.447664 0.030313 0.165150
H40   H     H_    0.678428 0.400188 0.032427 0.122532
H41   H     H_    0.473930 0.391094 0.995401 0.169487
O24   O     O_3   0.318002 0.560478 0.018667 -0.566282
C80   C     C_3   0.319038 0.603098 0.988296 -0.266366
H42   H     H_    0.187776 0.627421 0.992732 0.140903
H43   H     H_    0.332838 0.590533 0.951737 0.143557
H44   H     H_    0.445960 0.627467 0.996424 0.154074
H45   H     H_    0.238304 0.152485 0.639705 0.124725
H46   H     H_    0.761662 0.847445 0.360348 0.124672
H47   H     H_    0.273163 0.115547 0.828814 0.141722
H48   H     H_    0.670932 0.810269 0.112115 0.130228
O25   O     O_3   0.219170 0.043404 0.890162 -0.566238
C81   C     C_3   0.262784 0.999170 0.863981 -0.267475
H49   H     H_    0.388665 0.977907 0.878651 0.143652
H50   H     H_    0.289368 0.009258 0.827145 0.135598
H51   H     H_    0.136897 0.972817 0.865076 0.167343
O26   O     O_3   0.711202 0.867419 0.038509 -0.563189
C82   C     C_3   0.609025 0.837492 0.006105 -0.267462
H52   H     H_    0.482117 0.858845 0.992057 0.145549
H53   H     H_    0.562858 0.799994 0.021329 0.132889
H54   H     H_    0.706195 0.828865 0.976742 0.165319
H55   H     H_    0.729209 0.538512 0.392502 0.151434
H56   H     H_    0.270728 0.461540 0.607559 0.151288

loop_
_geom_bond_atom_site_label_1
_geom_bond_atom_site_label_2
_ccdc_geom_bond_type
C78   H38   S    
C30   H10   S    
C27   C29   A    
C23   C25   A    
O13   V3    S    
O23   C79   S    
C79   H41   S    
O4    C2    A    
V1    O19   S    
N1    N3    A    
C60   C62   A    
O25   C81   S    
C13   C15   A    
C64   C75   S    
C15   H55   S    
O9    V1    S    
C4    C69   S    
C11   H1    S    
C2    C51   S    
C36   H14   S    
O3    C1    A    
C65   H25   S    
V2    O20   S    
C54   H22   S    
C44   H16   S    
C13   C22   S    
C63   C76   S    
C49   C51   A    
O12   V4    S    
C78   H36   S    
C48   C50   A    
C26   H8    S    
C66   C68   A    
C66   H26   S    
C31   H11   S    
C65   C67   A    
C32   C34   A    
O7    C3    A    
C9    C11   A    
O5    C7    A    
O7    V1    S    
O6    C8    A    
O8    V2    S    
C63   C65   A    
C50   H20   S    
C59   C69   A    
N2    N4    A    
O3    V1    S    
O14   V4    S    
C24   H6    S    
C45   C47   A    
C60   H48   S    
C60   C70   A    
C2    O12   A    
C14   C16   A    
C53   H21   S    
C41   C51   A    
C53   C55   A    
C15   C17   A    
C16   H56   S    
C8    C20   S    
C16   C18   A    
C5    C33   S    
C72   C74   A    
O1    V3    S    
O18   C8    A    
N4    C22   A    
O11   V3    S    
C82   H54   S    
C81   H50   S    
C43   H15   S    
O17   V3    S    
C25   H7    S    
N2    C21   A    
C24   C34   A    
C1    C52   S    
C27   C40   S    
C42   C52   A    
C38   O24   S    
C12   C14   A    
C71   C76   A    
C38   C40   A    
C44   C46   A    
C72   C75   A    
C9    O21   S    
C82   H52   S    
C37   C39   A    
C42   H46   S    
C37   O23   S    
C1    O11   A    
C18   H4    S    
C29   H9    S    
C53   C58   A    
O15   V3    S    
C45   C58   S    
C24   C26   A    
C82   H53   S    
N3    C21   A    
C28   C30   A    
C68   C70   A    
O1    C3    A    
C11   C13   A    
C71   H29   S    
C67   C69   A    
C47   H17   S    
C81   H51   S    
C55   H23   S    
C46   C48   A    
C41   H45   S    
C74   C76   A    
C62   O26   S    
O10   V2    S    
C48   H18   S    
C59   C61   A    
C79   H39   S    
C80   H44   S    
C31   C33   A    
C17   H3    S    
C77   H34   S    
C3    C70   S    
C79   H40   S    
C41   C43   A    
O18   V4    S    
C23   H5    S    
O8    C4    A    
O26   C82   S    
C9    C19   A    
O16   C6    A    
C80   H43   S    
C68   H28   S    
C12   H2    S    
C81   H49   S    
C56   C58   A    
C7    C19   S    
C78   H37   S    
C55   C57   A    
C10   O22   S    
C43   C45   A    
O16   V4    S    
C25   C27   A    
C36   C38   A    
C59   H47   S    
C17   C19   A    
C73   H31   S    
C77   H35   S    
C72   H30   S    
C36   C39   A    
C62   C64   A    
C49   H19   S    
C35   C40   A    
O5    V1    S    
O4    V2    S    
O17   C7    A    
O6    V2    S    
O21   C77   S    
O10   C6    A    
C73   C75   A    
O2    V4    S    
C26   C28   A    
O15   C5    A    
V3    O19   S    
V4    O20   S    
C6    C34   S    
C30   C32   A    
C56   H24   S    
C29   C31   A    
C50   C52   A    
O9    C5    A    
O13   V1    S    
C10   C12   A    
C64   C66   A    
C54   C56   A    
O14   V2    S    
O2    C4    A    
C71   C73   A    
C28   C39   S    
C67   H27   S    
C77   H33   S    
C61   O25   S    
C23   C33   A    
C18   C20   A    
C10   C20   A    
O24   C80   S    
C47   C49   A    
C74   H32   S    
C14   C21   S    
C35   H13   S    
O22   C78   S    
C42   C44   A    
C54   C57   A    
C32   H12   S    
C46   C57   S    
C80   H42   S    
C35   C37   A    
N1    C22   A    
C61   C63   A    
