data_mof_unit_27905.cif
_audit_creation_date              2012-10-26T19:40:44-0400
_audit_creation_method            fapswitch 2.2
_symmetry_space_group_name_H-M    P1
_symmetry_Int_Tables_number       1
_space_group_crystal_system       triclinic
_cell_length_a                    9.719852
_cell_length_b                    10.924835
_cell_length_c                    13.44223
_cell_angle_alpha                 90.235082
_cell_angle_beta                  72.468109
_cell_angle_gamma                 89.665273
_cell_volume                      1361.04802833

loop_
_atom_site_label
_atom_site_type_symbol
_atom_type_description
_atom_site_fract_x
_atom_site_fract_y
_atom_site_fract_z
_atom_type_partial_charge
C1    C     C_R   0.499124 0.734602 0.501437 0.556869
C2    C     C_R   0.375204 0.507083 0.815555 -0.056928
C3    C     C_2   0.612412 0.066377 0.502212 -0.165239
C4    C     C_R   0.422248 0.498590 0.700345 0.551014
C5    C     C_2   0.501161 0.133364 0.492990 -0.117428
C6    C     C_2   0.614082 0.932373 0.496969 -0.170057
C7    C     C_2   0.494546 0.866730 0.507129 -0.117501
C8    C     C_2   0.054274 0.579053 0.551025 0.366384
C9    C     C_2   0.894051 0.554471 0.570941 0.358270
C10   C     C_R   0.500748 0.265421 0.498642 0.539840
C11   C     C_R   0.577488 0.497462 0.300276 0.539727
C12   C     C_R   0.440178 0.505928 0.978449 -0.029880
C13   C     C_R   0.763558 0.369422 0.034557 -0.149256
C14   C     C_R   0.621318 0.479303 0.187399 0.006973
C15   C     C_R   0.245256 0.569589 0.867074 0.261525
C16   C     C_R   0.216525 0.604644 0.971575 0.269807
C17   C     C_R   0.311985 0.572687 0.026356 -0.159518
C18   C     C_3   0.091645 0.782567 0.530623 -0.115251
C19   C     C_3   0.770512 0.696416 0.692868 -0.086532
C20   C     C_3   0.035601 0.524543 0.835020 -0.056800
C21   C     C_3   0.122331 0.794521 0.014834 -0.108657
C22   C     C_R   0.466739 0.466202 0.873668 -0.032545
C23   C     C_R   0.542159 0.476123 0.031777 0.045205
C24   C     C_R   0.663264 0.400835 0.982336 0.043715
C25   C     C_R   0.680716 0.354468 0.882686 -0.127412
C26   C     C_R   0.582775 0.384650 0.829960 -0.071399
C27   C     C_R   0.526680 0.517429 0.133608 -0.127202
C28   C     C_R   0.742518 0.408280 0.136874 -0.118874
Cu1   Cu    Cu3+1 0.361370 0.499980 0.499980 0.991868
Cu2   Cu    Cu3+1 0.638630 0.500020 0.500020 0.958955
H1    H     H_    0.816374 0.377531 0.178079 0.128994
H2    H     H_    0.279861 0.600425 0.107008 0.123523
H3    H     H_    0.597747 0.340496 0.755328 0.144885
H4    H     H_    0.707353 0.110522 0.512091 0.144210
H5    H     H_    0.982086 0.799326 0.523754 0.060129
H6    H     H_    0.169200 0.770485 0.451177 0.129832
H7    H     H_    0.123008 0.865701 0.565919 0.126845
H8    H     H_    0.669265 0.704210 0.758603 0.133243
H9    H     H_    0.752506 0.747256 0.626451 0.120307
H10   H     H_    0.856573 0.739461 0.719307 0.147033
H11   H     H_    0.968689 0.531462 0.917907 0.156426
H12   H     H_    0.407651 0.092627 0.478667 0.097080
H13   H     H_    0.073085 0.428482 0.814913 0.089467
H14   H     H_    0.965388 0.549145 0.786965 0.191575
H15   H     H_    0.160983 0.824874 0.932119 0.145555
H16   H     H_    0.202541 0.818148 0.055887 0.097415
H17   H     H_    0.021549 0.845972 0.053560 0.137320
H18   H     H_    0.717460 0.887087 0.485847 0.133894
H19   H     H_    0.389109 0.908579 0.522277 0.095318
H20   H     H_    0.116608 0.422551 0.475119 0.157461
H21   H     H_    0.921304 0.488051 0.429095 0.155536
H22   H     H_    0.769940 0.293457 0.845542 0.095798
H23   H     H_    0.855985 0.311760 0.997232 0.095057
H24   H     H_    0.439611 0.576987 0.175124 0.107958
N1    N     N_2   0.152660 0.501340 0.501130 -0.348811
N2    N     N_2   0.846520 0.501370 0.501160 -0.349973
O1    O     O_R   0.382960 0.678040 0.499980 -0.453870
O2    O     O_3   0.800299 0.571207 0.670632 -0.543852
O3    O     O_3   0.151953 0.606884 0.813020 -0.516065
O4    O     O_3   0.091454 0.668384 0.021729 -0.560790
O5    O     O_R   0.617100 0.678080 0.500020 -0.505500
O6    O     O_R   0.325800 0.499940 0.650950 -0.429407
O7    O     O_R   0.559930 0.499980 0.650990 -0.454956
O8    O     O_R   0.382900 0.321920 0.499980 -0.513390
O9    O     O_R   0.617040 0.321960 0.500020 -0.501604
O10   O     O_R   0.440070 0.500020 0.349010 -0.508332
O11   O     O_R   0.674200 0.500060 0.349050 -0.503910
O12   O     O_3   0.095512 0.681497 0.594977 -0.504076

loop_
_geom_bond_atom_site_label_1
_geom_bond_atom_site_label_2
_ccdc_geom_bond_type
C12   C17   A    
C2    C22   A    
C2    C4    S    
C5    H12   S    
C13   C28   A    
C15   O3    S    
C6    C7    D    
C19   H8    S    
C23   C27   A    
C14   C27   A    
C18   H5    S    
C26   H3    S    
C13   H23   S    
Cu2   O11   S    
C4    O7    A    
C11   O10   A    
C23   C24   A    
C3    C6    S    
C3    C5    D    
C20   H11   S    
C25   H22   S    
C5    C10   S    
C9    N2    D    
Cu2   O7    S    
C20   O3    S    
C2    C15   A    
C12   C23   A    
C18   H6    S    
Cu1   Cu2   S    
C19   H9    S    
C15   C16   A    
H21   N2    S    
C8    N1    D    
C20   H14   S    
C18   H7    S    
Cu1   O1    S    
C8    O12   S    
C21   H15   S    
C19   O2    S    
Cu1   O8    S    
C11   C14   S    
C27   H24   S    
Cu2   O9    S    
C19   H10   S    
C11   O11   A    
C18   O12   S    
Cu1   O10   S    
C21   H16   S    
C4    O6    A    
C20   H13   S    
C12   C22   A    
C24   C25   A    
C7    H19   S    
C21   O4    S    
C9    O2    S    
C16   O4    S    
Cu2   O5    S    
C6    H18   S    
C17   H2    S    
Cu1   O6    S    
C16   C17   A    
C22   C26   A    
Cu1   N1    S    
C3    H4    S    
C14   C28   A    
C25   C26   A    
C1    C7    S    
Cu2   N2    S    
C28   H1    S    
C10   O8    A    
H20   N1    S    
C13   C24   A    
C1    O5    A    
C8    C9    S    
C21   H17   S    
C10   O9    A    
C1    O1    A    
