data_mof_unit_27837.cif
_audit_creation_date              2013-03-05T15:43:52-0500
_audit_creation_method            fapswitch 2.2
_symmetry_space_group_name_H-M    P1
_symmetry_Int_Tables_number       1
_space_group_crystal_system       triclinic
_cell_length_a                    13.531819
_cell_length_b                    13.547258
_cell_length_c                    27.427034
_cell_angle_alpha                 90.511602
_cell_angle_beta                  90.020452
_cell_angle_gamma                 59.952527
_cell_volume                      4351.97996956

loop_
_atom_site_label
_atom_site_type_symbol
_atom_site_description
_atom_site_fract_x
_atom_site_fract_y
_atom_site_fract_z
_atom_type_partial_charge
O1    O     O_R   0.301710 0.195650 0.554160 -0.483717
O2    O     O_R   0.522390 0.158990 0.550460 -0.476141
C1    C     C_R   0.621445 0.102512 0.569381 0.569424
O3    O     O_R   0.694390 0.003530 0.554040 -0.496063
O4    O     O_R   0.657700 0.819660 0.549320 -0.487899
C2    C     C_R   0.600265 0.778184 0.568296 0.557153
O5    O     O_R   0.501930 0.803280 0.552920 -0.497138
O6    O     O_R   0.318170 0.023580 0.549580 -0.495505
C3    C     C_R   0.276749 0.122365 0.569316 0.557061
O7    O     O_R   0.303010 0.193990 0.446760 -0.491271
O8    O     O_R   0.523600 0.157450 0.450900 -0.460608
C4    C     C_R   0.624860 0.102735 0.432884 0.584171
O9    O     O_R   0.695690 0.001860 0.446640 -0.443677
O10   O     O_R   0.658900 0.818120 0.449760 -0.497247
C5    C     C_R   0.601631 0.776337 0.430267 0.542446
O11   O     O_R   0.503220 0.801620 0.445520 -0.513424
O12   O     O_R   0.319370 0.022040 0.450020 -0.504784
C6    C     C_R   0.281002 0.119665 0.430085 0.540912
Cr1   Cr    Cr6+3 0.417550 0.169090 0.500530 1.136221
Cr2   Cr    Cr6+3 0.669180 0.913420 0.499920 1.105835
Cr3   Cr    Cr6+3 0.413260 0.917540 0.499520 1.058476
O13   O     O_3   0.499990 0.000010 0.499990 -0.284262
C7    C     C_3   0.782725 0.580304 0.734547 -0.116713
C8    C     C_3   0.747252 0.675908 0.773547 -0.092854
H1    H     H_    0.805271 0.701167 0.790933 0.217357
H2    H     H_    0.868669 0.529744 0.717698 0.132078
H3    H     H_    0.601793 0.843055 0.736444 0.170421
C9    C     C_1   0.700292 0.596440 0.898153 0.042773
C10   C     C_1   0.635737 0.721860 0.614274 0.016522
C11   C     C_3   0.719478 0.530880 0.763969 -0.151589
C12   C     C_3   0.684196 0.626977 0.802105 0.036143
C13   C     C_3   0.608291 0.607349 0.735283 -0.100080
C14   C     C_3   0.671334 0.656954 0.707000 0.001192
C15   C     C_3   0.574796 0.701743 0.773987 0.249388
C16   C     C_3   0.635711 0.752743 0.745288 -0.095899
C17   C     C_1   0.692339 0.613422 0.855003 0.023761
C18   C     C_1   0.656563 0.685931 0.655225 -0.028723
H4    H     H_    0.550059 0.580693 0.719070 0.136692
H5    H     H_    0.750268 0.440978 0.772987 0.107023
C19   C     C_3   0.061592 0.154492 0.734135 -0.127844
C20   C     C_3   0.150215 0.078323 0.772790 -0.064824
H6    H     H_    0.159725 0.998054 0.787528 0.212437
H7    H     H_    0.999992 0.136161 0.715220 0.122268
H8    H     H_    0.330426 0.023641 0.737426 0.176534
C21   C     C_1   0.084734 0.208615 0.899709 0.024395
C22   C     C_1   0.220710 0.142668 0.615753 0.025995
C23   C     C_3   0.030498 0.261598 0.765990 -0.137573
C24   C     C_3   0.119745 0.184998 0.803596 0.017771
C25   C     C_3   0.123404 0.276318 0.739701 -0.088322
C26   C     C_3   0.154512 0.169346 0.708830 0.037181
C27   C     C_3   0.211671 0.200454 0.778178 -0.022456
C28   C     C_3   0.243220 0.093216 0.746714 -0.009893
C29   C     C_1   0.103661 0.194513 0.856559 -0.014063
C30   C     C_1   0.184781 0.156596 0.656941 -0.010564
H9    H     H_    0.268673 0.223870 0.797815 0.203349
H10   H     H_    0.112112 0.357822 0.725525 0.142962
H11   H     H_    0.944193 0.332000 0.775368 0.106689
C31   C     C_3   0.643641 0.294604 0.735263 -0.147566
C32   C     C_3   0.577192 0.266923 0.773886 -0.097487
H12   H     H_    0.492135 0.328200 0.789427 0.163496
H13   H     H_    0.614268 0.378778 0.718392 0.134919
C33   C     C_1   0.701691 0.213824 0.899916 0.039137
C34   C     C_1   0.643277 0.141426 0.614811 0.051776
C35   C     C_3   0.754933 0.226105 0.765507 -0.163617
C36   C     C_3   0.688026 0.198065 0.803194 0.004355
C37   C     C_3   0.782788 0.116107 0.736484 -0.136382
C38   C     C_3   0.671658 0.184375 0.707252 -0.011001
C39   C     C_3   0.716094 0.089537 0.774752 0.256823
C40   C     C_3   0.606524 0.156955 0.745354 0.286984
C41   C     C_1   0.693168 0.205979 0.856461 0.023956
C42   C     C_1   0.658421 0.166005 0.655410 0.017094
H14   H     H_    0.867416 0.053908 0.720877 0.150631
H15   H     H_    0.819334 0.250530 0.774908 0.119178
C43   C     C_R   0.735630 0.702289 0.359536 -0.089151
C44   C     C_R   0.749949 0.683110 0.308941 -0.038268
C45   C     C_R   0.764105 0.664472 0.206435 -0.037071
C46   C     C_R   0.857246 0.654989 0.233542 0.212856
C47   C     C_R   0.851063 0.662847 0.284911 0.193567
C48   C     C_R   0.772149 0.645049 0.155904 -0.098827
H16   H     H_    0.850884 0.621342 0.136704 0.192294
H17   H     H_    0.798973 0.709682 0.380870 0.202504
C49   C     C_R   0.683156 0.642748 0.130773 -0.015226
C50   C     C_R   0.550980 0.713673 0.355288 -0.110030
C51   C     C_R   0.558716 0.704884 0.305118 0.024079
C52   C     C_R   0.657663 0.691005 0.281546 0.015218
C53   C     C_R   0.465901 0.715742 0.278259 -0.121792
C54   C     C_R   0.470554 0.712632 0.227804 -0.123928
C55   C     C_R   0.569311 0.695374 0.203917 0.026587
C56   C     C_R   0.663533 0.684756 0.230647 0.015741
C57   C     C_R   0.578402 0.679018 0.153914 -0.122911
C58   C     C_R   0.634500 0.721880 0.382250 -0.008780
H18   H     H_    0.507926 0.681249 0.134079 0.135538
H19   H     H_    0.398325 0.720239 0.207512 0.114300
H20   H     H_    0.389233 0.727920 0.296279 0.121040
H21   H     H_    0.473264 0.726596 0.372610 0.151716
C59   C     C_R   0.212259 0.060016 0.356818 -0.109378
C60   C     C_R   0.193067 0.067640 0.306415 0.019949
C61   C     C_R   0.150717 0.088762 0.205695 0.010315
C62   C     C_R   0.143257 0.004381 0.232105 -0.128005
C63   C     C_R   0.165847 0.992890 0.282099 -0.105428
C64   C     C_R   0.117228 0.109133 0.157026 -0.130255
H22   H     H_    0.083198 0.060131 0.139824 0.134789
H23   H     H_    0.211030 0.992612 0.377343 0.155342
H24   H     H_    0.117891 0.948832 0.214307 0.123635
H25   H     H_    0.159537 0.927384 0.301869 0.162520
C65   C     C_R   0.116500 0.200166 0.132317 -0.007167
C66   C     C_R   0.239239 0.224310 0.353455 -0.097132
C67   C     C_R   0.228184 0.228121 0.303347 0.006958
C68   C     C_R   0.202966 0.151019 0.279625 0.056606
C69   C     C_R   0.244446 0.306557 0.276619 -0.087038
C70   C     C_R   0.230954 0.311913 0.226342 -0.080678
C71   C     C_R   0.196174 0.242432 0.202764 0.020501
C72   C     C_R   0.184962 0.159481 0.229217 0.059429
C73   C     C_R   0.164054 0.260509 0.154067 -0.103070
C74   C     C_R   0.236269 0.138024 0.380362 -0.005824
H26   H     H_    0.166667 0.328386 0.134504 0.163351
H27   H     H_    0.242822 0.373762 0.206261 0.160158
H28   H     H_    0.266978 0.364073 0.294618 0.168174
H29   H     H_    0.257614 0.285077 0.371011 0.205159
C75   C     C_R   0.570367 0.250810 0.367607 0.153559
C76   C     C_R   0.576738 0.267295 0.317117 -0.011326
C77   C     C_R   0.585784 0.290646 0.215069 0.018199
C78   C     C_R   0.502670 0.380474 0.243294 -0.143414
C79   C     C_R   0.497789 0.368950 0.293676 -0.098780
C80   C     C_R   0.595692 0.303491 0.164856 -0.131967
H30   H     H_    0.540270 0.384782 0.147817 0.129885
H31   H     H_    0.441838 0.460161 0.226467 0.122550
H32   H     H_    0.432641 0.441078 0.313890 0.186202
C81   C     C_R   0.683445 0.214219 0.137654 -0.005332
C82   C     C_R   0.754781 0.074694 0.362961 0.211547
C83   C     C_R   0.753189 0.081547 0.311953 -0.013673
C84   C     C_R   0.663990 0.178405 0.289029 -0.015706
C85   C     C_R   0.837290 0.992703 0.283198 -0.070718
C86   C     C_R   0.834635 0.000181 0.232796 -0.135991
C87   C     C_R   0.750448 0.098115 0.210099 0.006932
C88   C     C_R   0.665697 0.188630 0.238011 0.076144
C89   C     C_R   0.754928 0.109409 0.160079 -0.121933
C90   C     C_R   0.653573 0.147321 0.389079 -0.005981
H33   H     H_    0.822159 0.039285 0.139412 0.145095
H34   H     H_    0.901087 0.930974 0.211599 0.167818
H35   H     H_    0.904130 0.915479 0.299180 0.227667
O14   O     O_R   0.818720 0.150820 0.967160 -0.485229
O15   O     O_R   0.006410 0.181720 0.970200 -0.489577
C91   C     C_R   0.046968 0.237618 0.949216 0.546439
O16   O     O_R   0.027890 0.334070 0.964920 -0.503987
O17   O     O_R   0.809600 0.521790 0.967960 -0.498367
C92   C     C_R   0.712092 0.561132 0.947750 0.549008
O18   O     O_R   0.635520 0.542770 0.964420 -0.488288
O19   O     O_R   0.665950 0.325030 0.970100 -0.497900
C93   C     C_R   0.724068 0.226708 0.950023 0.548574
O20   O     O_R   0.816620 0.158530 0.074540 -0.516981
O21   O     O_R   0.004460 0.188870 0.069750 -0.504281
C94   C     C_R   0.049711 0.243713 0.087779 0.551183
O22   O     O_R   0.025800 0.341780 0.072300 -0.501041
O23   O     O_R   0.807650 0.528950 0.067500 -0.494597
C95   C     C_R   0.707041 0.576653 0.085664 0.549157
O24   O     O_R   0.633420 0.550490 0.071810 -0.516813
O25   O     O_R   0.664000 0.332180 0.069640 -0.497497
C96   C     C_R   0.719162 0.234431 0.089921 0.549328
Cr4   Cr    Cr6+3 0.909170 0.177380 0.020380 1.056103
Cr5   Cr    Cr6+3 0.912710 0.429210 0.018220 1.059966
Cr6   Cr    Cr6+3 0.657170 0.432570 0.019030 1.052281
O26   O     O_3   0.826350 0.346390 0.019210 -0.265352
S1    S     S_3+6 0.501023 0.119050 0.733435 -0.031697
O27   O     O_2   0.395667 0.220795 0.714160 -0.283985
O28   O     O_2   0.544298 0.024385 0.696176 -0.363480
O29   O     O_3   0.470777 0.078599 0.786468 -0.516287
H36   H     H_    0.494963 0.997226 0.782247 0.383449
S2    S     S_3+6 0.777076 0.949210 0.798541 0.032635
O30   O     O_2   0.873769 0.928294 0.831799 -0.224937
O31   O     O_2   0.690022 0.934739 0.826627 -0.255700
O32   O     O_3   0.828704 0.855330 0.751879 -0.526973
H37   H     H_    0.767083 0.885196 0.727298 0.348412
N1    N     N_R   0.961064 0.629820 0.209283 0.100109
O33   O     O_R   0.026564 0.528671 0.190960 -0.372182
O34   O     O_R   0.980464 0.711931 0.198630 -0.345188
N2    N     N_R   0.950361 0.641140 0.312457 0.095442
O35   O     O_R   0.989950 0.562599 0.345641 -0.315891
O36   O     O_R   0.008169 0.690859 0.301271 -0.275758
N3    N     N_R   0.482824 0.338990 0.397455 0.082949
O37   O     O_R   0.375563 0.380531 0.386958 -0.356324
O38   O     O_R   0.510279 0.371494 0.437503 -0.303389
S3    S     S_3+6 0.434506 0.776778 0.799275 0.008703
O39   O     O_2   0.420221 0.700586 0.834557 -0.219689
O40   O     O_2   0.415961 0.882447 0.825583 -0.279541
O41   O     O_3   0.338397 0.811725 0.754337 -0.519845
H38   H     H_    0.373177 0.826558 0.725602 0.317236
S4    S     S_3+6 0.885453 0.986166 0.394094 0.029514
O42   O     O_2   0.906679 0.866152 0.395447 -0.246471
O43   O     O_2   0.982615 0.986871 0.367861 -0.310599
O44   O     O_3   0.879020 0.034785 0.451353 -0.497856
H39   H     H_    0.951762 0.978157 0.466586 0.368275

loop_
_geom_bond_atom_site_label_1
_geom_bond_atom_site_label_2
_geom_bond_distance
_ccdc_geom_bond_type
C19   C23   1.553048 S    
C37   C39   1.542213 S    
C54   C55   1.398114 A    
O21   Cr4   1.927799 S    
C64   H22   1.084300 S    
C47   N2    1.438860 S    
C78   C79   1.397284 A    
C20   H6    1.109124 S    
O22   Cr5   2.039455 S    
C70   C71   1.399374 A    
C40   S1    1.771864 S    
C69   H28   1.083845 S    
C25   C27   1.544582 S    
C71   C73   1.389816 A    
O15   Cr4   1.925942 S    
C23   C25   1.547420 S    
O4    Cr2   1.923992 S    
C46   C47   1.411323 A    
O23   Cr5   1.928402 S    
C4    O9    1.275061 A    
C89   H33   1.084751 S    
O8    Cr1   1.925630 S    
C63   H25   1.083205 S    
C46   N1    1.431596 S    
C80   H30   1.084197 S    
C65   C73   1.398576 A    
S4    O44   1.682829 S    
C95   O24   1.270206 A    
C51   C53   1.399279 A    
Cr6   O26   1.981798 S    
O2    C1    1.277079 A    
S3    O40   1.501609 D    
C86   H34   1.082574 S    
C11   C12   1.539607 S    
C82   S4    1.785392 S    
C84   C88   1.408699 A    
O15   C91   1.276752 A    
C61   C62   1.404276 A    
C67   C68   1.405504 A    
C33   C41   1.206228 T    
S4    O43   1.503249 D    
C15   C16   1.535206 S    
S2    O30   1.502272 D    
C7    H2    1.110066 S    
C69   C70   1.388694 A    
C76   C79   1.411791 A    
C53   H20   1.084130 S    
C13   C15   1.537277 S    
N1    O33   1.299067 A    
C78   H31   1.083851 S    
C44   C52   1.415094 A    
C19   H7    1.109212 S    
C37   H14   1.110068 S    
C92   O18   1.266905 A    
O6    C3    1.278376 A    
N2    O36   1.300471 A    
C21   C91   1.431494 S    
C26   C28   1.537095 S    
C35   H15   1.105664 S    
C45   C48   1.402411 A    
C59   C74   1.403887 A    
C13   H4    1.109457 S    
C20   C28   1.547129 S    
C27   H9    1.107854 S    
C68   C72   1.399460 A    
C45   C56   1.411191 A    
C79   H32   1.080440 S    
C49   C95   1.458612 S    
C65   C94   1.461228 S    
C31   H13   1.108080 S    
C62   H24   1.083709 S    
C21   C29   1.204111 T    
C32   H12   1.110289 S    
Cr3   O13   1.984588 S    
S2    O31   1.501383 D    
C66   H29   1.081296 S    
C71   C72   1.413371 A    
Cr5   O26   1.984650 S    
N3    O38   1.301266 A    
O6    Cr3   1.928580 S    
C45   C46   1.413025 A    
C24   C27   1.530112 S    
C31   C35   1.559027 S    
C24   C29   1.463845 S    
O17   Cr5   1.922772 S    
O1    Cr1   2.043905 S    
C8    C16   1.550023 S    
C43   C44   1.404995 A    
C27   C28   1.547358 S    
Cr4   O26   1.982673 S    
O10   Cr2   1.930499 S    
C87   C88   1.407285 A    
Cr1   O13   1.982897 S    
O1    C3    1.271159 A    
C51   C52   1.411522 A    
C7    C14   1.538453 S    
S3    O41   1.681464 S    
O14   Cr4   2.046587 S    
O29   H36   0.985997 S    
C52   C56   1.397709 A    
C53   C54   1.384577 A    
C39   C40   1.529315 S    
C61   C72   1.407891 A    
H3    C16   1.099668 S    
C31   C32   1.554578 S    
O5    Cr3   2.039619 S    
C14   C18   1.463478 S    
C1    O3    1.270499 A    
O44   H39   0.990563 S    
S4    O42   1.503562 D    
C38   C40   1.530471 S    
O20   C96   1.268514 A    
C43   C58   1.401856 A    
C36   C41   1.468093 S    
S3    O39   1.502309 D    
C7    C11   1.554341 S    
C23   H11   1.104575 S    
C60   C68   1.414268 A    
C39   S2    1.780850 S    
C57   H18   1.085073 S    
C23   C24   1.536997 S    
Cr2   O13   1.981943 S    
O7    Cr1   2.043195 S    
C66   C67   1.381014 A    
C36   C39   1.528052 S    
C50   H21   1.084811 S    
C59   C60   1.401637 A    
C22   C30   1.205350 T    
O12   C6    1.281689 A    
C12   C15   1.524379 S    
C15   S3    1.781591 S    
C26   C30   1.465663 S    
C8    H1    1.107578 S    
C66   C74   1.405388 A    
C86   C87   1.395056 A    
C32   C40   1.541621 S    
C19   C20   1.551225 S    
C55   C57   1.382935 A    
N2    O35   1.301381 A    
O25   C96   1.281861 A    
C85   C86   1.386123 A    
S2    O32   1.680843 S    
C4    C90   1.485794 S    
C48   H16   1.081808 S    
C50   C51   1.379582 A    
C75   C90   1.419005 A    
C77   C88   1.411988 A    
C76   C84   1.413460 A    
C83   C84   1.414947 A    
C82   C90   1.412627 A    
C61   C64   1.394373 A    
C81   C96   1.470323 S    
C60   C63   1.402565 A    
N3    O37   1.300340 A    
O17   C92   1.277806 A    
C64   C65   1.408189 A    
C87   C89   1.386481 A    
S1    O27   1.502142 D    
C9    C92   1.428162 S    
C33   C93   1.434988 S    
O9    Cr2   2.040019 S    
O2    Cr1   1.927246 S    
O10   C5    1.280761 A    
S1    O29   1.680111 S    
C34   C42   1.205958 T    
C91   O16   1.269539 A    
C83   C85   1.406340 A    
C6    C74   1.463819 S    
C48   C49   1.401023 A    
C73   H26   1.084474 S    
O8    C4    1.283728 A    
O11   Cr3   2.046191 S    
C2    O5    1.270122 A    
O19   Cr6   1.931176 S    
C1    C34   1.435875 S    
C25   H10   1.110110 S    
C50   C58   1.400099 A    
C85   H35   1.079344 S    
C49   C57   1.396850 A    
C62   C63   1.397752 A    
C70   H27   1.083611 S    
O18   Cr6   2.039511 S    
O20   Cr4   2.041710 S    
O14   C93   1.268020 A    
C77   C80   1.404521 A    
S1    O28   1.502271 D    
C82   C83   1.402321 A    
O41   H38   0.990350 S    
C8    C12   1.535292 S    
O19   C93   1.278313 A    
C13   C14   1.537865 S    
C11   C13   1.552010 S    
H8    C28   1.108106 S    
O4    C2    1.278068 A    
O16   Cr5   2.045418 S    
O7    C6    1.266357 A    
C19   C26   1.536123 S    
C54   H19   1.084163 S    
C35   C36   1.544188 S    
C14   C16   1.539055 S    
C20   C24   1.534308 S    
C67   C69   1.401109 A    
C11   H5    1.102384 S    
C37   C38   1.542450 S    
C38   C42   1.467592 S    
C75   N3    1.437584 S    
C44   C47   1.415321 A    
N1    O34   1.299985 A    
O25   Cr6   1.921634 S    
C7    C8    1.550820 S    
C5    C58   1.459781 S    
O32   H37   0.990022 S    
O3    Cr2   2.047975 S    
C80   C81   1.405590 A    
C31   C38   1.541642 S    
C3    C22   1.434692 S    
C2    C10   1.432759 S    
C81   C89   1.403485 A    
C55   C56   1.414677 A    
C9    C17   1.202121 T    
C25   C26   1.536763 S    
C59   H23   1.084164 S    
C10   C18   1.204151 T    
O23   C95   1.277868 A    
C77   C78   1.399382 A    
C75   C76   1.414143 A    
C12   C17   1.461232 S    
O21   C94   1.272900 A    
C43   H17   1.082436 S    
C94   O22   1.276494 A    
O24   Cr6   2.048340 S    
C32   C36   1.541801 S    
C5    O11   1.267587 A    
C35   C37   1.553347 S    
O12   Cr3   1.921825 S    
