data_mof_unit_46766.cif
_audit_creation_date              2012-10-26T20:51:33-0400
_audit_creation_method            fapswitch 2.2
_symmetry_space_group_name_H-M    P1
_symmetry_Int_Tables_number       1
_space_group_crystal_system       triclinic
_cell_length_a                    9.6233
_cell_length_b                    10.894257
_cell_length_c                    13.904531
_cell_angle_alpha                 92.566618
_cell_angle_beta                  84.520991
_cell_angle_gamma                 88.707138
_cell_volume                      1449.08926211

loop_
_atom_site_label
_atom_site_type_symbol
_atom_type_description
_atom_site_fract_x
_atom_site_fract_y
_atom_site_fract_z
_atom_type_partial_charge
C1    C     C_R   0.499551 0.737745 0.499401 0.563583
C2    C     C_3   0.238009 0.938855 0.561007 0.600057
C3    C     C_R   0.940265 0.476686 0.416588 0.082732
C4    C     C_R   0.477165 0.501178 0.683020 0.509695
C5    C     C_R   0.912190 0.545387 0.577267 -0.041471
C6    C     C_R   0.061387 0.544906 0.578793 0.371394
C7    C     C_R   0.085466 0.468446 0.418483 0.092734
C8    C     C_3   0.094174 0.350078 0.358980 0.160032
C9    C     C_3   0.944081 0.378640 0.337843 0.173533
C10   C     C_R   0.501076 0.263319 0.507215 0.538867
C11   C     C_R   0.522746 0.502398 0.317405 0.542840
C12   C     C_1   0.463777 0.505608 0.786717 -0.073261
C13   C     C_1   0.534832 0.517996 0.215643 -0.052982
C14   C     C_2   0.542644 0.556687 0.028435 0.278880
C15   C     C_2   0.441259 0.510185 0.978558 0.273693
C16   C     C_1   0.453313 0.509315 0.873869 -0.027026
C17   C     C_1   0.540254 0.534809 0.130567 -0.027564
C18   C     C_3   0.206176 0.528140 0.018816 -0.024426
C19   C     C_3   0.097729 0.505306 0.102360 -0.355987
C20   C     C_3   0.051850 0.571232 0.747072 -0.016637
C21   C     C_3   0.961012 0.682068 0.790771 -0.262512
C22   C     C_3   0.997422 0.722780 0.891483 -0.469522
C23   C     C_R   0.393336 0.941989 0.554818 -0.057882
C24   C     C_3   0.249971 0.232041 0.256042 -0.016993
C25   C     C_3   0.337106 0.224919 0.158870 -0.343774
C26   C     C_3   0.817721 0.234519 0.262804 -0.001802
C27   C     C_3   0.731196 0.120673 0.272807 -0.326412
C28   C     C_3   0.663408 0.737820 0.027412 0.000084
C29   C     C_3   0.624664 0.836490 0.959197 -0.265430
C30   C     C_3   0.651018 0.965249 0.000091 -0.491243
C31   C     C_3   0.850496 0.852215 0.443872 0.038393
C32   C     C_3   0.931068 0.762817 0.371269 -0.353073
C33   C     C_3   0.805813 0.115525 0.593304 0.001936
C34   C     C_R   0.502929 0.872010 0.507056 -0.039585
C35   C     C_3   0.872071 0.236528 0.617946 -0.316256
C36   C     C_3   0.218715 0.241859 0.690259 -0.006363
C37   C     C_3   0.174434 0.265918 0.797546 -0.389755
C38   C     C_3   0.243843 0.901358 0.731977 0.016966
C39   C     C_3   0.340137 0.794739 0.751805 -0.374843
C40   C     C_3   0.231583 0.938318 0.386835 -0.054498
C41   C     C_3   0.290843 0.840330 0.311117 -0.353968
C42   C     C_R   0.627498 0.933169 0.480106 0.214837
C43   C     C_R   0.633227 0.061443 0.500399 0.247505
C44   C     C_R   0.507201 0.131402 0.522820 -0.071935
C45   C     C_R   0.392317 0.067985 0.561114 -0.155793
C46   C     C_3   0.234764 0.082512 0.569581 0.167081
Cu1   Cu    Cu3+1 0.359330 0.500020 0.500000 1.013376
Cu2   Cu    Cu3+1 0.640670 0.499980 0.500000 0.965606
H1    H     H_    0.103485 0.270680 0.406366 0.093464
H2    H     H_    0.134221 0.549700 0.794504 0.141861
H3    H     H_    0.989301 0.486326 0.745064 0.081608
H4    H     H_    0.972909 0.761072 0.743142 0.212607
H5    H     H_    0.849162 0.657576 0.796223 0.149628
H6    H     H_    0.965821 0.651679 0.943160 0.162926
H7    H     H_    0.941410 0.810676 0.915072 0.138010
H8    H     H_    0.110942 0.737548 0.891868 0.126282
H9    H     H_    0.167425 0.162168 0.252968 0.103870
H10   H     H_    0.319298 0.209034 0.312727 0.132465
H11   H     H_    0.421062 0.292882 0.158329 0.187520
H12   H     H_    0.937209 0.425215 0.268278 0.076353
H13   H     H_    0.385881 0.131601 0.145678 0.066328
H14   H     H_    0.269789 0.242415 0.100190 0.186965
H15   H     H_    0.913678 0.208934 0.213860 0.102859
H16   H     H_    0.755101 0.304448 0.228263 0.123539
H17   H     H_    0.631665 0.142703 0.317871 0.163174
H18   H     H_    0.706356 0.086191 0.200319 0.066706
H19   H     H_    0.792338 0.048407 0.304735 0.214567
H20   H     H_    0.773157 0.748245 0.043792 0.144386
H21   H     H_    0.597788 0.754908 0.097590 0.118638
H22   H     H_    0.685845 0.821002 0.887630 0.171187
H23   H     H_    0.192205 0.129599 0.509257 0.086349
H24   H     H_    0.512135 0.829865 0.949137 0.149934
H25   H     H_    0.586199 0.983799 0.069887 0.142865
H26   H     H_    0.622395 0.034321 0.948518 0.145570
H27   H     H_    0.763032 0.974702 0.011499 0.140114
H28   H     H_    0.838814 0.810545 0.515890 0.149124
H29   H     H_    0.911867 0.936710 0.447745 0.185976
H30   H     H_    0.968444 0.811016 0.305368 0.115005
H31   H     H_    0.021139 0.722748 0.404015 0.153144
H32   H     H_    0.862305 0.688226 0.349504 0.176690
H33   H     H_    0.885432 0.040658 0.595627 0.152691
H34   H     H_    0.844364 0.583361 0.637815 0.122832
H35   H     H_    0.720887 0.101168 0.652220 0.087280
H36   H     H_    0.792483 0.312033 0.624343 0.183708
H37   H     H_    0.914667 0.231499 0.688848 0.111393
H38   H     H_    0.957202 0.256211 0.561679 0.161906
H39   H     H_    0.172922 0.314550 0.648536 0.167565
H40   H     H_    0.334312 0.245957 0.682040 0.148971
H41   H     H_    0.211837 0.189169 0.839205 0.150621
H42   H     H_    0.221362 0.351573 0.823322 0.110791
H43   H     H_    0.059180 0.275158 0.811218 0.133735
H44   H     H_    0.160398 0.913001 0.792674 0.144162
H45   H     H_    0.162516 0.500612 0.950492 0.125429
H46   H     H_    0.306092 0.985459 0.735035 0.152526
H47   H     H_    0.434006 0.788313 0.699066 0.134786
H48   H     H_    0.374551 0.808833 0.825079 0.061299
H49   H     H_    0.285321 0.707648 0.749459 0.217402
H50   H     H_    0.312609 0.008492 0.390952 0.086655
H51   H     H_    0.139211 0.983646 0.360138 0.122405
H52   H     H_    0.220874 0.761425 0.306923 0.159011
H53   H     H_    0.304457 0.880878 0.239048 0.078699
H54   H     H_    0.394416 0.806111 0.328453 0.161246
H55   H     H_    0.225589 0.628911 0.020582 0.108891
H56   H     H_    0.137127 0.536741 0.171552 0.190724
H57   H     H_    0.999478 0.557472 0.094190 0.078431
H58   H     H_    0.074923 0.405913 0.103809 0.169951
N1    N     N_R   0.852140 0.499070 0.499400 -0.263263
N2    N     N_R   0.148050 0.499110 0.499400 -0.243396
O1    O     O_R   0.381190 0.680360 0.500000 -0.432357
O2    O     O_3   0.121054 0.599094 0.656232 -0.514465
O3    O     O_3   0.190726 0.351597 0.275778 -0.562448
O4    O     O_3   0.852407 0.280712 0.354313 -0.491305
O5    O     O_3   0.651228 0.619765 0.981709 -0.601804
O6    O     O_3   0.720971 0.877050 0.409110 -0.579043
O7    O     O_3   0.760723 0.117228 0.498956 -0.511068
O8    O     O_3   0.170932 0.125784 0.661373 -0.592165
O9    O     O_3   0.178271 0.879607 0.644779 -0.487038
O10   O     O_3   0.187737 0.884035 0.475846 -0.546249
O11   O     O_R   0.618770 0.680320 0.499990 -0.496763
O12   O     O_R   0.364410 0.500000 0.637850 -0.473370
O13   O     O_R   0.602000 0.499960 0.637840 -0.531354
O14   O     O_R   0.381230 0.319680 0.500010 -0.544488
O15   O     O_R   0.618810 0.319640 0.500000 -0.406751
O16   O     O_R   0.398000 0.500040 0.362160 -0.457873
O17   O     O_R   0.635590 0.500000 0.362150 -0.491225
O18   O     O_3   0.328008 0.456482 0.027784 -0.589230

loop_
_geom_bond_atom_site_label_1
_geom_bond_atom_site_label_2
_ccdc_geom_bond_type
C40   O10   S    
C23   C45   A    
C35   H37   S    
Cu1   O16   S    
C28   H21   S    
C34   C42   A    
C43   C44   A    
C40   H51   S    
C2    O10   S    
C7    C8    S    
C22   H6    S    
C45   C46   S    
C36   H40   S    
C26   C27   S    
C37   H42   S    
C3    C9    S    
C28   C29   S    
C11   O17   A    
C20   H3    S    
C3    C7    A    
C40   H50   S    
C38   C39   S    
C30   H26   S    
C35   H38   S    
C39   H49   S    
Cu2   N1    S    
C15   C16   S    
C38   H44   S    
C41   H54   S    
C18   C19   S    
C1    O11   A    
C26   H16   S    
C20   H2    S    
C43   O7    S    
Cu2   O17   S    
C38   O9    S    
C42   O6    S    
C11   O16   A    
C8    C9    S    
C15   O18   S    
C4    C12   S    
C31   O6    S    
C25   H14   S    
C29   H24   S    
C1    O1    A    
C9    O4    S    
C21   C22   S    
C6    O2    S    
C14   C17   S    
C24   O3    S    
Cu2   O15   S    
C2    O9    S    
C1    C34   S    
C31   H29   S    
Cu2   O11   S    
C36   H39   S    
C33   O7    S    
C37   H43   S    
C10   C44   S    
C12   C16   T    
C24   C25   S    
C10   O15   A    
C8    O3    S    
Cu2   O13   S    
C30   H25   S    
C24   H9    S    
Cu1   O14   S    
C22   H8    S    
C3    N1    A    
Cu1   O1    S    
C2    C46   S    
C26   H15   S    
C29   C30   S    
C27   H17   S    
C32   H32   S    
C19   H56   S    
Cu1   Cu2   S    
C23   C34   A    
C38   H46   S    
C41   H52   S    
C25   H13   S    
C33   H35   S    
C39   H47   S    
C46   H23   S    
C20   O2    S    
C19   H57   S    
C40   C41   S    
C42   C43   A    
C36   O8    S    
C26   O4    S    
C44   C45   A    
C29   H22   S    
C5    N1    A    
C36   C37   S    
C6    N2    A    
C28   H20   S    
C7    N2    A    
C31   C32   S    
C10   O14   A    
C35   H36   S    
C22   H7    S    
C37   H41   S    
C14   O5    S    
C46   O8    S    
C9    H12   S    
C27   H18   S    
C18   O18   S    
C32   H31   S    
C21   H5    S    
C5    H34   S    
C11   C13   S    
C31   H28   S    
C5    C6    A    
C33   C35   S    
C41   H53   S    
C4    O13   A    
C18   H55   S    
C39   H48   S    
C27   H19   S    
C28   O5    S    
C32   H30   S    
C13   C17   T    
C19   H58   S    
C30   H27   S    
C20   C21   S    
C24   H10   S    
Cu1   N2    S    
C2    C23   S    
C18   H45   S    
Cu1   O12   S    
C14   C15   D    
C4    O12   A    
C25   H11   S    
C33   H33   S    
C8    H1    S    
C21   H4    S    
