data_mof_unit_41179.cif
_audit_creation_date              2012-12-10T20:46:48-0500
_audit_creation_method            fapswitch 2.2
_symmetry_space_group_name_H-M    P1
_symmetry_Int_Tables_number       1
_space_group_crystal_system       triclinic
_cell_length_a                    12.966164
_cell_length_b                    8.910843
_cell_length_c                    8.154361
_cell_angle_alpha                 89.998202
_cell_angle_beta                  96.08809
_cell_angle_gamma                 89.640329
_cell_volume                      936.817992919

loop_
_atom_site_label
_atom_site_type_symbol
_atom_type_description
_atom_site_fract_x
_atom_site_fract_y
_atom_site_fract_z
_atom_type_partial_charge
C1    C     C_R   0.498743 0.218263 0.499747 0.925907
C2    C     C_R   0.867074 0.383185 0.657620 0.040016
C3    C     C_R   0.130364 0.500310 0.588545 0.008455
C4    C     C_R   0.863833 0.565490 0.428636 0.028506
C5    C     C_R   0.024832 0.474517 0.562429 0.007264
C6    C     C_R   0.970056 0.541436 0.423318 0.037177
C7    C     C_1   0.497953 0.065330 0.499430 -0.198383
C8    C     C_1   0.498198 0.934756 0.499479 -0.202763
C9    C     C_3   0.812300 0.266578 0.754293 -0.382905
C10   C     C_3   0.781916 0.129826 0.646015 -0.344551
C11   C     C_3   0.736515 0.005741 0.745008 -0.848819
C12   C     C_R   0.499340 0.781787 0.499850 0.936043
C13   C     C_3   0.167082 0.441455 0.141692 -0.375964
C14   C     C_3   0.198892 0.275297 0.170573 -0.326780
C15   C     C_3   0.272133 0.222200 0.047518 -0.815210
C16   C     C_R   0.297487 0.501505 0.468882 0.881776
C17   C     C_R   0.701659 0.495458 0.530766 0.917190
C18   C     C_R   0.812977 0.485947 0.545985 -0.134977
C19   C     C_R   0.184681 0.506079 0.449331 -0.146754
C20   C     C_R   0.024694 0.568712 0.284255 0.070781
C21   C     C_R   0.975201 0.378818 0.665658 0.082026
C22   C     C_R   0.127360 0.512779 0.291907 0.026872
H1    H     H_    0.798808 0.636469 0.201434 0.229071
H2    H     H_    0.863355 0.228900 0.864672 0.205710
H3    H     H_    0.743978 0.312835 0.807402 0.223273
H4    H     H_    0.238414 0.244228 0.919232 0.257538
H5    H     H_    0.347332 0.281327 0.069755 0.281339
H6    H     H_    0.286667 0.099824 0.062838 0.236158
H7    H     H_    0.238060 0.255328 0.296332 0.218862
H8    H     H_    0.128187 0.204461 0.158080 0.198582
H9    H     H_    0.103728 0.438960 0.041856 0.179782
H10   H     H_    0.229958 0.509880 0.097968 0.233431
H11   H     H_    0.028298 0.651892 0.048680 0.169544
H12   H     H_    0.841820 0.778056 0.336998 0.174293
H13   H     H_    0.965682 0.754540 0.170169 0.169153
H14   H     H_    0.039291 0.273426 0.873651 0.182836
H15   H     H_    0.103473 0.238761 0.706395 0.200074
H16   H     H_    0.216724 0.635145 0.745965 0.197035
H17   H     H_    0.119236 0.562255 0.823640 0.156491
H18   H     H_    0.794072 0.968315 0.847721 0.255566
H19   H     H_    0.665383 0.046423 0.796185 0.271123
H20   H     H_    0.716230 0.908072 0.663607 0.251042
H21   H     H_    0.724022 0.163585 0.542166 0.210069
H22   H     H_    0.851453 0.084594 0.593457 0.234923
N1    N     N_1   0.500020 0.500000 0.073640 -0.053017
N2    N     N_1   0.499980 0.500000 0.926360 -0.044743
N3    N     N_3   0.806250 0.673249 0.323645 -0.439881
N4    N     N_3   0.177986 0.533005 0.751792 -0.432883
N5    N     N_3   0.976944 0.642661 0.138151 -0.475456
N6    N     N_3   0.030539 0.254422 0.747290 -0.470094
O1    O     O_R   0.499990 0.285340 0.636850 -0.617981
O2    O     O_R   0.500010 0.714660 0.363150 -0.610522
O3    O     O_R   0.500010 0.285340 0.363150 -0.623887
O4    O     O_R   0.499990 0.714660 0.636850 -0.617366
O5    O     O_R   0.346350 0.500000 0.614250 -0.606396
O6    O     O_R   0.653650 0.500000 0.385750 -0.601275
O7    O     O_R   0.346360 0.500000 0.340500 -0.624667
O8    O     O_R   0.653640 0.500000 0.659500 -0.638578
Zn1   Zn    Zn3+2 0.499990 0.500000 0.682780 0.967982
Zn2   Zn    Zn3+2 0.500010 0.500000 0.317220 0.967957

loop_
_geom_bond_atom_site_label_1
_geom_bond_atom_site_label_2
_ccdc_geom_bond_type
H13   N5    S    
N1    Zn2   S    
C3    C19   A    
C20   N5    S    
O5    Zn1   S    
N2    Zn1   S    
C2    C18   A    
C6    C20   A    
C9    C10   S    
C13   H10   S    
C15   H5    S    
C17   O8    A    
C8    C12   S    
C16   O7    A    
C4    C18   A    
C2    C21   A    
C17   C18   S    
C10   H21   S    
C16   O5    A    
C9    H3    S    
C7    C8    T    
C9    H2    S    
N1    N2    T    
H15   N6    S    
C1    O1    A    
C17   O6    A    
C15   H6    S    
C11   H18   S    
C14   H8    S    
C16   C19   S    
C21   N6    S    
C12   O2    A    
O3    Zn2   S    
C20   C22   A    
C13   C22   S    
C11   H19   S    
O1    Zn1   S    
O4    Zn1   S    
C5    C6    A    
H1    N3    S    
C10   C11   S    
C14   H7    S    
C10   H22   S    
C3    N4    S    
C19   C22   A    
H14   N6    S    
C11   H20   S    
C4    C6    A    
H11   N5    S    
C1    O3    A    
C14   C15   S    
C4    N3    S    
C15   H4    S    
H12   N3    S    
O2    Zn2   S    
C13   C14   S    
C3    C5    A    
O8    Zn1   S    
C1    C7    S    
C2    C9    S    
H16   N4    S    
C13   H9    S    
C12   O4    A    
O6    Zn2   S    
H17   N4    S    
O7    Zn2   S    
C5    C21   A    
