data_mof_unit_50184.cif
_audit_creation_date              2012-12-10T17:24:15-0500
_audit_creation_method            fapswitch 2.2
_symmetry_space_group_name_H-M    P1
_symmetry_Int_Tables_number       1
_space_group_crystal_system       triclinic
_cell_length_a                    10.136395
_cell_length_b                    10.77054
_cell_length_c                    16.776526
_cell_angle_alpha                 91.13771
_cell_angle_beta                  76.781547
_cell_angle_gamma                 95.532111
_cell_volume                      1774.73178248

loop_
_atom_site_label
_atom_site_type_symbol
_atom_type_description
_atom_site_fract_x
_atom_site_fract_y
_atom_site_fract_z
_atom_type_partial_charge
C1    C     C_R   0.557231 0.732787 0.491983 0.936635
C2    C     C_R   0.516356 0.492117 0.345687 0.887476
C3    C     C_R   0.479640 0.534711 0.739624 -0.136830
C4    C     C_R   0.521455 0.468715 0.259901 -0.134371
C5    C     C_R   0.590514 0.604029 0.762290 0.483162
C6    C     C_R   0.410904 0.401116 0.235855 0.481601
C7    C     C_R   0.588755 0.619868 0.845006 -0.284913
C8    C     C_R   0.413884 0.388142 0.152805 -0.285611
C9    C     C_R   0.475081 0.573058 0.903783 0.008770
C10   C     C_R   0.528310 0.436182 0.095030 0.011172
C11   C     C_R   0.360033 0.514715 0.881027 -0.130117
C12   C     C_R   0.443409 0.267113 0.502776 0.941955
C13   C     C_R   0.642691 0.493420 0.119018 -0.132309
C14   C     C_R   0.362298 0.495508 0.798822 -0.249431
C15   C     C_R   0.639310 0.509642 0.201580 -0.250311
C16   C     C_2   0.488487 0.561218 0.988124 0.359515
C17   C     C_2   0.516919 0.448768 0.010385 0.358882
C18   C     C_3   0.696444 0.779132 0.694283 0.092870
C19   C     C_3   0.821174 0.832520 0.631478 -0.844282
C20   C     C_3   0.301549 0.224123 0.300035 0.090616
C21   C     C_3   0.176961 0.170363 0.362788 -0.839848
C22   C     C_3   0.573589 0.243913 0.982015 0.113034
C23   C     C_2   0.590794 0.864900 0.478560 -0.383561
C24   C     C_3   0.587662 0.145422 0.915126 -0.832718
C25   C     C_3   0.433499 0.766698 0.015970 0.113595
C26   C     C_3   0.420280 0.865633 0.082575 -0.833658
C27   C     C_2   0.412339 0.134576 0.495680 -0.387912
C28   C     C_2   0.491872 0.932963 0.469928 -0.147468
C29   C     C_2   0.515527 0.065802 0.467507 -0.161489
C30   C     C_2   0.925959 0.509296 0.507506 -0.124470
C31   C     C_2   0.074045 0.490659 0.492511 -0.126115
C32   C     C_R   0.483796 0.508386 0.654255 0.893810
H1    H     H_    0.726094 0.558721 0.219829 0.167032
H2    H     H_    0.693369 0.906648 0.477094 0.151853
H3    H     H_    0.116216 0.424271 0.446584 0.202716
H4    H     H_    0.883792 0.575637 0.553465 0.203667
H5    H     H_    0.110186 0.614004 0.576100 0.169428
H6    H     H_    0.889815 0.386037 0.423870 0.167551
H7    H     H_    0.694828 0.830115 0.752915 0.134534
H8    H     H_    0.604035 0.795783 0.672090 0.130004
H9    H     H_    0.823311 0.788343 0.570974 0.254628
H10   H     H_    0.817938 0.934574 0.625261 0.211092
H11   H     H_    0.915280 0.815542 0.651223 0.250476
H12   H     H_    0.275145 0.445369 0.781604 0.166083
H13   H     H_    0.394201 0.203668 0.320702 0.134896
H14   H     H_    0.300662 0.176432 0.240576 0.134609
H15   H     H_    0.082706 0.190073 0.344170 0.248286
H16   H     H_    0.178670 0.067828 0.367312 0.210412
H17   H     H_    0.176621 0.212101 0.423799 0.254897
H18   H     H_    0.502991 0.202156 0.037769 0.137553
H19   H     H_    0.676033 0.269970 0.994439 0.139323
H20   H     H_    0.658263 0.183413 0.858366 0.262757
H21   H     H_    0.628589 0.062478 0.935386 0.199750
H22   H     H_    0.486692 0.116359 0.901915 0.253973
H23   H     H_    0.272682 0.477145 0.927018 0.136915
H24   H     H_    0.331031 0.741714 0.003324 0.139689
H25   H     H_    0.504958 0.807548 0.960229 0.137394
H26   H     H_    0.521305 0.893643 0.096014 0.254345
H27   H     H_    0.380748 0.949065 0.061903 0.199525
H28   H     H_    0.348870 0.828542 0.139308 0.262275
H29   H     H_    0.730619 0.531937 0.073803 0.137430
H30   H     H_    0.325098 0.345366 0.133475 0.147554
H31   H     H_    0.678026 0.663674 0.863324 0.147680
H32   H     H_    0.620386 0.106715 0.448983 0.188653
H33   H     H_    0.388910 0.891762 0.471612 0.189948
H34   H     H_    0.307815 0.093134 0.514331 0.152873
N1    N     N_2   0.846390 0.448330 0.467170 -0.195852
N2    N     N_2   0.153610 0.551670 0.532830 -0.196442
O1    O     O_R   0.430310 0.692580 0.506610 -0.615152
O2    O     O_3   0.297063 0.354108 0.293278 -0.610886
O3    O     O_3   0.521104 0.348614 0.955491 -0.621171
O4    O     O_3   0.484164 0.661363 0.043033 -0.621355
O5    O     O_R   0.569690 0.307420 0.493390 -0.613635
O6    O     O_R   0.652740 0.659410 0.485540 -0.609112
O7    O     O_R   0.347260 0.340590 0.514460 -0.609778
O8    O     O_R   0.375640 0.518570 0.627580 -0.623877
O9    O     O_R   0.624360 0.481430 0.372420 -0.627732
O10   O     O_R   0.598070 0.485390 0.606510 -0.560791
O11   O     O_R   0.401930 0.514610 0.393490 -0.564097
O12   O     O_3   0.703556 0.650115 0.703946 -0.611009
Zn1   Zn    Zn3+2 0.351480 0.522150 0.514070 0.956461
Zn2   Zn    Zn3+2 0.648520 0.477850 0.485930 0.956948

loop_
_geom_bond_atom_site_label_1
_geom_bond_atom_site_label_2
_ccdc_geom_bond_type
C24   H20   S    
C27   C29   D    
O5    Zn2   S    
C16   O4    S    
C25   H24   S    
C21   H17   S    
C1    O6    A    
C28   C29   S    
C9    C16   S    
C30   C31   S    
C11   C14   A    
C10   C17   S    
C24   H22   S    
H5    N2    S    
C6    O2    S    
C18   C19   S    
C18   H8    S    
C2    O11   A    
C16   C17   D    
C26   H27   S    
C20   H13   S    
C19   H10   S    
C22   H18   S    
C21   H16   S    
C29   H32   S    
C12   O5    A    
C20   O2    S    
C25   H25   S    
O6    Zn2   S    
C19   H11   S    
C5    C7    A    
C31   N2    D    
C12   C27   S    
C4    C6    A    
O11   Zn1   S    
O7    Zn1   S    
C6    C8    A    
C25   C26   S    
C1    O1    A    
C2    C4    S    
C18   H7    S    
C26   H26   S    
O10   Zn2   S    
C23   H2    S    
C25   O4    S    
C23   C28   D    
H6    N1    S    
C5    O12   S    
C9    C11   A    
C7    H31   S    
C3    C14   A    
C8    C10   A    
C1    C23   S    
C13   C15   A    
C22   C24   S    
N2    Zn1   S    
C22   O3    S    
C11   H23   S    
C14   H12   S    
C7    C9    A    
C30   N1    D    
C3    C5    A    
C10   C13   A    
O8    Zn1   S    
C32   O8    A    
C17   O3    S    
C30   H4    S    
C4    C15   A    
C28   H33   S    
C24   H21   S    
C2    O9    A    
O9    Zn2   S    
C31   H3    S    
C3    C32   S    
O1    Zn1   S    
C32   O10   A    
C13   H29   S    
C20   C21   S    
N1    Zn2   S    
C18   O12   S    
C12   O7    A    
C27   H34   S    
C26   H28   S    
C15   H1    S    
C20   H14   S    
C19   H9    S    
C8    H30   S    
C22   H19   S    
C21   H15   S    
