data_mof_unit_36740.cif
_audit_creation_date              2012-12-10T17:05:23-0500
_audit_creation_method            fapswitch 2.2
_symmetry_space_group_name_H-M    P1
_symmetry_Int_Tables_number       1
_space_group_crystal_system       triclinic
_cell_length_a                    10.023978
_cell_length_b                    10.714669
_cell_length_c                    15.565321
_cell_angle_alpha                 91.069129
_cell_angle_beta                  70.073619
_cell_angle_gamma                 91.745362
_cell_volume                      1570.89469338

loop_
_atom_site_label
_atom_site_type_symbol
_atom_type_description
_atom_site_fract_x
_atom_site_fract_y
_atom_site_fract_z
_atom_type_partial_charge
C1    C     C_R   0.502627 0.737342 0.499458 0.922769
C2    C     C_R   0.654341 0.364497 0.055390 0.159078
C3    C     C_R   0.541177 0.446145 0.099718 0.058479
C4    C     C_R   0.414098 0.513942 0.674405 0.918503
C5    C     C_R   0.754016 0.339055 0.098428 -0.166955
C6    C     C_R   0.738699 0.388269 0.184785 -0.194076
C7    C     C_R   0.539781 0.505949 0.180849 -0.219318
C8    C     C_2   0.583913 0.069570 0.533119 -0.157944
C9    C     C_2   0.479153 0.132693 0.522301 -0.312441
C10   C     C_2   0.564445 0.937283 0.545169 0.124751
C11   C     C_2   0.517512 0.868220 0.487815 -0.045592
C12   C     C_R   0.394641 0.503012 0.917150 0.018754
C13   C     C_2   0.107807 0.450127 0.435328 0.036162
C14   C     C_2   0.954149 0.436512 0.441323 -0.059689
C15   C     C_R   0.495277 0.262875 0.504771 0.943167
C16   C     C_R   0.586737 0.497638 0.324699 0.887279
C17   C     C_R   0.366094 0.543441 0.772787 -0.213432
C18   C     C_R   0.630243 0.470868 0.226653 -0.025695
C19   C     C_R   0.194059 0.624394 0.912839 0.108602
C20   C     C_R   0.241677 0.610608 0.816786 0.138276
C21   C     C_R   0.454337 0.516758 0.822701 0.103830
C22   C     C_2   0.049780 0.550561 0.106306 0.432308
C23   C     C_R   0.262535 0.558048 0.964033 -0.090559
C24   C     C_2   0.767923 0.217291 0.920079 0.426873
C25   C     C_2   0.236855 0.492575 0.206657 0.422881
C26   C     C_R   0.471052 0.445295 0.965892 0.107095
C27   C     C_R   0.436980 0.471246 0.059158 -0.043079
C28   C     C_R   0.297682 0.513537 0.107985 -0.026463
C29   C     C_R   0.206646 0.548195 0.060156 -0.017569
C30   C     C_R   0.577398 0.358695 0.923932 -0.245991
C31   C     C_R   0.665370 0.313830 0.968682 -0.040416
H1    H     H_    0.844040 0.280940 0.066843 0.194244
H2    H     H_    0.981687 0.518464 0.068767 0.067524
H3    H     H_    0.807047 0.214277 0.845886 0.099766
H4    H     H_    0.238927 0.399360 0.231688 0.018609
H5    H     H_    0.680752 0.114523 0.536365 0.196196
H6    H     H_    0.378332 0.086985 0.527249 0.189116
H7    H     H_    0.188312 0.411866 0.376851 0.128702
H8    H     H_    0.928915 0.374314 0.392925 0.146514
H9    H     H_    0.882519 0.568496 0.535523 0.226561
H10   H     H_    0.466338 0.579383 0.210872 0.196962
H11   H     H_    0.809473 0.359498 0.219607 0.166868
H12   H     H_    0.589997 0.323495 0.855910 0.164146
I1    I     I_    0.594953 0.869329 0.664287 -0.249152
I2    I     I_    0.503015 0.929313 0.361113 -0.274538
I3    I     I_    0.026395 0.430741 0.628256 -0.226503
I4    I     I_    0.044256 0.768108 0.974863 -0.159687
I5    I     I_    0.147589 0.716880 0.737575 -0.173532
I6    I     I_    0.676060 0.571622 0.770803 -0.230874
N1    N     N_2   0.148330 0.498670 0.499030 -0.034528
N2    N     N_2   0.852680 0.498640 0.499000 -0.169083
O1    O     O_R   0.386950 0.680940 0.500010 -0.576833
O2    O     O_2   0.802862 0.135863 0.961350 -0.529129
O3    O     O_2   0.190999 0.579519 0.259272 -0.503760
O4    O     O_R   0.613110 0.680900 0.499990 -0.593211
O5    O     O_R   0.322330 0.500030 0.632270 -0.577326
O6    O     O_R   0.548480 0.499990 0.632240 -0.584748
O7    O     O_R   0.386890 0.319100 0.500010 -0.609530
O8    O     O_R   0.613050 0.319060 0.499990 -0.620220
O9    O     O_R   0.451520 0.500010 0.367760 -0.625390
O10   O     O_R   0.677670 0.499970 0.367730 -0.589009
O11   O     O_2   0.994924 0.592154 0.183469 -0.489518
Zn1   Zn    Zn3+2 0.349000 0.500030 0.500020 1.045990
Zn2   Zn    Zn3+2 0.651000 0.499970 0.499980 1.025785

loop_
_geom_bond_atom_site_label_1
_geom_bond_atom_site_label_2
_ccdc_geom_bond_type
C4    O6    A    
O10   Zn2   S    
C19   C23   A    
C22   C29   S    
C22   O11   D    
H9    N2    S    
I3    N1    S    
C14   N2    D    
C1    C11   S    
C5    H1    S    
O4    Zn2   S    
C7    C18   A    
C3    C27   A    
C2    C3    A    
C9    C15   S    
O5    Zn1   S    
C13   C14   S    
C4    O5    A    
C25   C28   S    
N1    Zn1   S    
C12   C23   A    
C26   C27   A    
C20   I5    S    
C25   H4    S    
O9    Zn1   S    
C5    C6    A    
C4    C17   S    
C23   C29   A    
C21   I6    S    
C28   C29   A    
C15   O7    A    
C13   H7    S    
C26   C30   A    
C3    C7    A    
C7    H10   S    
C6    H11   S    
C30   C31   A    
C6    C18   A    
C1    O1    A    
C19   I4    S    
C30   H12   S    
C24   C31   S    
C2    C5    A    
C11   I2    S    
C10   C11   D    
C10   I1    S    
C13   N1    D    
O8    Zn2   S    
C27   C28   A    
C17   C20   A    
C25   O3    D    
O6    Zn2   S    
C16   C18   S    
C9    H6    S    
C8    H5    S    
C12   C26   A    
O7    Zn1   S    
C22   H2    S    
C8    C9    D    
C16   O10   A    
C24   O2    D    
C16   O9    A    
C15   O8    A    
C12   C21   A    
C8    C10   S    
C17   C21   A    
N2    Zn2   S    
C19   C20   A    
C14   H8    S    
C2    C31   A    
C1    O4    A    
O1    Zn1   S    
C24   H3    S    
