data_mof_unit_27961.cif
_audit_creation_date              2013-03-05T15:52:31-0500
_audit_creation_method            fapswitch 2.2
_symmetry_space_group_name_H-M    P1
_symmetry_Int_Tables_number       1
_space_group_crystal_system       triclinic
_cell_length_a                    6.938964
_cell_length_b                    20.411418
_cell_length_c                    24.468631
_cell_angle_alpha                 89.669372
_cell_angle_beta                  90.667741
_cell_angle_gamma                 89.591843
_cell_volume                      3465.20974448

loop_
_atom_site_label
_atom_site_type_symbol
_atom_site_description
_atom_site_fract_x
_atom_site_fract_y
_atom_site_fract_z
_atom_type_partial_charge
O1    O     O_R   0.507310 0.423620 0.460450 -0.590457
O2    O     O_R   0.170760 0.556060 0.437190 -0.583687
O3    O     O_R   0.004040 0.576380 0.539550 -0.595792
C1    C     C_R   0.338743 0.576404 0.421435 1.050985
O4    O     O_R   0.177350 0.422870 0.454070 -0.578361
O5    O     O_R   0.010680 0.442240 0.556560 -0.595072
C2    C     C_R   0.346802 0.399127 0.443070 1.039811
O6    O     O_R   0.500670 0.557760 0.443440 -0.593234
O7    O     O_3   0.340380 0.506510 0.533610 -0.287519
V1    V     V_3+5 0.064130 0.498790 0.493770 1.199732
O8    O     O_R   0.681170 0.443940 0.562810 -0.599672
C3    C     C_R   0.851041 0.423999 0.578777 0.974819
O9    O     O_R   0.674570 0.577130 0.545930 -0.596738
C4    C     C_R   0.844150 0.601441 0.556237 0.944552
V2    V     V_3+5 0.564560 0.501210 0.506230 1.177433
O10   O     O_3   0.838170 0.493490 0.466390 -0.256761
C5    C     C_R   0.965502 0.839857 0.908786 -0.253773
C6    C     C_R   0.862983 0.663771 0.586094 -0.152164
C7    C     C_R   0.887092 0.724595 0.905458 -0.158816
C8    C     C_R   0.935867 0.780010 0.935206 -0.217909
C9    C     C_R   0.951879 0.843630 0.850887 0.266989
C10   C     C_R   0.925656 0.784823 0.819594 -0.032593
C11   C     C_R   0.878436 0.726749 0.848249 0.160831
C12   C     C_R   0.945766 0.781056 0.761200 0.055856
C13   C     C_R   0.882730 0.724712 0.731930 0.084329
C14   C     C_R   0.815923 0.670835 0.762850 -0.193146
C15   C     C_R   0.821559 0.671100 0.819652 -0.210808
C16   C     C_R   0.050356 0.828289 0.732825 -0.152566
C17   C     C_R   0.075264 0.827023 0.676208 0.088396
C18   C     C_R   0.989685 0.775717 0.644782 -0.087329
C19   C     C_R   0.898752 0.722619 0.673323 0.068318
C20   C     C_R   0.999804 0.772818 0.586349 0.367233
C21   C     C_R   0.941568 0.716708 0.558710 -0.250675
C22   C     C_R   0.835237 0.667481 0.642464 -0.235419
H1    H     H_    0.779138 0.627219 0.841486 0.132923
H2    H     H_    0.771648 0.625040 0.661022 0.108654
H3    H     H_    0.959755 0.714175 0.514787 0.141777
H4    H     H_    0.855417 0.679721 0.927383 0.124970
H5    H     H_    0.940033 0.777041 0.979443 0.124966
H6    H     H_    0.767439 0.625879 0.744789 0.123373
H7    H     H_    0.131043 0.864045 0.755720 0.170354
C23   C     C_3   0.766806 0.260471 0.804794 -0.451253
C24   C     C_3   0.119100 0.247336 0.784622 -0.410156
C25   C     C_3   0.100660 0.296283 0.735835 -0.395159
H8    H     H_    0.801138 0.285120 0.844143 0.161870
H9    H     H_    0.238794 0.212139 0.776849 0.161210
H10   H     H_    0.157262 0.274580 0.822460 0.151731
H11   H     H_    0.138449 0.346402 0.749594 0.144687
H12   H     H_    0.206889 0.282697 0.704022 0.158711
C26   C     C_1   0.863975 0.379318 0.625003 -0.283456
C27   C     C_3   0.928023 0.209629 0.792912 0.382666
C28   C     C_3   0.744239 0.311391 0.756806 0.010254
C29   C     C_3   0.893631 0.295521 0.710923 0.359574
C30   C     C_3   0.854771 0.224609 0.691022 -0.450578
C31   C     C_3   0.876039 0.174488 0.738815 -0.359224
C32   C     C_1   0.876784 0.341751 0.663605 -0.105175
C33   C     C_1   0.947202 0.161481 0.838668 -0.070216
C34   C     C_1   0.960580 0.122415 0.876200 -0.235770
H13   H     H_    0.738757 0.147251 0.743481 0.168661
H14   H     H_    0.990096 0.137956 0.728951 0.176750
H15   H     H_    0.706949 0.221492 0.673111 0.158423
H16   H     H_    0.627356 0.234854 0.810590 0.143978
H17   H     H_    0.597755 0.305489 0.738366 0.113072
H18   H     H_    0.957342 0.211440 0.658141 0.176124
C35   C     C_3   0.584789 0.694832 0.260258 0.002422
C36   C     C_3   0.223541 0.704715 0.250949 -0.472468
C37   C     C_3   0.254577 0.752096 0.201814 -0.397654
H19   H     H_    0.637367 0.725849 0.174458 0.180801
H20   H     H_    0.085430 0.717322 0.271200 0.154957
H21   H     H_    0.207297 0.653826 0.235810 0.185493
H22   H     H_    0.272215 0.722805 0.163950 0.170627
H23   H     H_    0.123832 0.783018 0.195245 0.154814
C38   C     C_1   0.476193 0.879000 0.125133 -0.294806
C39   C     C_3   0.394220 0.708920 0.292627 0.288504
C40   C     C_3   0.612885 0.748491 0.215087 -0.488306
C41   C     C_3   0.436030 0.795370 0.210931 0.316780
C42   C     C_3   0.418905 0.832562 0.266832 -0.051776
C43   C     C_3   0.391324 0.781377 0.314770 -0.074337
C44   C     C_1   0.461106 0.841412 0.163669 -0.074516
C45   C     C_1   0.366551 0.660933 0.338313 -0.088707
C46   C     C_1   0.349157 0.622178 0.375876 -0.242819
H24   H     H_    0.241990 0.788335 0.330078 0.124634
H25   H     H_    0.556231 0.859388 0.273268 0.128610
H26   H     H_    0.707907 0.697296 0.288910 0.116988
H27   H     H_    0.744917 0.777110 0.224540 0.133012
C47   C     C_R   0.462994 0.162568 0.087708 -0.123497
C48   C     C_R   0.361642 0.339269 0.409634 -0.257381
C49   C     C_R   0.368901 0.277577 0.088316 0.209222
C50   C     C_R   0.409442 0.219696 0.060018 -0.221865
C51   C     C_R   0.468708 0.162102 0.144937 -0.209657
C52   C     C_R   0.434658 0.220231 0.175321 0.059437
C53   C     C_R   0.407778 0.280073 0.145713 -0.058125
C54   C     C_R   0.426501 0.220932 0.233980 0.080714
C55   C     C_R   0.405028 0.281801 0.262141 0.024882
C56   C     C_R   0.424692 0.339684 0.231460 -0.197672
C57   C     C_R   0.426102 0.339816 0.174424 0.292086
C58   C     C_R   0.439423 0.162886 0.265461 -0.174707
C59   C     C_R   0.442677 0.164627 0.322139 -0.204334
C60   C     C_R   0.420224 0.223581 0.349981 0.159918
C61   C     C_R   0.386482 0.282933 0.320746 -0.005995
C62   C     C_R   0.431902 0.223171 0.407154 -0.159777
C63   C     C_R   0.410779 0.280827 0.436365 -0.212037
C64   C     C_R   0.338505 0.340316 0.351902 0.267049
H28   H     H_    0.428185 0.279565 0.480437 0.125806
H29   H     H_    0.461215 0.118950 0.344516 0.130827
H30   H     H_    0.390063 0.218149 0.016014 0.103817
H31   H     H_    0.500130 0.115644 0.164283 0.096450
H32   H     H_    0.454105 0.385539 0.251415 0.202700
H33   H     H_    0.450341 0.114938 0.247619 0.122166
H34   H     H_    0.462296 0.178119 0.429401 0.126661
O11   O     O_R   0.323590 0.942280 0.056590 -0.596279
O12   O     O_R   0.647030 0.077140 0.045940 -0.598221
O13   O     O_R   0.813570 0.057750 0.943430 -0.591399
C65   C     C_R   0.477579 0.101168 0.056571 0.925599
O14   O     O_R   0.653510 0.943950 0.062820 -0.596583
O15   O     O_R   0.820100 0.923600 0.960440 -0.590974
C66   C     C_R   0.485615 0.923895 0.078838 0.973356
O16   O     O_R   0.317060 0.076430 0.039590 -0.598027
O17   O     O_3   0.483830 0.993520 0.966410 -0.252134
V3    V     V_3+5 0.760140 0.001200 0.006230 1.177658
O18   O     O_R   0.149560 0.922820 0.954030 -0.575872
C67   C     C_R   0.980077 0.899128 0.943018 1.038627
O19   O     O_R   0.143080 0.056020 0.937150 -0.581417
C68   C     C_R   0.973304 0.076391 0.921496 1.038170
V4    V     V_3+5 0.259690 0.998730 0.993720 1.197161
O20   O     O_3   0.986120 0.006480 0.033580 -0.288864
N1    N     N_R   0.062368 0.826245 0.553037 0.212997
O21   O     O_R   0.207522 0.817635 0.520584 -0.439722
O22   O     O_R   0.943654 0.874586 0.543108 -0.442735
C69   C     C_3   0.757632 0.382796 0.778073 -0.414376
C70   C     C_3   0.578535 0.402730 0.810571 -0.260214
C71   C     C_3   0.594671 0.472968 0.831140 -0.921869
H35   H     H_    0.722053 0.477806 0.858709 0.261245
H36   H     H_    0.608462 0.507599 0.796227 0.256800
H37   H     H_    0.463274 0.486102 0.854243 0.252450
H38   H     H_    0.448083 0.399069 0.784012 0.190922
H39   H     H_    0.560260 0.369542 0.846245 0.198980
H40   H     H_    0.888403 0.388337 0.804284 0.197553
H41   H     H_    0.770386 0.417476 0.743189 0.192793
C72   C     C_3   0.593684 0.624717 0.235595 -0.350830
C73   C     C_3   0.801499 0.603883 0.222667 -0.416536
C74   C     C_3   0.808854 0.535852 0.197253 -0.618918
H42   H     H_    0.745472 0.499054 0.225304 0.275096
H43   H     H_    0.728671 0.535796 0.157711 0.267536
H44   H     H_    0.961089 0.521861 0.189599 0.248971
H45   H     H_    0.866897 0.639399 0.193874 0.210917
H46   H     H_    0.888967 0.603004 0.261027 0.222124
H47   H     H_    0.535127 0.588444 0.264935 0.221808
H48   H     H_    0.504025 0.622352 0.197707 0.210784
C75   C     C_3   0.516235 0.796129 0.366815 -0.394031
C76   C     C_3   0.735685 0.786176 0.362779 -0.365241
C77   C     C_3   0.843002 0.824199 0.407105 -0.752951
H49   H     H_    0.821505 0.877743 0.401021 0.254723
H50   H     H_    0.790657 0.809860 0.448176 0.284195
H51   H     H_    0.999653 0.813108 0.405125 0.240201
H52   H     H_    0.771139 0.733576 0.369328 0.203852
H53   H     H_    0.789514 0.802460 0.322454 0.195232
H54   H     H_    0.488248 0.847683 0.378583 0.204789
H55   H     H_    0.463795 0.765990 0.401525 0.203253
C78   C     C_3   0.254606 0.885232 0.265235 -0.439614
C79   C     C_3   0.257608 0.930955 0.314898 -0.265825
C80   C     C_3   0.116906 0.988177 0.307022 -0.901121
H56   H     H_    0.158001 0.018320 0.271103 0.256947
H57   H     H_    0.967923 0.969754 0.300950 0.258103
H58   H     H_    0.120118 0.019708 0.343851 0.255439
H59   H     H_    0.214759 0.903559 0.352085 0.209083
H60   H     H_    0.404899 0.950803 0.321269 0.197189
H61   H     H_    0.269299 0.916216 0.228093 0.206980
H62   H     H_    0.111438 0.861284 0.262807 0.189722
N2    N     N_R   0.474482 0.399933 0.147143 0.222279
O23   O     O_R   0.406273 0.455505 0.164520 -0.424523
O24   O     O_R   0.602334 0.400048 0.108645 -0.436154
N3    N     N_R   0.246053 0.396227 0.326759 0.219392
O25   O     O_R   0.310390 0.455036 0.335384 -0.452041
O26   O     O_R   0.092845 0.388492 0.296361 -0.389910
C81   C     C_3   0.262953 0.331730 0.056797 -0.375517
C82   C     C_3   0.068842 0.307822 0.033503 -0.316548
C83   C     C_3   0.958376 0.363171 0.004564 -0.826597
H63   H     H_    0.927757 0.403548 0.033510 0.291258
H64   H     H_    0.043303 0.382486 0.969877 0.240848
H65   H     H_    0.819244 0.344360 0.988417 0.243914
H66   H     H_    0.091566 0.267850 0.003611 0.191658
H67   H     H_    0.979228 0.288536 0.067304 0.229925
H68   H     H_    0.227923 0.373891 0.083090 0.231465
H69   H     H_    0.355524 0.349267 0.023018 0.201013
C84   C     C_3   0.216708 0.877216 0.654320 -0.374753
C85   C     C_3   0.414453 0.845609 0.644614 -0.286569
C86   C     C_3   0.559092 0.896301 0.625242 -0.734166
H70   H     H_    0.514718 0.916307 0.584665 0.274147
H71   H     H_    0.570875 0.936946 0.655065 0.251062
H72   H     H_    0.702558 0.872823 0.621784 0.263260
H73   H     H_    0.469312 0.823382 0.683450 0.208027
H74   H     H_    0.403305 0.806047 0.613832 0.232698
H75   H     H_    0.161320 0.904099 0.618220 0.239686
H76   H     H_    0.238056 0.917224 0.684459 0.192624
N4    N     N_R   0.933858 0.907164 0.825543 0.209757
O27   O     O_R   0.058305 0.952876 0.836175 -0.439454
O28   O     O_R   0.789898 0.919869 0.792500 -0.403761

loop_
_geom_bond_atom_site_label_1
_geom_bond_atom_site_label_2
_geom_bond_distance
_ccdc_geom_bond_type
C25   H12   1.113177 S    
C13   C19   1.440476 A    
C40   C41   1.552791 S    
C62   C63   1.388172 A    
C31   H13   1.113064 S    
C4    C6    1.476562 S    
O2    C1    1.302022 A    
C56   C57   1.395733 A    
C41   C44   1.498416 S    
C64   N3    1.436914 S    
C1    O6    1.294084 A    
C24   C27   1.552561 S    
C72   H47   1.110675 S    
O12   C65   1.300432 A    
C83   H63   1.110733 S    
C51   C52   1.423569 A    
O19   C68   1.299274 A    
C42   C43   1.580478 S    
H19   C40   1.113037 S    
O13   C68   1.295710 A    
C14   C15   1.390014 A    
C54   C55   1.431860 A    
C59   H29   1.084589 S    
O15   C67   1.291937 A    
C86   H72   1.106103 S    
C76   H53   1.109101 S    
C20   N1    1.430663 S    
C16   C17   1.398452 A    
C51   H31   1.077181 S    
O5    C3    1.295684 A    
C18   C19   1.439371 A    
V3    O20   1.702082 S    
O19   V4    1.969738 S    
C36   H20   1.113201 S    
N2    O23   1.301574 A    
C42   H25   1.112457 S    
C82   H66   1.110508 S    
C48   C63   1.395353 A    
C16   H7    1.078514 S    
C53   C57   1.416586 A    
C5    C8    1.396403 A    
C17   C84   1.523153 S    
C86   H71   1.110882 S    
C37   H23   1.111107 S    
C35   C72   1.557487 S    
O8    V2    1.969669 S    
C25   C29   1.554206 S    
C40   H27   1.112807 S    
C2    C48   1.477982 S    
C1    C46   1.453161 S    
C49   C53   1.428272 A    
C71   H35   1.110941 S    
O14   C66   1.301544 A    
C50   H30   1.084196 S    
O11   V4    1.961402 S    
C76   C77   1.527198 S    
O1    V2    1.984902 S    
O16   V4    1.988121 S    
C11   C15   1.394536 A    
O7    V1    2.147581 S    
C23   H16   1.113282 S    
C22   H2    1.075587 S    
C79   H59   1.109886 S    
C23   C27   1.551598 S    
C31   H14   1.113005 S    
C36   C37   1.556505 S    
C39   C45   1.496975 S    
C9    C10   1.438988 A    
C85   H74   1.109925 S    
C74   H44   1.110611 S    
C69   H41   1.110485 S    
C24   H9    1.113055 S    
C58   C59   1.387430 A    
C80   H57   1.111216 S    
C41   C42   1.573488 S    
N3    O26   1.301406 A    
C38   C66   1.455273 S    
C75   H55   1.111998 S    
C84   H76   1.113012 S    
C81   H69   1.111810 S    
C72   C73   1.537459 S    
N4    O28   1.301496 A    
C70   H38   1.111348 S    
C47   C51   1.400395 A    
C52   C53   1.426547 A    
O12   V3    1.995136 S    
C8    H5    1.083815 S    
C45   C46   1.216817 T    
C35   H26   1.100432 S    
C27   C31   1.549276 S    
C15   H1    1.084527 S    
C13   C14   1.415093 A    
C82   H67   1.112391 S    
C28   H17   1.114868 S    
C61   C64   1.440321 A    
C5    C9    1.420378 A    
C35   C39   1.574867 S    
O15   V3    1.989780 S    
C86   H70   1.110743 S    
C23   H8    1.113026 S    
C7    C11   1.400842 A    
C24   C25   1.555771 S    
N1    O22   1.300841 A    
O18   V4    1.986151 S    
C17   C18   1.431121 A    
C70   H39   1.110801 S    
C7    H4    1.083970 S    
C52   C54   1.437237 A    
C80   H58   1.110487 S    
C58   H33   1.076475 S    
C43   H24   1.114363 S    
C83   H64   1.110926 S    
C60   C61   1.419930 A    
C77   H51   1.110410 S    
C55   C61   1.441548 A    
C78   H62   1.111427 S    
C38   C44   1.218116 T    
C19   C22   1.428321 A    
C65   O16   1.291469 A    
C76   H52   1.110067 S    
C12   C13   1.426988 A    
C63   H28   1.083857 S    
C6    C22   1.397318 A    
O18   C67   1.300677 A    
C79   H60   1.111722 S    
O3    C4    1.290038 A    
C73   H45   1.110880 S    
C82   C83   1.526795 S    
C27   C33   1.489619 S    
O17   V4    1.702791 S    
C81   C82   1.540105 S    
C60   C62   1.400330 A    
C77   H49   1.110922 S    
C77   H50   1.110919 S    
O14   V3    1.961591 S    
O6    V2    1.961050 S    
O9    V2    1.986114 S    
V4    O20   2.149522 S    
C10   C12   1.439679 A    
C70   C71   1.526610 S    
C69   H40   1.111871 S    
C54   C58   1.411204 A    
C74   H43   1.110488 S    
C28   C29   1.570506 S    
C43   C75   1.563994 S    
O4    C2    1.300241 A    
C80   H56   1.111047 S    
C29   C32   1.492413 S    
C81   H68   1.104802 S    
C30   C31   1.554332 S    
C75   H54   1.108976 S    
C36   C39   1.557030 S    
O1    C2    1.292509 A    
C84   H75   1.101136 S    
C10   C11   1.416106 A    
C12   C16   1.397209 A    
N4    O27   1.301148 A    
C47   C50   1.391280 A    
C35   C40   1.566325 S    
O5    V1    1.956854 S    
C3    C26   1.450420 S    
O17   V3    2.147669 S    
C29   C30   1.554161 S    
C30   H15   1.113114 S    
C57   N2    1.437224 S    
C34   C68   1.450246 S    
C49   C81   1.523952 S    
C47   C65   1.473899 S    
O11   C66   1.295585 A    
C28   C69   1.553459 S    
C20   C21   1.393380 A    
C7    C8    1.390308 A    
C69   C70   1.536833 S    
C62   H34   1.084056 S    
C48   C64   1.419883 A    
O4    V1    1.995001 S    
O3    V1    1.989664 S    
C79   C80   1.526863 S    
C73   C74   1.525517 S    
C78   C79   1.536515 S    
C18   C20   1.433852 A    
C14   H6    1.075215 S    
C33   C34   1.215051 T    
C36   H21   1.110851 S    
O13   V3    1.957020 S    
N2    O24   1.301492 A    
C71   H37   1.110401 S    
V2    O10   2.149497 S    
C85   H73   1.112588 S    
C21   H3    1.085068 S    
C37   H22   1.113013 S    
C78   H61   1.110285 S    
C9    N4    1.438256 S    
O7    V2    1.703846 S    
C55   C56   1.404465 A    
C6    C21   1.386497 A    
C26   C32   1.215207 T    
C83   H65   1.110742 S    
C56   H32   1.077860 S    
C73   H46   1.111780 S    
C42   C78   1.561435 S    
N3    O25   1.301194 A    
C25   H11   1.111023 S    
C5    C67   1.478800 S    
C85   C86   1.524079 S    
C49   C50   1.401282 A    
C30   H18   1.113217 S    
C71   H36   1.111094 S    
C59   C60   1.394856 A    
C39   C43   1.578079 S    
C74   H42   1.111072 S    
V1    O10   1.702267 S    
C37   C41   1.557840 S    
C84   C85   1.533670 S    
O9    C4    1.302817 A    
C24   H10   1.113038 S    
C72   H48   1.111901 S    
N1    O21   1.301412 A    
O8    C3    1.299351 A    
C23   C28   1.569331 S    
C75   C76   1.539199 S    
O2    V1    1.961660 S    
