data_mof_unit_36038.cif
_audit_creation_date              2012-12-11T20:13:31-0500
_audit_creation_method            fapswitch 2.2
_symmetry_space_group_name_H-M    P1
_symmetry_Int_Tables_number       1
_space_group_crystal_system       triclinic
_cell_length_a                    21.920551
_cell_length_b                    26.476857
_cell_length_c                    8.45406
_cell_angle_alpha                 90.0
_cell_angle_beta                  102.008507
_cell_angle_gamma                 89.999259
_cell_volume                      4799.25587257

loop_
_atom_site_label
_atom_site_type_symbol
_atom_type_description
_atom_site_fract_x
_atom_site_fract_y
_atom_site_fract_z
_atom_type_partial_charge
Ba1   Ba    Ba6+2 0.999850 0.464270 0.844920 1.617047
Ba2   Ba    Ba6+2 0.999850 0.535730 0.344920 1.617024
Ba3   Ba    Ba6+2 0.499850 0.964270 0.844920 1.617020
Ba4   Ba    Ba6+2 0.499850 0.035730 0.344920 1.617008
C1    C     C_3   0.045147 0.224699 0.709457 -0.190971
C2    C     C_3   0.045200 0.775253 0.209453 -0.191047
C3    C     C_3   0.545206 0.724748 0.709461 -0.191046
C4    C     C_3   0.545225 0.275234 0.209434 -0.191083
C5    C     C_3   0.888218 0.335650 0.351769 0.009062
C6    C     C_3   0.888215 0.664344 0.851751 0.009070
C7    C     C_3   0.388217 0.835655 0.351752 0.009071
C8    C     C_3   0.388208 0.164341 0.851752 0.009079
C9    C     C_2   0.831733 0.307235 0.297183 0.001418
C10   C     C_2   0.831738 0.692769 0.797165 0.001466
C11   C     C_2   0.331740 0.807230 0.297168 0.001460
C12   C     C_2   0.331729 0.192763 0.797170 0.001489
C13   C     C_2   0.806124 0.307703 0.128069 0.009186
C14   C     C_2   0.806130 0.692303 0.628051 0.009262
C15   C     C_2   0.306130 0.807698 0.128055 0.009281
C16   C     C_2   0.306123 0.192299 0.628056 0.009271
C17   C     C_2   0.823967 0.347133 0.032925 -0.172561
C18   C     C_2   0.823959 0.652863 0.532916 -0.172638
C19   C     C_2   0.323958 0.847137 0.032919 -0.172639
C20   C     C_2   0.323950 0.152859 0.532919 -0.172659
C21   C     C_1   0.861540 0.386583 0.104866 0.072498
C22   C     C_1   0.861529 0.613412 0.604864 0.072513
C23   C     C_1   0.361529 0.886588 0.104865 0.072496
C24   C     C_1   0.361524 0.113410 0.604864 0.072528
C25   C     C_R   0.164886 0.696379 0.879164 -0.117796
C26   C     C_R   0.164904 0.303631 0.379150 -0.117811
C27   C     C_R   0.664880 0.196383 0.879167 -0.117793
C28   C     C_R   0.664893 0.803625 0.379155 -0.117802
C29   C     C_R   0.114086 0.661412 0.820869 0.014986
C30   C     C_R   0.114109 0.338601 0.320842 0.014960
C31   C     C_R   0.614081 0.161414 0.820870 0.015000
C32   C     C_R   0.614091 0.838591 0.320861 0.014990
C33   C     C_R   0.138305 0.614070 0.078998 0.071325
C34   C     C_R   0.138308 0.385932 0.578994 0.071307
C35   C     C_R   0.638305 0.114070 0.078995 0.071312
C36   C     C_R   0.638308 0.885931 0.578993 0.071306
C37   C     C_R   0.185993 0.646352 0.133643 -0.142776
C38   C     C_R   0.185988 0.353643 0.633659 -0.142746
C39   C     C_R   0.685992 0.146352 0.133640 -0.142796
C40   C     C_R   0.685997 0.853649 0.633638 -0.142783
C41   C     C_R   0.200751 0.689613 0.033992 0.020695
C42   C     C_R   0.200752 0.310386 0.534003 0.020687
C43   C     C_R   0.700747 0.189615 0.033993 0.020699
C44   C     C_R   0.700757 0.810390 0.533985 0.020697
C45   C     C_3   0.967912 0.287169 0.028893 0.316631
C46   C     C_3   0.967829 0.712768 0.528661 0.316679
C47   C     C_3   0.467834 0.787232 0.028671 0.316671
C48   C     C_3   0.467799 0.212747 0.528577 0.316681
C49   C     C_2   0.756472 0.271972 0.050507 -0.089293
C50   C     C_2   0.756482 0.728035 0.550490 -0.089348
C51   C     C_2   0.256479 0.771966 0.050496 -0.089347
C52   C     C_2   0.256474 0.228031 0.550502 -0.089391
C53   C     C_2   0.254491 0.723149 0.096320 -0.063655
C54   C     C_2   0.254488 0.276847 0.596337 -0.063692
C55   C     C_2   0.754484 0.223154 0.096328 -0.063696
C56   C     C_2   0.754496 0.776852 0.596312 -0.063664
C57   C     C_R   0.101465 0.620627 0.930639 -0.274845
C58   C     C_R   0.101482 0.379384 0.430615 -0.274805
C59   C     C_R   0.601463 0.120628 0.930639 -0.274853
C60   C     C_R   0.601469 0.879376 0.430633 -0.274840
C61   C     C_3   0.931789 0.237629 0.001758 -0.345863
C62   C     C_3   0.931610 0.762259 0.501271 -0.345045
C63   C     C_3   0.431618 0.737740 0.001286 -0.345054
C64   C     C_3   0.431546 0.262220 0.501076 -0.344665
C65   C     C_3   0.206744 0.479925 0.324650 0.260399
C66   C     C_3   0.206734 0.520081 0.824642 0.260418
C67   C     C_3   0.706736 0.979920 0.324645 0.260442
C68   C     C_3   0.706731 0.020082 0.824642 0.260445
C69   C     C_3   0.275457 0.481266 0.417242 -0.198784
C70   C     C_3   0.275451 0.518751 0.917206 -0.198788
C71   C     C_3   0.775451 0.981256 0.417227 -0.198787
C72   C     C_3   0.775447 0.018749 0.917217 -0.198791
C73   C     C_3   0.801514 0.525588 0.888722 0.301696
C74   C     C_3   0.801516 0.474412 0.388708 0.301714
C75   C     C_3   0.301514 0.025587 0.888711 0.301725
C76   C     C_3   0.301522 0.974404 0.388741 0.301689
C77   C     C_3   0.735054 0.547827 0.865714 -0.062585
C78   C     C_3   0.735054 0.452177 0.365698 -0.062581
C79   C     C_3   0.235058 0.047833 0.865761 -0.062606
C80   C     C_3   0.235055 0.952177 0.365677 -0.062521
C81   C     C_3   0.015407 0.271971 0.617298 0.352434
C82   C     C_3   0.015407 0.728029 0.117119 0.352224
C83   C     C_3   0.515412 0.771972 0.617129 0.352223
C84   C     C_3   0.515411 0.228026 0.117048 0.352152
C85   C     C_2   0.890380 0.382478 0.267055 -0.268772
C86   C     C_2   0.890361 0.617513 0.767058 -0.268780
C87   C     C_2   0.390360 0.882487 0.267059 -0.268749
C88   C     C_2   0.390358 0.117510 0.767057 -0.268817
H1    H     H_    0.045422 0.305112 0.661254 0.078211
H2    H     H_    0.045415 0.694866 0.160862 0.078063
H3    H     H_    0.545418 0.805135 0.660879 0.078071
H4    H     H_    0.545416 0.194855 0.160724 0.078016
H5    H     H_    0.282850 0.514953 0.496956 0.053740
H6    H     H_    0.282861 0.485063 0.996913 0.053736
H7    H     H_    0.782850 0.014944 0.496934 0.053730
H8    H     H_    0.782851 0.985061 0.996925 0.053734
H9    H     H_    0.306222 0.485795 0.328682 0.120313
H10   H     H_    0.306211 0.514231 0.828627 0.120311
H11   H     H_    0.806214 0.985779 0.328660 0.120305
H12   H     H_    0.806209 0.014226 0.828646 0.120303
H13   H     H_    0.813442 0.518206 0.770048 0.035845
H14   H     H_    0.813442 0.481799 0.270034 0.035841
H15   H     H_    0.313422 0.018197 0.770019 0.035855
H16   H     H_    0.313471 0.981776 0.270084 0.035800
H17   H     H_    0.836227 0.551786 0.960310 0.028576
H18   H     H_    0.836228 0.448211 0.460283 0.028553
H19   H     H_    0.336238 0.051783 0.960264 0.028553
H20   H     H_    0.336221 0.948205 0.460379 0.028615
H21   H     H_    0.700951 0.516723 0.827973 0.126712
H22   H     H_    0.700953 0.483282 0.327949 0.126701
H23   H     H_    0.200945 0.016728 0.828109 0.126720
H24   H     H_    0.200960 0.983282 0.327828 0.126669
H25   H     H_    0.023720 0.189751 0.649135 0.110148
H26   H     H_    0.023738 0.810230 0.149424 0.110236
H27   H     H_    0.523745 0.689771 0.649428 0.110238
H28   H     H_    0.523744 0.310221 0.149510 0.110271
H29   H     H_    0.881038 0.245276 0.981318 0.095372
H30   H     H_    0.944552 0.787058 0.608758 0.121109
H31   H     H_    0.444567 0.712939 0.108768 0.121113
H32   H     H_    0.444321 0.286980 0.608775 0.120941
H33   H     H_    0.791524 0.208236 0.190432 0.093393
H34   H     H_    0.791536 0.791770 0.690415 0.093400
H35   H     H_    0.291532 0.708230 0.190422 0.093400
H36   H     H_    0.291528 0.291763 0.690445 0.093394
H37   H     H_    0.803736 0.348761 0.904402 0.104195
H38   H     H_    0.803725 0.651233 0.404395 0.104159
H39   H     H_    0.303722 0.848768 0.904399 0.104152
H40   H     H_    0.303716 0.151229 0.404398 0.104142
H41   H     H_    0.175684 0.725018 0.798005 0.074763
H42   H     H_    0.175711 0.274996 0.297988 0.074755
H43   H     H_    0.675674 0.225024 0.798013 0.074769
H44   H     H_    0.675692 0.774987 0.297996 0.074763
H45   H     H_    0.220181 0.787251 0.955513 0.069766
H46   H     H_    0.220174 0.212749 0.455516 0.069774
H47   H     H_    0.720176 0.287257 0.955518 0.069770
H48   H     H_    0.720182 0.712751 0.455508 0.069768
H49   H     H_    0.215934 0.639757 0.250894 0.073497
H50   H     H_    0.215920 0.360232 0.750926 0.073525
H51   H     H_    0.715934 0.139757 0.250889 0.073488
H52   H     H_    0.715937 0.860243 0.750891 0.073490
H53   H     H_    0.916242 0.414202 0.328939 0.065125
H54   H     H_    0.916220 0.585786 0.828945 0.065107
H55   H     H_    0.416209 0.914216 0.328954 0.065086
H56   H     H_    0.416230 0.085789 0.828933 0.065127
H57   H     H_    0.064619 0.593977 0.884981 0.081570
H58   H     H_    0.064644 0.406040 0.384943 0.081563
H59   H     H_    0.564617 0.093978 0.884983 0.081576
H60   H     H_    0.564623 0.906026 0.384976 0.081577
H61   H     H_    0.035969 0.224579 0.832688 0.168039
H62   H     H_    0.036114 0.775283 0.332771 0.168052
H63   H     H_    0.536117 0.724717 0.832777 0.168051
H64   H     H_    0.536179 0.275232 0.332795 0.168038
H65   H     H_    0.954856 0.311047 0.920027 0.126771
H66   H     H_    0.954929 0.688886 0.419773 0.126930
H67   H     H_    0.454931 0.811113 0.919781 0.126926
H68   H     H_    0.454955 0.188860 0.419684 0.126982
H69   H     H_    0.953572 0.307180 0.129430 -0.022892
H70   H     H_    0.953417 0.692729 0.629046 -0.022846
H71   H     H_    0.453423 0.807270 0.129056 -0.022843
H72   H     H_    0.453359 0.192703 0.628915 -0.022835
H73   H     H_    0.940774 0.217599 0.893909 0.144482
H74   H     H_    0.880870 0.754510 0.479270 0.095398
H75   H     H_    0.380878 0.745488 0.979305 0.095402
H76   H     H_    0.380784 0.254429 0.478525 0.095418
H77   H     H_    0.945252 0.212674 0.108776 0.121625
H78   H     H_    0.941025 0.782503 0.394309 0.144410
H79   H     H_    0.441028 0.717498 0.894315 0.144412
H80   H     H_    0.441122 0.282532 0.394358 0.144399
H81   H     H_    0.174911 0.482282 0.410489 0.053302
H82   H     H_    0.174909 0.517717 0.910499 0.053309
H83   H     H_    0.674906 0.982281 0.410491 0.053311
H84   H     H_    0.674903 0.017719 0.910492 0.053312
O1    O     O_2   0.875320 0.428620 0.822840 -0.462022
O2    O     O_2   0.875320 0.571380 0.322840 -0.462058
O3    O     O_2   0.375320 0.928620 0.822840 -0.462065
O4    O     O_2   0.375320 0.071380 0.322840 -0.462045
O5    O     O_3   0.199584 0.479612 0.716079 -0.668603
O6    O     O_3   0.199588 0.520392 0.216079 -0.668604
O7    O     O_3   0.699582 0.979614 0.716076 -0.668601
O8    O     O_3   0.699584 0.020387 0.216076 -0.668602
O9    O     O_3   0.032459 0.277549 0.063718 -0.617584
O10   O     O_3   0.032356 0.722457 0.563922 -0.617719
O11   O     O_3   0.532362 0.777543 0.063928 -0.617719
O12   O     O_3   0.532322 0.222461 0.564001 -0.617771
O13   O     O_3   0.072510 0.524860 0.092920 -0.479636
O14   O     O_3   0.072510 0.475140 0.592920 -0.479636
O15   O     O_3   0.572510 0.024860 0.092920 -0.479620
O16   O     O_3   0.572510 0.975140 0.592920 -0.479618
O17   O     O_3   0.927380 0.474960 0.096800 -0.480947
O18   O     O_3   0.927380 0.525040 0.596800 -0.480937
O19   O     O_3   0.427380 0.974960 0.096800 -0.480927
O20   O     O_3   0.427380 0.025040 0.596800 -0.480947
O21   O     O_3   0.978260 0.384470 0.628120 -0.477105
O22   O     O_3   0.978260 0.615530 0.128120 -0.477112
O23   O     O_3   0.478260 0.884470 0.628120 -0.477115
O24   O     O_3   0.478260 0.115530 0.128120 -0.477112
O25   O     O_2   0.872434 0.347458 0.675317 -0.501231
O26   O     O_2   0.872443 0.652556 0.175310 -0.501312
O27   O     O_2   0.372443 0.847445 0.675311 -0.501303
O28   O     O_2   0.372450 0.152562 0.175328 -0.501352
O29   O     O_3   0.800349 0.480305 0.972004 -0.670322
O30   O     O_3   0.800352 0.519692 0.472007 -0.670311
O31   O     O_3   0.300352 0.980308 0.972013 -0.670309
O32   O     O_3   0.300350 0.019693 0.471990 -0.670312
O33   O     O_3   0.955042 0.278794 0.649406 -0.617804
O34   O     O_3   0.955059 0.721207 0.149333 -0.617795
O35   O     O_3   0.455062 0.778793 0.649336 -0.617793
O36   O     O_3   0.455069 0.221207 0.149306 -0.617803
O37   O     O_2   0.124210 0.428020 0.866900 -0.472628
O38   O     O_2   0.124210 0.571980 0.366900 -0.472695
O39   O     O_2   0.624210 0.928020 0.866900 -0.472694
O40   O     O_2   0.624210 0.071980 0.366900 -0.472719
O41   O     O_3   0.021040 0.384370 0.061630 -0.493710
O42   O     O_3   0.021040 0.615630 0.561630 -0.493759
O43   O     O_3   0.521040 0.884370 0.061630 -0.493754
O44   O     O_3   0.521040 0.115630 0.561630 -0.493775
O45   O     O_2   0.118238 0.337541 0.990910 -0.487118
O46   O     O_2   0.118178 0.662534 0.490886 -0.487142
O47   O     O_2   0.618178 0.837467 0.990876 -0.487147
O48   O     O_2   0.618155 0.162561 0.490866 -0.487151
P1    P     P_3+3 0.869190 0.445350 0.992760 0.971506
P2    P     P_3+3 0.869190 0.554650 0.492760 0.971490
P3    P     P_3+3 0.369190 0.945350 0.992760 0.971491
P4    P     P_3+3 0.369190 0.054650 0.492760 0.971488
P5    P     P_3+3 0.130420 0.444720 0.696970 0.974990
P6    P     P_3+3 0.130420 0.555280 0.196970 0.974971
P7    P     P_3+3 0.630420 0.944720 0.696970 0.974983
P8    P     P_3+3 0.630420 0.055280 0.196970 0.974973
P9    P     P_3+3 0.072806 0.334709 0.108637 0.932784
P10   P     P_3+3 0.072766 0.665315 0.608679 0.932660
P11   P     P_3+3 0.572769 0.834686 0.108676 0.932664
P12   P     P_3+3 0.572753 0.165324 0.608689 0.932620
P13   P     P_3+3 0.922605 0.662690 0.075324 0.926546
P14   P     P_3+3 0.922600 0.337312 0.575354 0.926695
P15   P     P_3+3 0.422606 0.162690 0.075318 0.926492
P16   P     P_3+3 0.422606 0.837310 0.575325 0.926548
C89   C     C_2   0.295929 0.435263 0.518822 0.432922
H85   H     H_    0.277102 0.427264 0.624434 0.035595
O49   O     O_2   0.334851 0.406712 0.484039 -0.575020
C90   C     C_2   0.295915 0.564755 0.018788 0.432894
H86   H     H_    0.277108 0.572736 0.124445 0.035610
O50   O     O_2   0.334809 0.593324 0.983961 -0.575025
C91   C     C_2   0.795920 0.935254 0.518814 0.432894
H87   H     H_    0.777109 0.927269 0.624463 0.035606
O51   O     O_2   0.834821 0.906689 0.484001 -0.575030
C92   C     C_2   0.795914 0.064752 0.018801 0.432896
H88   H     H_    0.777103 0.072736 0.124449 0.035608
O52   O     O_2   0.834814 0.093316 0.983987 -0.575038
C93   C     C_3   0.721508 0.587695 0.732805 -0.497214
H89   H     H_    0.731805 0.573132 0.618331 0.147678
H90   H     H_    0.671468 0.598515 0.709430 0.140998
H91   H     H_    0.749475 0.621630 0.771466 0.139773
C94   C     C_3   0.721508 0.412306 0.232797 -0.497225
H92   H     H_    0.731813 0.426864 0.118325 0.147683
H93   H     H_    0.749468 0.378369 0.271475 0.139774
H94   H     H_    0.671466 0.401493 0.209410 0.141002
C95   C     C_3   0.221492 0.087682 0.732792 -0.497227
H95   H     H_    0.231762 0.073098 0.618308 0.147688
H96   H     H_    0.171453 0.098506 0.709472 0.140988
H97   H     H_    0.249469 0.121620 0.771367 0.139784
C96   C     C_3   0.221530 0.912283 0.232840 -0.497154
H98   H     H_    0.231893 0.926807 0.118380 0.147649
H99   H     H_    0.249456 0.878333 0.271655 0.139775
H100  H     H_    0.171475 0.901496 0.209352 0.140977
C97   C     C_3   0.723411 0.569511 0.025241 -0.359830
H101  H     H_    0.756713 0.600518 0.069486 0.132098
H102  H     H_    0.675123 0.584450 0.008210 0.110716
H103  H     H_    0.729046 0.539598 0.118894 0.129026
C98   C     C_3   0.723408 0.430497 0.525227 -0.359807
H104  H     H_    0.756708 0.399488 0.569481 0.132097
H105  H     H_    0.729042 0.460412 0.618874 0.129033
H106  H     H_    0.675119 0.415560 0.508194 0.110717
C99   C     C_3   0.223452 0.069544 0.025296 -0.359825
H107  H     H_    0.256761 0.100557 0.069448 0.132115
H108  H     H_    0.175165 0.084483 0.008313 0.110683
H109  H     H_    0.229109 0.039645 0.119003 0.129056
C100  C     C_3   0.223370 0.930526 0.525215 -0.359813
H110  H     H_    0.256668 0.899523 0.569579 0.132067
H111  H     H_    0.228978 0.960460 0.618804 0.129004
H112  H     H_    0.175079 0.915590 0.508132 0.110722
C101  C     C_3   0.011414 0.264417 0.436108 -0.346461
H113  H     H_    0.005439 0.301749 0.377480 0.035030
H114  H     H_    0.054363 0.247563 0.409274 0.099200
H115  H     H_    0.971248 0.239752 0.384584 0.109737
C102  C     C_3   0.011354 0.735661 0.935937 -0.346189
H116  H     H_    0.054303 0.752499 0.909064 0.099320
H117  H     H_    0.005314 0.698360 0.877122 0.035102
H118  H     H_    0.971208 0.760372 0.884631 0.109815
C103  C     C_3   0.511363 0.764343 0.435948 -0.346188
H119  H     H_    0.505323 0.801645 0.377135 0.035102
H120  H     H_    0.554315 0.747506 0.409080 0.099319
H121  H     H_    0.471219 0.739632 0.384634 0.109814
C104  C     C_3   0.511334 0.235679 0.935865 -0.346077
H122  H     H_    0.554281 0.252515 0.908969 0.099367
H123  H     H_    0.505276 0.198387 0.876996 0.035124
H124  H     H_    0.471190 0.260402 0.884630 0.109828
C105  C     C_3   0.115975 0.222370 0.727213 -0.480516
H125  H     H_    0.137896 0.257812 0.781797 0.162212
H126  H     H_    0.128797 0.216001 0.608804 0.132442
H127  H     H_    0.134929 0.190444 0.807793 0.138332
C106  C     C_3   0.116014 0.777598 0.226931 -0.480586
H128  H     H_    0.137961 0.742132 0.281235 0.162160
H129  H     H_    0.135008 0.809481 0.307654 0.138356
H130  H     H_    0.128760 0.784048 0.108474 0.132463
C107  C     C_3   0.616020 0.722403 0.726944 -0.480581
H131  H     H_    0.637965 0.757871 0.781236 0.162158
H132  H     H_    0.628767 0.715949 0.608490 0.132463
H133  H     H_    0.635015 0.690522 0.807678 0.138355
C108  C     C_3   0.616032 0.277586 0.226788 -0.480586
H134  H     H_    0.637994 0.242109 0.280968 0.162124
H135  H     H_    0.635044 0.309451 0.307576 0.138362
H136  H     H_    0.628744 0.284073 0.108306 0.132470
C109  C     C_3   0.797886 0.282628 0.416801 -0.372468
H137  H     H_    0.752522 0.265866 0.360219 0.106108
H138  H     H_    0.827613 0.253006 0.487114 0.134064
H139  H     H_    0.785307 0.311477 0.498903 0.131600
C110  C     C_3   0.797888 0.717375 0.916780 -0.372502
H140  H     H_    0.827615 0.746992 0.987106 0.134072
H141  H     H_    0.752526 0.734141 0.860199 0.106108
H142  H     H_    0.785307 0.688524 0.998870 0.131600
C111  C     C_3   0.297891 0.782626 0.416788 -0.372519
H143  H     H_    0.252528 0.765862 0.360208 0.106106
H144  H     H_    0.327618 0.753007 0.487115 0.134082
H145  H     H_    0.285310 0.811479 0.498879 0.131606
C112  C     C_3   0.297878 0.217367 0.916787 -0.372507
H146  H     H_    0.327601 0.246991 0.987100 0.134053
H147  H     H_    0.252511 0.234124 0.860204 0.106114
H148  H     H_    0.285305 0.188516 0.998891 0.131594
C113  C     C_3   0.193679 0.431968 0.223697 -0.302728
H149  H     H_    0.143157 0.430359 0.170167 0.130829
H150  H     H_    0.220145 0.431869 0.125196 0.129066
H151  H     H_    0.207450 0.397954 0.298064 0.057627
C114  C     C_3   0.193649 0.568037 0.723687 -0.302741
H152  H     H_    0.143124 0.569640 0.670179 0.130821
H153  H     H_    0.207416 0.602052 0.798048 0.057645
H154  H     H_    0.220107 0.568140 0.625171 0.129072
C115  C     C_3   0.693663 0.931962 0.223695 -0.302766
H155  H     H_    0.643139 0.930354 0.170174 0.130821
H156  H     H_    0.720126 0.931860 0.125188 0.129064
H157  H     H_    0.707432 0.897948 0.298063 0.057652
C116  C     C_3   0.693652 0.068040 0.723691 -0.302774
H158  H     H_    0.643128 0.069647 0.670174 0.130826
H159  H     H_    0.707419 0.102054 0.798057 0.057644
H160  H     H_    0.720114 0.068143 0.625181 0.129064

loop_
_geom_bond_atom_site_label_1
_geom_bond_atom_site_label_2
_ccdc_geom_bond_type
O9    P9    S    
O20   P4    S    
C13   C49   S    
C104  H123  S    
C25   H41   S    
C72   C92   S    
O23   P16   S    
C24   P4    S    
O26   P13   D    
C114  H152  S    
C113  H149  S    
C32   P11   S    
C41   C53   S    
C83   C103  S    
C60   H60   S    
Ba4   P8    S    
C35   C59   D    
C105  H127  S    
C92   O52   D    
C25   C29   S    
C98   H106  S    
C90   H86   S    
C5    C9    A    
C7    C11   A    
C8    C12   A    
O30   P2    S    
C62   H30   S    
Ba1   P1    S    
C112  H146  S    
C70   C90   S    
Ba1   O14   S    
C69   H9    S    
O42   P10   S    
C18   H38   S    
C71   H11   S    
Ba4   O15   S    
C65   H81   S    
O28   P15   D    
C10   C110  S    
C3    H27   S    
O41   P9    S    
C105  H125  S    
C13   C17   A    
C63   H31   S    
C100  H112  S    
C109  H139  S    
C15   C19   A    
O22   P13   S    
O43   P11   S    
C74   C78   S    
C66   O5    S    
C12   C16   A    
C76   H20   S    
C116  H160  S    
C78   H22   S    
Ba2   O38   S    
C97   H102  S    
C72   H8    S    
C114  H154  S    
O37   P5    D    
Ba2   P2    S    
C93   H90   S    
C113  H151  S    
C63   H75   S    
C66   C114  S    
O46   P10   D    
C58   H58   S    
C49   H47   S    
Ba2   O14   S    
C79   C99   S    
C81   O33   S    
C22   C86   A    
C80   C100  S    
C51   H45   S    
O19   P3    S    
C74   H14   S    
Ba2   O17   S    
C63   H79   S    
O13   P6    S    
O24   P15   S    
O17   P1    S    
C101  H114  S    
C23   P3    S    
C75   O31   S    
C21   P1    S    
O36   P15   S    
C43   C55   S    
C12   C112  S    
C7    C87   A    
C29   C57   S    
C110  H140  S    
C84   O36   S    
Ba2   O42   S    
C37   C41   S    
C31   C59   S    
C94   H93   S    
C32   C60   S    
C39   C43   S    
C40   C44   S    
C34   C58   D    
C48   H68   S    
O16   P7    S    
C90   O50   D    
C54   H36   S    
Ba4   O40   S    
C46   H70   S    
C16   C52   S    
C87   H55   S    
C70   H6    S    
C46   H66   S    
C85   H53   S    
C28   C32   S    
C95   H95   S    
C108  H135  S    
C89   H85   S    
C111  H144  S    
C81   H1    S    
O6    P6    S    
C26   H42   S    
C83   H3    S    
C23   C87   A    
C45   H69   S    
C1    C81   S    
C68   H84   S    
C80   H24   S    
C67   C115  S    
C99   H107  S    
C42   C54   S    
C112  H147  S    
C45   H65   S    
O29   P1    S    
C34   P5    S    
C115  H156  S    
C26   C30   S    
C19   H39   S    
C79   H23   S    
C74   H18   S    
C6    C10   A    
Ba3   P7    S    
C7    P16   S    
C4    C84   S    
C66   C70   S    
C103  H119  S    
C96   H99   S    
C110  H142  S    
C71   H7    S    
C102  H116  S    
C69   C89   S    
C47   C63   S    
C73   H17   S    
C66   H82   S    
C17   H37   S    
C64   H76   S    
C76   O32   S    
C79   C95   S    
Ba3   Ba4   S    
C46   O10   S    
O7    P7    S    
C94   H92   S    
C17   C21   A    
O45   P9    D    
C14   C18   A    
C83   O35   S    
C8    C88   A    
Ba1   O21   S    
C20   C24   A    
C53   H35   S    
C93   H91   S    
C55   H33   S    
C76   H16   S    
C2    C82   S    
C9    C13   A    
C94   H94   S    
C77   C93   S    
C35   P8    S    
Ba3   O16   S    
O32   P4    S    
C1    C105  S    
C98   H105  S    
C52   C54   D    
O3    P3    D    
C11   C111  S    
Ba2   P6    S    
O1    P1    D    
C36   C40   D    
C45   O9    S    
C6    P13   S    
C99   H109  S    
O35   P16   S    
C48   O12   S    
C30   P9    S    
C25   C41   A    
O10   P10   S    
Ba1   O13   S    
C72   H12   S    
C105  H126  S    
C84   H4    S    
C4    C108  S    
C88   H56   S    
Ba4   O16   S    
C39   H51   S    
C76   C80   S    
O25   P14   D    
C11   C15   A    
C103  H121  S    
C107  H133  S    
C61   H73   S    
C30   C58   S    
C102  H118  S    
C38   C42   S    
C109  H138  S    
C3    C83   S    
Ba4   O44   S    
C65   C69   S    
C61   H29   S    
C116  H159  S    
C70   H10   S    
C91   O51   D    
C62   H78   S    
C82   C102  S    
C27   C43   A    
C97   H101  S    
C68   C116  S    
C28   C44   A    
Ba4   O4    S    
C114  H153  S    
C26   C42   A    
Ba3   O39   S    
C113  H150  S    
C2    C106  S    
O34   P13   S    
C78   C98   S    
C9    C109  S    
C27   H43   S    
C5    C85   A    
C28   H44   S    
C86   H54   S    
C92   H88   S    
C115  H155  S    
O4    P4    D    
C61   H77   S    
C74   O30   S    
C101  H113  S    
C95   H97   S    
O21   P14   S    
C20   H40   S    
C65   C113  S    
C73   C77   S    
C77   C97   S    
C75   H15   S    
C36   P7    S    
C59   H59   S    
C2    H62   S    
C45   C61   S    
C48   H72   S    
O31   P3    S    
C47   H71   S    
Ba1   O37   S    
C27   C31   S    
C100  H111  S    
O38   P6    D    
Ba3   P3    S    
C71   C91   S    
C15   C51   S    
C67   O8    S    
C82   O34   S    
C68   O7    S    
C21   C85   A    
Ba3   O20   S    
O14   P5    S    
O18   P2    S    
C73   H13   S    
Ba1   O18   S    
O48   P12   D    
C75   C79   S    
C64   H80   S    
C108  H134  S    
C93   H89   S    
C22   P2    S    
C67   H83   S    
Ba4   P4    S    
C111  H143  S    
C47   O11   S    
C3    H63   S    
C6    C86   A    
Ba3   O43   S    
C106  H128  S    
C18   C22   A    
C97   H103  S    
C77   H21   S    
Ba1   O41   S    
Ba4   O19   S    
C104  H122  S    
C10   C14   A    
Ba2   O13   S    
C68   C72   S    
C64   H32   S    
C49   C55   D    
C50   C56   D    
C107  H131  S    
C69   H5    S    
C81   C101  S    
O39   P7    D    
C34   C38   D    
C101  H115  S    
C73   O29   S    
C3    C107  S    
Ba1   Ba2   S    
Ba3   O3    S    
C82   H2    S    
O40   P8    D    
Ba1   O1    S    
C8    P15   S    
C50   H48   S    
C16   C20   A    
O5    P5    S    
O15   P8    S    
C110  H141  S    
C38   H50   S    
Ba3   O23   S    
C19   C23   A    
C96   H98   S    
O12   P12   S    
C65   O6    S    
C78   C94   S    
C33   C37   D    
C44   C56   S    
C33   P6    S    
C62   H74   S    
O33   P14   S    
O8    P8    S    
C95   H96   S    
C108  H136  S    
C35   C39   D    
C104  H124  S    
C106  H129  S    
C100  H110  S    
C1    H25   S    
C89   O49   D    
C111  H145  S    
C37   H49   S    
Ba3   O15   S    
C52   H46   S    
Ba4   O24   S    
C40   H52   S    
C106  H130  S    
C98   H104  S    
C24   C88   A    
C51   C53   D    
C46   C62   S    
O27   P16   D    
O47   P11   D    
C99   H108  S    
C112  H148  S    
C4    H28   S    
C115  H157  S    
Ba2   O22   S    
O44   P12   S    
C48   C64   S    
C33   C57   D    
C91   H87   S    
C84   C104  S    
Ba2   O2    S    
C36   C60   D    
C75   H19   S    
C56   H34   S    
C103  H120  S    
C67   C71   S    
C107  H132  S    
C57   H57   S    
C1    H61   S    
C47   H67   S    
C102  H117  S    
C80   C96   S    
C109  H137  S    
C4    H64   S    
C96   H100  S    
O2    P2    D    
C14   C50   S    
Ba1   P5    S    
C5    P14   S    
C31   P12   S    
C116  H158  S    
C2    H26   S    
O11   P11   S    
C29   P10   S    
