data_mof_unit_44001.cif
_audit_creation_date              2012-12-10T18:57:09-0500
_audit_creation_method            fapswitch 2.2
_symmetry_space_group_name_H-M    P1
_symmetry_Int_Tables_number       1
_space_group_crystal_system       triclinic
_cell_length_a                    10.706141
_cell_length_b                    9.874274
_cell_length_c                    10.727217
_cell_angle_alpha                 89.502867
_cell_angle_beta                  90.517712
_cell_angle_gamma                 87.427514
_cell_volume                      1132.79581075

loop_
_atom_site_label
_atom_site_type_symbol
_atom_type_description
_atom_site_fract_x
_atom_site_fract_y
_atom_site_fract_z
_atom_type_partial_charge
C1    C     C_R   0.259372 0.503552 0.501091 0.948355
C2    C     C_R   0.739697 0.496879 0.496423 0.976280
C3    C     C_R   0.575632 0.066192 0.580414 0.291583
C4    C     C_R   0.425631 0.074968 0.418542 0.282263
C5    C     C_R   0.574103 0.922974 0.581136 -0.073545
C6    C     C_R   0.428113 0.931961 0.417523 -0.012501
C7    C     C_R   0.500237 0.500594 0.259918 0.972224
C8    C     C_R   0.501260 0.499384 0.739813 0.911507
C9    C     C_R   0.524754 0.621371 0.061871 0.096249
C10   C     C_R   0.520439 0.619526 0.934767 -0.008044
C11   C     C_R   0.513226 0.500237 0.128127 -0.105824
C12   C     C_R   0.513361 0.497842 0.871465 -0.073232
C13   C     C_R   0.523810 0.375810 0.065684 -0.130718
C14   C     C_R   0.524264 0.374673 0.937099 -0.160216
C15   C     C_3   0.443544 0.749415 0.924582 0.046704
C16   C     C_3   0.451019 0.754015 0.065999 0.055589
C17   C     C_R   0.068241 0.409604 0.571483 -0.165412
C18   C     C_R   0.940318 0.404815 0.569358 -0.187470
C19   C     C_R   0.871928 0.490573 0.488054 -0.188140
C20   C     C_R   0.125497 0.510905 0.503753 -0.184145
C21   C     C_R   0.929852 0.579917 0.407518 0.318238
C22   C     C_R   0.053757 0.607158 0.431287 0.330379
H1    H     H_    0.525125 0.279604 0.115080 0.225374
H2    H     H_    0.525295 0.278034 0.890211 0.216270
H3    H     H_    0.493747 0.830260 0.875844 0.179485
H4    H     H_    0.360045 0.746855 0.113417 0.208875
H5    H     H_    0.122291 0.337832 0.629668 0.194016
H6    H     H_    0.895066 0.334244 0.629999 0.218431
H7    H     H_    0.633451 0.864348 0.645720 0.171609
H8    H     H_    0.372570 0.880835 0.350187 0.221355
N1    N     N_R   0.500000 0.857200 0.500000 -0.112947
N2    N     N_R   0.500000 0.142810 0.500000 -0.137003
O1    O     O_R   0.316770 0.614620 0.499990 -0.537080
O2    O     O_R   0.683230 0.614620 0.500010 -0.600187
O3    O     O_R   0.316800 0.385290 0.500000 -0.608282
O4    O     O_R   0.683200 0.385290 0.500000 -0.579138
O5    O     O_R   0.500000 0.614690 0.316780 -0.590216
O6    O     O_R   0.500000 0.614690 0.683220 -0.621205
O7    O     O_R   0.500020 0.385360 0.316780 -0.594885
O8    O     O_R   0.499980 0.385360 0.683220 -0.612239
Zn1   Zn    Zn3+2 0.500000 0.653120 0.500000 1.073643
Zn2   Zn    Zn3+2 0.500000 0.346880 0.500000 1.053713
Br1   Br    Br    0.273501 0.727206 0.864181 -0.381043
Br2   Br    Br    0.551382 0.900985 0.122237 -0.382413
S1    S     S_3+6 0.856612 0.627368 0.263327 0.101806
O9    O     O_2   0.764864 0.744645 0.282414 -0.199373
O10   O     O_2   0.951732 0.665852 0.168509 -0.204753
O11   O     O_3   0.781165 0.493716 0.209851 -0.592887
H9    H     H_    0.787515 0.498931 0.117886 0.387314
S2    S     S_3+6 0.108896 0.767451 0.386390 0.089694
O12   O     O_2   0.200011 0.746930 0.282160 -0.309754
O13   O     O_2   0.003422 0.862732 0.343332 -0.195973
O14   O     O_3   0.178382 0.838266 0.509619 -0.533288
H10   H     H_    0.167079 0.937439 0.496098 0.380852
Br3   Br    Br    0.688809 0.147292 0.692775 -0.471845
Br4   Br    Br    0.314301 0.167585 0.302715 -0.398049

loop_
_geom_bond_atom_site_label_1
_geom_bond_atom_site_label_2
_ccdc_geom_bond_type
C5    N1    A    
S2    O13   D    
C7    C11   S    
C11   C13   A    
C9    C10   A    
C16   Br2   S    
O4    Zn2   S    
C8    C12   S    
C22   S2    S    
O1    Zn1   S    
C2    O2    A    
O8    Zn2   S    
C17   C18   A    
C7    O5    A    
C15   Br1   S    
N1    Zn1   S    
O14   H10   S    
C4    Br4   S    
C16   H4    S    
C9    C11   A    
C1    O3    A    
C4    N2    A    
O2    Zn1   S    
C10   C12   A    
C14   H2    S    
C7    O7    A    
O11   H9    S    
C19   C21   A    
C9    C16   S    
C12   C14   A    
S2    O12   D    
O7    Zn2   S    
C21   S1    S    
C10   C15   S    
C8    O6    A    
O5    Zn1   S    
C3    N2    A    
C15   H3    S    
S2    O14   S    
C1    O1    A    
C15   C16   S    
C17   H5    S    
C5    H7    S    
S1    O9    D    
C17   C20   A    
C18   H6    S    
C13   H1    S    
O6    Zn1   S    
C4    C6    A    
C18   C19   A    
S1    O10   D    
C2    O4    A    
O3    Zn2   S    
N2    Zn2   S    
C1    C20   S    
C6    N1    A    
C8    O8    A    
C13   C14   A    
C3    C5    A    
C2    C19   S    
C21   C22   A    
C3    Br3   S    
C6    H8    S    
C20   C22   A    
S1    O11   S    
