data_mof_unit_44097.cif
_audit_creation_date              2012-12-10T20:36:35-0500
_audit_creation_method            fapswitch 2.2
_symmetry_space_group_name_H-M    P1
_symmetry_Int_Tables_number       1
_space_group_crystal_system       triclinic
_cell_length_a                    10.530597
_cell_length_b                    10.633711
_cell_length_c                    9.952415
_cell_angle_alpha                 89.809489
_cell_angle_beta                  91.674555
_cell_angle_gamma                 90.387665
_cell_volume                      1113.95781703

loop_
_atom_site_label
_atom_site_type_symbol
_atom_type_description
_atom_site_fract_x
_atom_site_fract_y
_atom_site_fract_z
_atom_type_partial_charge
C1    C     C_R   0.507239 0.260427 0.500382 0.945322
C2    C     C_3   0.955235 0.602198 0.445539 0.365311
C3    C     C_3   0.033243 0.506184 0.367373 -0.451385
C4    C     C_3   0.122539 0.497888 0.493205 -0.337790
C5    C     C_R   0.519915 0.063878 0.622951 0.046459
C6    C     C_R   0.533150 0.129423 0.503008 -0.406329
C7    C     C_R   0.573555 0.066054 0.388147 0.583992
C8    C     C_R   0.571953 0.935691 0.387650 0.527967
C9    C     C_R   0.530383 0.871291 0.502148 -0.316129
C10   C     C_R   0.517788 0.935746 0.622398 -0.048146
C11   C     C_3   0.414966 0.928398 0.722807 -0.455930
C12   C     C_R   0.257593 0.499474 0.497901 0.998333
C13   C     C_3   0.417299 0.070844 0.722961 0.538944
C14   C     C_R   0.399338 0.544851 0.067949 -0.059337
C15   C     C_R   0.606518 0.471057 0.075154 0.636377
C16   C     C_R   0.609511 0.482742 0.932613 0.441609
C17   C     C_R   0.395724 0.535553 0.926892 -0.023372
C18   C     C_3   0.263643 0.481263 0.927328 0.916843
C19   C     C_3   0.265531 0.505432 0.078548 0.303401
C20   C     C_R   0.505988 0.739776 0.499983 0.957117
C21   C     C_R   0.742105 0.497558 0.501646 1.006167
C22   C     C_3   0.044472 0.389950 0.550709 0.536267
C23   C     C_3   0.954017 0.399020 0.428123 0.642999
C24   C     C_3   0.876689 0.495213 0.503880 -0.324051
C25   C     C_3   0.965562 0.485585 0.628773 -0.401583
C26   C     C_3   0.044317 0.594059 0.569235 0.617370
H1    H     H_    0.448770 0.885740 0.819433 0.254096
H2    H     H_    0.329456 0.115734 0.681887 0.103169
H3    H     H_    0.253519 0.421950 0.144479 0.081752
H4    H     H_    0.936218 0.473378 0.733557 0.233140
H5    H     H_    0.056840 0.509211 0.260309 0.253320
H6    H     H_    0.324829 0.888106 0.680076 0.200542
N1    N     N_R   0.499140 0.499140 0.142800 -0.200870
N2    N     N_R   0.499140 0.499180 0.857150 -0.177320
O1    O     O_R   0.500020 0.316790 0.614690 -0.580120
O2    O     O_R   0.500000 0.316760 0.385350 -0.553529
O3    O     O_R   0.313960 0.499990 0.614650 -0.541018
O4    O     O_R   0.313940 0.499950 0.385310 -0.638065
O5    O     O_R   0.500000 0.683240 0.614650 -0.629794
O6    O     O_R   0.499980 0.683210 0.385310 -0.553777
O7    O     O_R   0.686060 0.500050 0.614690 -0.615490
O8    O     O_R   0.686040 0.500010 0.385350 -0.517571
Zn1   Zn    Zn3+2 0.500010 0.500020 0.653130 1.069571
Zn2   Zn    Zn3+2 0.499990 0.499980 0.346870 1.101258
F1    F     F_    0.902926 0.297349 0.358578 -0.583125
F2    F     F_    0.461998 0.119987 0.844130 -0.582217
F3    F     F_    0.712461 0.432995 0.143480 -0.577637
O9    O     O_3   0.725603 0.489298 0.872810 -0.576843
C27   C     C_3   0.773517 0.614479 0.884692 0.062685
H7    H     H_    0.701453 0.686527 0.910951 0.121674
H8    H     H_    0.808921 0.644537 0.785689 0.199325
C28   C     C_3   0.884462 0.620427 0.986747 -0.647639
H9    H     H_    0.949770 0.540429 0.972425 0.283012
H10   H     H_    0.938011 0.709788 0.973963 0.244311
H11   H     H_    0.849297 0.617631 0.090666 0.269575
F4    F     F_    0.177439 0.553994 0.854350 -0.619960
O10   O     O_3   0.259431 0.351655 0.894381 -0.628739
C29   C     C_3   0.137012 0.301530 0.918885 0.137367
H12   H     H_    0.068397 0.331859 0.839384 0.220524
H13   H     H_    0.099552 0.331134 0.017120 0.112374
C30   C     C_3   0.141578 0.158606 0.920027 -0.650874
H14   H     H_    0.218582 0.125654 0.989937 0.269444
H15   H     H_    0.049516 0.120006 0.953760 0.213682
H16   H     H_    0.157795 0.122857 0.817630 0.268098
F5    F     F_    0.192528 0.608030 0.110764 -0.665015
F6    F     F_    0.095399 0.278518 0.598752 -0.660013
F7    F     F_    0.094140 0.696085 0.639167 -0.622383
O11   O     O_3   0.896910 0.712281 0.394589 -0.581857
C31   C     C_3   0.989301 0.790413 0.336733 0.078868
H17   H     H_    0.033171 0.742998 0.250327 0.203004
H18   H     H_    0.064673 0.817297 0.412175 0.187424
C32   C     C_3   0.926174 0.909950 0.284645 -0.616608
H19   H     H_    0.880217 0.959630 0.368168 0.276896
H20   H     H_    0.998451 0.973209 0.240715 0.209909
H21   H     H_    0.853260 0.886437 0.205656 0.281504
F8    F     F_    0.604829 0.128564 0.274404 -0.549764
F9    F     F_    0.601388 0.874300 0.273331 -0.606720

loop_
_geom_bond_atom_site_label_1
_geom_bond_atom_site_label_2
_ccdc_geom_bond_type
C23   F1    S    
C31   C32   S    
C3    C23   S    
C15   F3    S    
C16   O9    S    
C14   N1    A    
C7    C8    A    
C26   F7    S    
C2    O11   S    
C5    C6    A    
C20   O6    A    
C29   H13   S    
C15   C16   A    
C30   H15   S    
C18   C19   S    
C12   O3    A    
C31   H18   S    
C22   F6    S    
C9    C20   S    
C16   N2    A    
C8    C9    A    
C27   H8    S    
C22   C25   S    
C23   C24   S    
C13   H2    S    
C4    C12   S    
O1    Zn1   S    
C9    C10   A    
C5    C13   S    
C28   H11   S    
C18   F4    S    
C29   C30   S    
O7    Zn1   S    
C14   C17   A    
C31   H17   S    
O8    Zn2   S    
C32   H21   S    
C28   H10   S    
C1    C6    S    
C24   C25   S    
C32   H20   S    
C20   O5    A    
O11   C31   S    
O5    Zn1   S    
C25   C26   S    
O3    Zn1   S    
C30   H16   S    
O4    Zn2   S    
C4    C22   S    
C18   O10   S    
C11   H1    S    
C27   C28   S    
C17   C18   S    
C2    C26   S    
C3    H5    S    
C6    C7    A    
C21   O7    A    
O9    C27   S    
C11   H6    S    
C2    C24   S    
C8    F9    S    
O2    Zn2   S    
C17   N2    A    
C3    C4    S    
C19   H3    S    
C28   H9    S    
C1    O1    A    
C25   H4    S    
N1    Zn2   S    
C14   C19   S    
N2    Zn1   S    
C32   H19   S    
C4    C26   S    
C7    F8    S    
C2    C3    S    
C29   H12   S    
C5    C10   A    
C11   C13   S    
O10   C29   S    
C13   F2    S    
C19   F5    S    
C12   O4    A    
C30   H14   S    
C10   C11   S    
C21   O8    A    
O6    Zn2   S    
C27   H7    S    
C21   C24   S    
C22   C23   S    
C15   N1    A    
C1    O2    A    
