data_mof_unit_61878.cif
_audit_creation_date              2012-12-10T17:18:15-0500
_audit_creation_method            fapswitch 2.2
_symmetry_space_group_name_H-M    P1
_symmetry_Int_Tables_number       1
_space_group_crystal_system       triclinic
_cell_length_a                    21.756117
_cell_length_b                    21.756113
_cell_length_c                    30.179614
_cell_angle_alpha                 89.999948
_cell_angle_beta                  89.999967
_cell_angle_gamma                 90.0
_cell_volume                      14284.8726292

loop_
_atom_site_label
_atom_site_type_symbol
_atom_type_description
_atom_site_fract_x
_atom_site_fract_y
_atom_site_fract_z
_atom_type_partial_charge
C1    C     C_R   0.500000 0.118749 0.500000 0.881237
C2    C     C_R   0.118749 0.500000 0.500000 0.881238
C3    C     C_R   0.500000 0.881251 0.500000 0.881235
C4    C     C_R   0.881251 0.500000 0.500000 0.881235
C5    C     C_R   0.000000 0.618749 0.000000 0.881236
C6    C     C_R   0.618749 0.000000 0.000000 0.881237
C7    C     C_R   0.000000 0.381250 1.000000 0.881236
C8    C     C_R   0.381250 0.000000 0.000000 0.881243
C9    C     C_R   0.500000 1.000000 0.773302 -0.014574
C10   C     C_R   1.000000 0.500000 0.773302 -0.014574
C11   C     C_R   0.500000 1.000000 0.226698 -0.014574
C12   C     C_R   1.000000 0.500000 0.226698 -0.014574
C13   C     C_R   1.000000 0.500000 0.273302 -0.014574
C14   C     C_R   0.500000 1.000000 0.273302 -0.014574
C15   C     C_R   1.000000 0.500000 0.726698 -0.014574
C16   C     C_R   0.500000 1.000000 0.726698 -0.014575
C17   C     C_R   0.420810 0.919607 0.773283 0.225698
C18   C     C_R   0.919608 0.579191 0.773283 0.225698
C19   C     C_R   0.579190 0.080393 0.773283 0.225699
C20   C     C_R   0.080392 0.420809 0.773283 0.225698
C21   C     C_R   0.420810 0.080393 0.226717 0.225698
C22   C     C_R   0.919608 0.420810 0.226717 0.225699
C23   C     C_R   0.579190 0.919607 0.226717 0.225698
C24   C     C_R   0.080392 0.579190 0.226717 0.225699
C25   C     C_R   0.920810 0.419608 0.273283 0.225699
C26   C     C_R   0.419608 0.079191 0.273283 0.225699
C27   C     C_R   0.079190 0.580392 0.273283 0.225698
C28   C     C_R   0.580392 0.920809 0.273283 0.225698
C29   C     C_R   0.920810 0.580392 0.726717 0.225698
C30   C     C_R   0.419608 0.920809 0.726717 0.225698
C31   C     C_R   0.079190 0.419607 0.726717 0.225699
C32   C     C_R   0.580392 0.079191 0.726717 0.225698
C33   C     C_R   0.531654 0.218422 0.466231 -0.032722
C34   C     C_R   0.218422 0.468346 0.466231 -0.032723
C35   C     C_R   0.468346 0.781578 0.466231 -0.032721
C36   C     C_R   0.781578 0.531655 0.466231 -0.032721
C37   C     C_R   0.531655 0.781578 0.533769 -0.032720
C38   C     C_R   0.218422 0.531654 0.533769 -0.032721
C39   C     C_R   0.468346 0.218422 0.533769 -0.032722
C40   C     C_R   0.781578 0.468345 0.533769 -0.032720
C41   C     C_R   0.031654 0.718422 0.966231 -0.032721
C42   C     C_R   0.718422 0.968346 0.966231 -0.032721
C43   C     C_R   0.968346 0.281578 0.966231 -0.032721
C44   C     C_R   0.281578 0.031653 0.966231 -0.032723
C45   C     C_R   0.031654 0.281578 0.033769 -0.032721
C46   C     C_R   0.718422 0.031654 0.033769 -0.032721
C47   C     C_R   0.968345 0.718422 0.033769 -0.032721
C48   C     C_R   0.281578 0.968347 0.033769 -0.032724
C49   C     C_R   0.500000 0.185866 0.500000 -0.156080
C50   C     C_R   0.185866 0.500000 0.500000 -0.156080
C51   C     C_R   0.500000 0.814134 0.500000 -0.156080
C52   C     C_R   0.814134 0.500000 0.500000 -0.156079
C53   C     C_R   0.000000 0.685866 0.000000 -0.156080
C54   C     C_R   0.685866 0.000000 0.000000 -0.156080
C55   C     C_R   0.000000 0.314134 1.000000 -0.156080
C56   C     C_R   0.314134 0.000000 0.000000 -0.156081
C57   C     C_R   0.500000 1.000000 0.585597 0.886782
C58   C     C_R   1.000000 0.500000 0.585597 0.886782
C59   C     C_R   0.500000 1.000000 0.414403 0.886782
C60   C     C_R   1.000000 0.500000 0.414403 0.886783
C61   C     C_R   1.000000 0.500000 0.085597 0.886781
C62   C     C_R   0.500000 1.000000 0.085597 0.886784
C63   C     C_R   0.000000 0.500000 0.914403 0.886782
C64   C     C_R   0.500000 0.000000 0.914403 0.886784
C65   C     C_R   0.531275 0.282531 0.466861 -0.177206
C66   C     C_R   0.282531 0.468725 0.466861 -0.177206
C67   C     C_R   0.468725 0.717469 0.466861 -0.177207
C68   C     C_R   0.717469 0.531275 0.466861 -0.177207
C69   C     C_R   0.531275 0.717469 0.533139 -0.177207
C70   C     C_R   0.282531 0.531275 0.533139 -0.177206
C71   C     C_R   0.468725 0.282531 0.533139 -0.177206
C72   C     C_R   0.717469 0.468724 0.533139 -0.177207
C73   C     C_R   0.031275 0.782531 0.966861 -0.177207
C74   C     C_R   0.782531 0.968725 0.966861 -0.177206
C75   C     C_R   0.968725 0.217469 0.966861 -0.177207
C76   C     C_R   0.217469 0.031274 0.966861 -0.177206
C77   C     C_R   0.031275 0.217469 0.033139 -0.177207
C78   C     C_R   0.782530 0.031275 0.033139 -0.177207
C79   C     C_R   0.968725 0.782530 0.033139 -0.177207
C80   C     C_R   0.217469 0.968726 0.033139 -0.177206
C81   C     C_R   0.500000 0.314323 0.500000 -0.061866
C82   C     C_R   0.314323 0.500000 0.500000 -0.061867
C83   C     C_R   0.500000 0.685677 0.500000 -0.061866
C84   C     C_R   0.685677 0.500000 0.500000 -0.061866
C85   C     C_R   0.000000 0.814322 0.000000 -0.061866
C86   C     C_R   0.814322 1.000000 0.000000 -0.061866
C87   C     C_R   0.000000 0.185677 1.000000 -0.061866
C88   C     C_R   0.185677 0.000000 0.000000 -0.061868
C89   C     C_R   0.381066 0.500000 0.500000 0.799696
C90   C     C_R   0.500000 0.618934 0.500000 0.799696
C91   C     C_R   0.618934 0.500000 0.500000 0.799695
C92   C     C_R   0.500000 0.381066 0.500000 0.799696
C93   C     C_R   0.881066 0.000000 0.000000 0.799696
C94   C     C_R   0.000000 0.118934 1.000000 0.799696
C95   C     C_R   0.118934 0.000000 0.000000 0.799696
C96   C     C_R   0.000000 0.881066 0.000000 0.799696
C97   C     C_R   0.537429 0.041075 0.843121 -0.141571
C98   C     C_R   0.041074 0.462571 0.843121 -0.141571
C99   C     C_R   0.462572 0.958925 0.843121 -0.141573
C100  C     C_R   0.958926 0.537429 0.843121 -0.141571
C101  C     C_R   0.537429 0.958925 0.156879 -0.141571
C102  C     C_R   0.041074 0.537429 0.156879 -0.141571
C103  C     C_R   0.462571 0.041074 0.156879 -0.141573
C104  C     C_R   0.958926 0.462571 0.156879 -0.141572
C105  C     C_R   0.037428 0.541074 0.343121 -0.141573
C106  C     C_R   0.541074 0.962571 0.343121 -0.141571
C107  C     C_R   0.962571 0.458926 0.343121 -0.141571
C108  C     C_R   0.458926 0.037429 0.343121 -0.141572
C109  C     C_R   0.037429 0.458925 0.656879 -0.141572
C110  C     C_R   0.541074 0.037429 0.656879 -0.141571
C111  C     C_R   0.962571 0.541074 0.656879 -0.141571
C112  C     C_R   0.458926 0.962571 0.656879 -0.141572
C113  C     C_R   0.500000 1.000000 0.866055 -0.109259
C114  C     C_R   0.000000 0.500000 0.866055 -0.109257
C115  C     C_R   0.500000 1.000000 0.133945 -0.109258
C116  C     C_R   1.000000 0.500000 0.133945 -0.109257
C117  C     C_R   1.000000 0.500000 0.366055 -0.109257
C118  C     C_R   0.500000 1.000000 0.366055 -0.109257
C119  C     C_R   1.000000 0.500000 0.633945 -0.109257
C120  C     C_R   0.500000 1.000000 0.633945 -0.109257
C121  C     C_R   0.460825 0.959138 0.796672 0.008093
C122  C     C_R   0.959138 0.539175 0.796672 0.008093
C123  C     C_R   0.539175 0.040862 0.796672 0.008094
C124  C     C_R   0.040862 0.460825 0.796672 0.008093
C125  C     C_R   0.460825 0.040862 0.203328 0.008094
C126  C     C_R   0.959138 0.460825 0.203328 0.008093
C127  C     C_R   0.539175 0.959138 0.203328 0.008094
C128  C     C_R   0.040862 0.539175 0.203328 0.008093
C129  C     C_R   0.960825 0.459138 0.296672 0.008093
C130  C     C_R   0.459139 0.039175 0.296672 0.008094
C131  C     C_R   0.039175 0.540862 0.296672 0.008093
C132  C     C_R   0.540862 0.960825 0.296672 0.008093
C133  C     C_R   0.960825 0.540862 0.703328 0.008093
C134  C     C_R   0.459139 0.960825 0.703328 0.008093
C135  C     C_R   0.039175 0.459138 0.703328 0.008093
C136  C     C_R   0.540861 0.039175 0.703328 0.008093
Cu1   Cu    Cu3+1 0.438190 0.000000 0.500000 1.078449
Cu2   Cu    Cu3+1 0.000000 0.561810 0.500000 1.078449
Cu3   Cu    Cu3+1 0.561810 0.000000 0.500000 1.078449
Cu4   Cu    Cu3+1 0.000000 0.438190 0.500000 1.078449
Cu5   Cu    Cu3+1 0.938190 0.500000 0.000000 1.078449
Cu6   Cu    Cu3+1 0.500000 0.061810 0.000000 1.078449
Cu7   Cu    Cu3+1 0.061810 0.500000 0.000000 1.078448
Cu8   Cu    Cu3+1 0.500000 0.938190 0.000000 1.078449
Cu9   Cu    Cu3+1 0.500000 0.500000 0.455560 1.038293
Cu10  Cu    Cu3+1 0.500000 0.500000 0.544440 1.038293
Cu11  Cu    Cu3+1 0.000000 1.000000 0.955560 1.038293
Cu12  Cu    Cu3+1 0.000000 0.000000 0.044440 1.038293
H1    H     H_    0.555125 0.307948 0.441165 0.184484
H2    H     H_    0.307948 0.444875 0.441165 0.184485
H3    H     H_    0.444874 0.692052 0.441165 0.184484
H4    H     H_    0.692052 0.555126 0.441165 0.184483
H5    H     H_    0.555126 0.692052 0.558835 0.184483
H6    H     H_    0.307948 0.555125 0.558835 0.184484
H7    H     H_    0.444875 0.307948 0.558835 0.184484
H8    H     H_    0.692052 0.444874 0.558835 0.184483
H9    H     H_    0.055125 0.807948 0.941165 0.184484
H10   H     H_    0.807948 0.944875 0.941165 0.184484
H11   H     H_    0.944875 0.192052 0.941165 0.184483
H12   H     H_    0.192052 0.055124 0.941164 0.184486
H13   H     H_    0.055126 0.192052 0.058835 0.184483
H14   H     H_    0.807948 0.055125 0.058835 0.184484
H15   H     H_    0.944874 0.807948 0.058835 0.184484
H16   H     H_    0.192052 0.944876 0.058836 0.184486
H17   H     H_    0.566036 0.071871 0.862222 0.203759
H18   H     H_    0.071871 0.433964 0.862223 0.203760
H19   H     H_    0.433965 0.928129 0.862223 0.203760
H20   H     H_    0.928129 0.566036 0.862223 0.203759
H21   H     H_    0.566036 0.928129 0.137777 0.203759
H22   H     H_    0.071871 0.566036 0.137777 0.203760
H23   H     H_    0.433964 0.071871 0.137777 0.203760
H24   H     H_    0.928129 0.433964 0.137778 0.203760
H25   H     H_    0.066035 0.571871 0.362222 0.203760
H26   H     H_    0.571870 0.933964 0.362223 0.203759
H27   H     H_    0.933964 0.428129 0.362223 0.203759
H28   H     H_    0.428129 0.066036 0.362223 0.203760
H29   H     H_    0.066035 0.428129 0.637777 0.203760
H30   H     H_    0.571870 0.066036 0.637777 0.203760
H31   H     H_    0.933964 0.571871 0.637777 0.203760
H32   H     H_    0.428130 0.933964 0.637777 0.203760
O1    O     O_R   0.447800 0.090100 0.499990 -0.569316
O2    O     O_R   0.090100 0.552200 0.499990 -0.569317
O3    O     O_R   0.552200 0.909900 0.499990 -0.569317
O4    O     O_R   0.909900 0.447800 0.499990 -0.569317
O5    O     O_R   0.447800 0.909900 0.500010 -0.569316
O6    O     O_R   0.090100 0.447800 0.500010 -0.569315
O7    O     O_R   0.552200 0.090100 0.500010 -0.569317
O8    O     O_R   0.909900 0.552200 0.500010 -0.569317
O9    O     O_R   0.947800 0.590100 0.999990 -0.569316
O10   O     O_R   0.590100 0.052200 0.999990 -0.569317
O11   O     O_R   0.052200 0.409900 0.999990 -0.569317
O12   O     O_R   0.409900 0.947800 0.999990 -0.569315
O13   O     O_R   0.947800 0.409900 0.000010 -0.569316
O14   O     O_R   0.590100 0.947800 0.000010 -0.569316
O15   O     O_R   0.052200 0.590100 0.000010 -0.569317
O16   O     O_R   0.409900 0.052200 0.000010 -0.569316
O17   O     O_R   0.447790 0.999890 0.564870 -0.571897
O18   O     O_R   0.999890 0.552210 0.564870 -0.571898
O19   O     O_R   0.552210 0.000110 0.564870 -0.571898
O20   O     O_R   0.000110 0.447790 0.564870 -0.571898
O21   O     O_R   0.447790 0.000110 0.435130 -0.571897
O22   O     O_R   0.999890 0.447790 0.435130 -0.571897
O23   O     O_R   0.552210 0.999890 0.435130 -0.571898
O24   O     O_R   0.000110 0.552210 0.435130 -0.571898
O25   O     O_R   0.947790 0.499890 0.064870 -0.571898
O26   O     O_R   0.499890 0.052210 0.064870 -0.571898
O27   O     O_R   0.052210 0.500110 0.064870 -0.571898
O28   O     O_R   0.500110 0.947790 0.064870 -0.571897
O29   O     O_R   0.947790 0.500110 0.935130 -0.571897
O30   O     O_R   0.499890 0.947790 0.935130 -0.571897
O31   O     O_R   0.052210 0.499890 0.935130 -0.571898
O32   O     O_R   0.500110 0.052210 0.935130 -0.571897
O33   O     O_R   0.409730 0.499930 0.462460 -0.579051
O34   O     O_R   0.499930 0.590270 0.462460 -0.579052
O35   O     O_R   0.590270 0.500070 0.462460 -0.579051
O36   O     O_R   0.500070 0.409730 0.462460 -0.579051
O37   O     O_R   0.409730 0.500070 0.537540 -0.579052
O38   O     O_R   0.499930 0.409730 0.537540 -0.579052
O39   O     O_R   0.590270 0.499930 0.537540 -0.579052
O40   O     O_R   0.500070 0.590270 0.537540 -0.579051
O41   O     O_R   0.909730 0.999930 0.962460 -0.579051
O42   O     O_R   0.999930 0.090270 0.962460 -0.579052
O43   O     O_R   0.090270 0.000070 0.962460 -0.579051
O44   O     O_R   0.000070 0.909730 0.962460 -0.579051
O45   O     O_R   0.909730 0.000070 0.037540 -0.579052
O46   O     O_R   0.999930 0.909730 0.037540 -0.579051
O47   O     O_R   0.090270 0.999930 0.037540 -0.579052
O48   O     O_R   0.000070 0.090270 0.037540 -0.579051
Br1   Br    Br    0.366534 0.863875 0.804428 -0.358690
Br2   Br    Br    0.863876 0.633467 0.804428 -0.358690
Br3   Br    Br    0.633466 0.136125 0.804427 -0.358690
Br4   Br    Br    0.136124 0.366533 0.804428 -0.358690
Br5   Br    Br    0.366534 0.136125 0.195572 -0.358690
Br6   Br    Br    0.863876 0.366534 0.195572 -0.358689
Br7   Br    Br    0.633466 0.863875 0.195572 -0.358690
Br8   Br    Br    0.136124 0.633467 0.195572 -0.358690
Br9   Br    Br    0.866534 0.363876 0.304428 -0.358690
Br10  Br    Br    0.363876 0.133467 0.304428 -0.358690
Br11  Br    Br    0.133466 0.636124 0.304428 -0.358690
Br12  Br    Br    0.636124 0.866533 0.304428 -0.358690
Br13  Br    Br    0.866534 0.636124 0.695572 -0.358689
Br14  Br    Br    0.363877 0.866533 0.695572 -0.358689
Br15  Br    Br    0.133466 0.363875 0.695572 -0.358689
Br16  Br    Br    0.636123 0.133467 0.695572 -0.358690
C137  C     C_2   0.563588 0.187535 0.428863 0.879618
O49   O     O_2   0.610894 0.209615 0.413795 -0.547103
O50   O     O_R   0.538595 0.134812 0.409634 -0.779867
H33   H     H_    0.564193 0.119065 0.383955 0.344005
C138  C     C_2   0.187535 0.436413 0.428862 0.879620
O51   O     O_2   0.209616 0.389108 0.413793 -0.547104
O52   O     O_R   0.134812 0.461405 0.409634 -0.779867
H34   H     H_    0.119064 0.435808 0.383954 0.344004
C139  C     C_2   0.436412 0.812465 0.428863 0.879618
O53   O     O_2   0.389105 0.790385 0.413795 -0.547103
O54   O     O_R   0.461405 0.865187 0.409634 -0.779866
H35   H     H_    0.435807 0.880936 0.383955 0.344005
C140  C     C_2   0.812465 0.563588 0.428863 0.879617
O55   O     O_2   0.790386 0.610895 0.413796 -0.547103
O56   O     O_R   0.865187 0.538595 0.409633 -0.779866
H36   H     H_    0.880935 0.564193 0.383954 0.344005
C141  C     C_2   0.563588 0.812465 0.571137 0.879617
O57   O     O_2   0.610895 0.790386 0.586204 -0.547103
O58   O     O_R   0.538595 0.865187 0.590367 -0.779866
H37   H     H_    0.564193 0.880935 0.616045 0.344005
C142  C     C_2   0.187535 0.563587 0.571137 0.879617
O59   O     O_2   0.209614 0.610893 0.586205 -0.547103
O60   O     O_R   0.134813 0.538594 0.590367 -0.779867
H38   H     H_    0.119064 0.564191 0.616046 0.344004
C143  C     C_2   0.436412 0.187535 0.571137 0.879617
O61   O     O_2   0.389106 0.209615 0.586205 -0.547103
O62   O     O_R   0.461405 0.134812 0.590366 -0.779866
H39   H     H_    0.435807 0.119064 0.616045 0.344004
C144  C     C_2   0.812465 0.436412 0.571137 0.879616
O63   O     O_2   0.790386 0.389104 0.586204 -0.547102
O64   O     O_R   0.865187 0.461405 0.590367 -0.779866
H40   H     H_    0.880935 0.435807 0.616045 0.344005
C145  C     C_2   0.063588 0.687535 0.928863 0.879619
O65   O     O_2   0.110894 0.709615 0.913795 -0.547104
O66   O     O_R   0.038595 0.634813 0.909634 -0.779866
H41   H     H_    0.064193 0.619065 0.883955 0.344004
C146  C     C_2   0.687535 0.936412 0.928863 0.879618
O67   O     O_2   0.709615 0.889106 0.913795 -0.547103
O68   O     O_R   0.634812 0.961405 0.909634 -0.779866
H42   H     H_    0.619064 0.935807 0.883955 0.344004
C147  C     C_2   0.936412 0.312465 0.928863 0.879618
O69   O     O_2   0.889105 0.290386 0.913795 -0.547103
O70   O     O_R   0.961405 0.365187 0.909633 -0.779866
H43   H     H_    0.935807 0.380935 0.883954 0.344005
C148  C     C_2   0.312465 0.063586 0.928862 0.879617
O71   O     O_2   0.290384 0.110891 0.913792 -0.547103
O72   O     O_R   0.365189 0.038593 0.909634 -0.779867
H44   H     H_    0.380936 0.064190 0.883954 0.344004
C149  C     C_2   0.063588 0.312465 0.071137 0.879618
O73   O     O_2   0.110895 0.290386 0.086204 -0.547103
O74   O     O_R   0.038594 0.365187 0.090366 -0.779866
H45   H     H_    0.064192 0.380935 0.116045 0.344005
C150  C     C_2   0.687535 0.063588 0.071137 0.879617
O75   O     O_2   0.709615 0.110894 0.086205 -0.547103
O76   O     O_R   0.634812 0.038595 0.090366 -0.779868
H46   H     H_    0.619064 0.064193 0.116045 0.344005
C151  C     C_2   0.936412 0.687535 0.071137 0.879618
O77   O     O_2   0.889105 0.709614 0.086205 -0.547103
O78   O     O_R   0.961405 0.634813 0.090366 -0.779867
H47   H     H_    0.935807 0.619064 0.116045 0.344005
C152  C     C_2   0.312464 0.936414 0.071138 0.879617
O79   O     O_2   0.290384 0.889109 0.086208 -0.547103
O80   O     O_R   0.365189 0.961406 0.090366 -0.779867
H48   H     H_    0.380936 0.935809 0.116045 0.344004

loop_
_geom_bond_atom_site_label_1
_geom_bond_atom_site_label_2
_ccdc_geom_bond_type
C29   C133  A    
C21   C26   A    
C37   C69   A    
O72   H44   S    
C24   C27   A    
C7    C55   S    
C107  C129  A    
C8    C56   S    
Cu9   Cu10  S    
C105  C131  A    
C14   C132  A    
C151  O77   D    
C106  C132  A    
C89   O33   A    
C90   O34   A    
C10   C124  A    
C85   C96   S    
C98   C114  A    
C12   C126  A    
C110  H30   S    
O62   H39   S    
C87   C94   S    
C91   O35   A    
C104  C116  A    
Cu2   O24   S    
C9    C121  A    
C84   C91   S    
C26   C130  A    
C99   C121  A    
Cu10  O40   S    
C88   C95   S    
C137  O49   D    
C106  C118  A    
C111  H31   S    
C17   C30   A    
C64   O30   A    
C47   C151  S    
C6    C54   S    
C19   C32   A    
C62   O28   A    
C99   H19   S    
C43   C75   A    
C138  O52   S    
O52   H34   S    
Cu12  O46   S    
C18   Br2   S    
C112  C120  A    
C1    O1    A    
C96   O46   A    
Cu4   O22   S    
C66   C82   A    
O78   H47   S    
C25   Br9   S    
C60   C117  S    
C72   C84   A    
Cu2   Cu4   S    
C18   C122  A    
C60   O22   A    
Cu1   O17   S    
C143  O62   S    
C35   C51   A    
C101  C115  A    
Cu6   Cu8   S    
Cu5   O29   S    
C6    O14   A    
C139  O54   S    
C14   C130  A    
C57   O17   A    
C112  C134  A    
C10   C122  A    
C36   C68   A    
C12   C128  A    
C23   C127  A    
C4    O8    A    
Cu4   O20   S    
C5    O9    A    
C147  O70   S    
C8    O12   A    
C58   C119  S    
C9    C123  A    
Cu6   O26   S    
C65   H1    S    
C70   C82   A    
C95   O47   A    
Cu9   O34   S    
Cu10  O38   S    
C93   O45   A    
C80   C88   A    
C39   C71   A    
C64   O32   A    
C62   O26   A    
C42   C54   A    
Cu11  O44   S    
C102  H22   S    
C67   C83   A    
C72   H8    S    
C109  C135  A    
C110  C136  A    
Cu11  Cu12  S    
Cu12  O48   S    
C16   C134  A    
C34   C66   A    
C98   C124  A    
C19   C123  A    
C138  O51   D    
C82   C89   S    
C48   C152  S    
C94   O42   A    
C102  C128  A    
C141  O57   D    
Cu8   O14   S    
C73   H9    S    
C111  C119  A    
C140  O55   D    
C44   C76   A    
C2    C50   S    
C81   C92   S    
C60   O24   A    
C152  O80   S    
C22   C25   A    
C8    O16   A    
C90   O40   A    
C36   C52   A    
C112  H32   S    
C23   Br7   S    
C22   Br6   S    
C145  O65   D    
C57   O19   A    
C103  H23   S    
C150  O76   S    
Cu2   O2    S    
C3    O5    A    
C1    O7    A    
C21   Br5   S    
C44   C148  S    
C100  C114  A    
C95   O43   A    
C28   C132  A    
Cu2   O8    S    
C149  O73   D    
C24   Br8   S    
C86   C93   S    
C109  H29   S    
Cu9   O36   S    
C35   C67   A    
C73   C85   A    
C148  O71   D    
C18   C29   A    
Cu5   O13   S    
C23   C28   A    
C33   C137  S    
C142  O60   S    
C41   C53   A    
C98   H18   S    
Cu11  O42   S    
C57   C120  S    
C75   C87   A    
C39   C49   A    
C59   C118  S    
C16   C136  A    
C42   C146  S    
C43   C55   A    
Cu7   O11   S    
C40   C72   A    
C63   O31   A    
O60   H38   S    
C146  O68   S    
C47   C53   A    
Cu4   O6    S    
C62   C115  S    
C97   C123  A    
Cu1   O21   S    
C40   C144  S    
C144  O64   S    
C103  C125  A    
Cu5   O25   S    
C20   C124  A    
C41   C145  S    
C41   C73   A    
C12   C13   A    
C45   C55   A    
C30   Br14  S    
O68   H42   S    
C24   C128  A    
C13   C129  A    
C45   C77   A    
C3    O3    A    
O54   H35   S    
C61   O25   A    
C71   C81   A    
C38   C70   A    
O64   H40   S    
C105  C117  A    
Cu8   O30   S    
C27   Br11  S    
O58   H37   S    
Cu1   Cu3   S    
Cu4   O4    S    
C31   Br15  S    
C11   C125  A    
C38   C142  S    
C66   H2    S    
Cu5   Cu7   S    
C33   C49   A    
C108  C130  A    
Cu6   O10   S    
C80   H16   S    
Cu7   O27   S    
O66   H41   S    
C101  H21   S    
Cu6   O32   S    
C94   O48   A    
C104  H24   S    
C143  O61   D    
C7    O11   A    
C63   O29   A    
Cu1   O5    S    
C151  O78   S    
C77   H13   S    
C42   C74   A    
C74   H10   S    
O80   H48   S    
C68   C84   A    
Cu5   O9    S    
C31   C135  A    
O74   H45   S    
C46   C78   A    
C17   Br1   S    
Cu8   O12   S    
C69   H5    S    
C103  C115  A    
O76   H46   S    
C147  O69   D    
C68   H4    S    
C44   C56   A    
C65   C81   A    
O70   H43   S    
Cu7   O15   S    
C46   C54   A    
C61   C116  S    
C13   C131  A    
C92   O38   A    
C61   O27   A    
Cu9   O33   S    
C11   C127  A    
C17   C121  A    
C137  O50   S    
C21   C125  A    
Cu11  O43   S    
C109  C119  A    
C32   C136  A    
C3    C51   S    
Cu12  O45   S    
C99   C113  A    
Cu3   O23   S    
C28   Br12  S    
C139  O53   D    
C107  H27   S    
C97   H17   S    
C108  H28   S    
C79   C85   A    
C92   O36   A    
C34   C138  S    
C37   C141  S    
C4    O4    A    
C59   O23   A    
Cu1   O1    S    
C152  O79   D    
C107  C117  A    
Cu8   O28   S    
C20   Br4   S    
C27   C131  A    
C150  O75   D    
C46   C150  S    
C47   C79   A    
C25   C129  A    
C33   C65   A    
C58   O20   A    
C4    C52   S    
C5    C53   S    
C9    C16   A    
C10   C15   A    
C37   C51   A    
C11   C14   A    
Cu3   O19   S    
C22   C126  A    
C15   C135  A    
C2    O2    A    
C26   Br10  S    
C101  C127  A    
Cu9   O35   S    
C63   C114  S    
C96   O44   A    
C7    O13   A    
C142  O59   D    
C76   C88   A    
Cu11  O41   S    
C5    O15   A    
C78   C86   A    
C71   H7    S    
Cu10  O37   S    
Cu12  O47   S    
Cu3   O7    S    
C106  H26   S    
C34   C50   A    
C67   H3    S    
C108  C118  A    
C102  C116  A    
C110  C120  A    
C141  O58   S    
C111  C133  A    
Cu7   O31   S    
C30   C134  A    
C146  O67   D    
C40   C52   A    
C140  O56   S    
C2    O6    A    
C69   C83   A    
C59   O21   A    
C6    O10   A    
C144  O63   D    
C36   C140  S    
C74   C86   A    
C77   C87   A    
Cu2   O18   S    
C78   H14   S    
C145  O66   S    
Cu10  O39   S    
C97   C113  A    
O56   H36   S    
Cu3   O3    S    
C35   C139  S    
C75   H11   S    
C48   C56   A    
C83   C90   S    
C76   H12   S    
Cu6   O16   S    
C64   C113  S    
C70   H6    S    
C45   C149  S    
C79   H15   S    
C93   O41   A    
O50   H33   S    
C38   C50   A    
C15   C133  A    
C100  H20   S    
C48   C80   A    
C149  O74   S    
C19   Br3   S    
C148  O72   S    
C100  C122  A    
C91   O39   A    
C58   O18   A    
C89   O37   A    
C39   C143  S    
C104  C126  A    
C29   Br13  S    
C105  H25   S    
C1    C49   S    
C32   Br16  S    
C43   C147  S    
C20   C31   A    
