data_mof_unit_53291.cif
_audit_creation_date              2012-12-11T15:34:45-0500
_audit_creation_method            fapswitch 2.2
_symmetry_space_group_name_H-M    P1
_symmetry_Int_Tables_number       1
_space_group_crystal_system       triclinic
_cell_length_a                    17.121954
_cell_length_b                    17.11363
_cell_length_c                    17.220815
_cell_angle_alpha                 89.845648
_cell_angle_beta                  89.906624
_cell_angle_gamma                 90.103013
_cell_volume                      5045.98909189

loop_
_atom_site_label
_atom_site_type_symbol
_atom_type_description
_atom_site_fract_x
_atom_site_fract_y
_atom_site_fract_z
_atom_type_partial_charge
C1    C     C_R   0.811309 0.099278 0.376191 -0.063272
C2    C     C_R   0.195641 0.104657 0.389208 -0.036540
C3    C     C_R   0.893569 0.199265 0.598396 -0.083937
C4    C     C_R   0.094878 0.814369 0.371250 -0.190820
C5    C     C_R   0.168768 0.075637 0.645046 -0.146297
C6    C     C_R   0.830281 0.920635 0.354592 -0.067848
C7    C     C_R   0.106604 0.800674 0.598380 -0.083136
C8    C     C_R   0.910122 0.183886 0.367912 -0.171440
C9    C     C_R   0.328348 0.580373 0.856360 -0.111927
C10   C     C_R   0.699270 0.394321 0.098019 -0.146279
C11   C     C_R   0.394375 0.302333 0.896423 -0.183226
C12   C     C_R   0.198290 0.891468 0.600323 -0.185128
C13   C     C_R   0.604602 0.694990 0.111434 -0.075350
C14   C     C_R   0.671798 0.419952 0.856297 -0.112464
C15   C     C_R   0.300580 0.606686 0.095738 -0.162519
C16   C     C_R   0.605897 0.698064 0.897286 -0.166935
C17   C     C_R   0.424558 0.333478 0.147256 -0.077224
C18   C     C_R   0.331756 0.424646 0.145458 -0.149041
C19   C     C_R   0.696588 0.606228 0.892271 -0.058886
C20   C     C_R   0.390890 0.699090 0.096675 -0.097565
C21   C     C_R   0.579014 0.328242 0.856401 -0.097010
C22   C     C_R   0.696949 0.603678 0.106006 -0.162479
C23   C     C_R   0.917924 0.825678 0.358880 -0.175116
C24   C     C_R   0.303766 0.394363 0.891392 -0.045501
C25   C     C_R   0.609613 0.301048 0.095968 -0.083258
C26   C     C_R   0.421286 0.671908 0.856246 -0.096170
C27   C     C_R   0.161250 0.154828 0.770445 -0.261847
C28   C     C_R   0.842815 0.834263 0.232276 -0.269706
C29   C     C_R   0.755630 0.249586 0.630069 -0.220655
C30   C     C_R   0.193112 0.806959 0.260878 -0.306680
C31   C     C_R   0.840021 0.845642 0.771587 -0.261282
C32   C     C_R   0.237789 0.242620 0.344638 -0.276007
C33   C     C_R   0.244760 0.750647 0.629832 -0.221515
C34   C     C_R   0.076054 0.166846 0.646922 -0.076589
C35   C     C_R   0.805707 0.197506 0.262853 -0.294347
C36   C     C_R   0.742785 0.734443 0.155473 -0.269091
C37   C     C_R   0.262071 0.256496 0.846678 -0.269932
C38   C     C_R   0.249255 0.742096 0.124871 -0.268100
C39   C     C_R   0.665037 0.334466 0.733529 -0.152695
C40   C     C_R   0.339761 0.345664 0.271195 -0.266794
C41   C     C_R   0.738897 0.744879 0.849383 -0.260194
C42   C     C_R   0.750170 0.257649 0.123795 -0.252587
C43   C     C_R   0.335549 0.665962 0.733373 -0.152028
C44   C     C_R   0.838187 0.164690 0.335442 0.198734
C45   C     C_R   0.185996 0.907516 0.370218 -0.051434
C46   C     C_R   0.185612 0.811694 0.611335 0.181173
C47   C     C_R   0.864331 0.861557 0.310630 0.164800
C48   C     C_R   0.133437 0.131050 0.692488 0.165276
C49   C     C_R   0.162135 0.839458 0.333487 0.190220
C50   C     C_R   0.814540 0.188363 0.611426 0.181897
C51   C     C_R   0.181205 0.182783 0.371252 0.189260
C52   C     C_R   0.867121 0.869055 0.692993 0.167563
C53   C     C_R   0.362354 0.639189 0.810924 0.197797
C54   C     C_R   0.688914 0.314891 0.106002 0.141572
C55   C     C_R   0.318244 0.316319 0.873780 0.201612
C56   C     C_R   0.801706 0.108625 0.600372 -0.184658
C57   C     C_R   0.682565 0.679298 0.129360 0.190507
C58   C     C_R   0.638029 0.361167 0.810997 0.198753
C59   C     C_R   0.311179 0.685876 0.105235 0.163382
C60   C     C_R   0.682373 0.684612 0.875459 0.205552
C61   C     C_R   0.367402 0.369386 0.193007 0.160774
C62   C     C_R   0.180398 0.268977 0.851777 0.338285
C63   C     C_R   0.815318 0.707122 0.184808 0.417270
C64   C     C_R   0.631958 0.268707 0.696622 0.424961
C65   C     C_R   0.269813 0.819473 0.142179 0.350109
C66   C     C_R   0.820453 0.731667 0.853772 0.335733
C67   C     C_R   0.105255 0.197275 0.394764 -0.187922
C68   C     C_R   0.265793 0.371935 0.295013 0.410403
C69   C     C_R   0.368337 0.732059 0.696390 0.425241
C70   C     C_R   0.725792 0.183356 0.146293 0.340600
C71   C     C_R   0.182418 0.710629 0.160393 0.422131
C72   C     C_R   0.728976 0.371362 0.697511 0.298092
C73   C     C_R   0.731441 0.815891 0.147975 0.330565
C74   C     C_R   0.288836 0.183478 0.818159 0.411302
C75   C     C_R   0.819987 0.286988 0.154532 0.417147
C76   C     C_R   0.271947 0.628795 0.697400 0.296602
C77   C     C_R   0.370544 0.278846 0.307519 0.355805
C78   C     C_R   0.924237 0.833232 0.647184 -0.078777
C79   C     C_R   0.712754 0.818581 0.821673 0.415541
C80   C     C_R   0.778466 0.866186 0.193103 0.348617
C81   C     C_R   0.234979 0.128231 0.794591 0.408767
C82   C     C_R   0.168845 0.731846 0.236192 0.420716
C83   C     C_R   0.778601 0.326375 0.650061 0.353849
C84   C     C_R   0.319403 0.230041 0.350682 0.341345
C85   C     C_R   0.766982 0.873168 0.796838 0.404276
C86   C     C_R   0.839428 0.265783 0.229510 0.403860
C87   C     C_R   0.222126 0.673700 0.649989 0.355207
C88   C     C_R   0.676240 0.228956 0.640311 0.309614
C89   C     C_R   0.831519 0.924372 0.645405 -0.159899
C90   C     C_R   0.235545 0.854908 0.208055 0.345468
C91   C     C_R   0.129954 0.221036 0.807269 0.354196
C92   C     C_R   0.870353 0.760872 0.208471 0.405864
C93   C     C_R   0.324037 0.771642 0.639929 0.306878
C94   C     C_R   0.748888 0.155304 0.219644 0.394394
C95   C     C_R   0.871016 0.779151 0.808462 0.352129
C96   C     C_R   0.211484 0.316185 0.316766 0.411137
H1    H     H_    0.753665 0.074054 0.376432 0.157103
H2    H     H_    0.250664 0.074277 0.386878 0.164909
H3    H     H_    0.924733 0.253353 0.591065 0.172913
H4    H     H_    0.064199 0.760519 0.363676 0.172316
H5    H     H_    0.217327 0.038141 0.657709 0.165030
H6    H     H_    0.781044 0.955728 0.338555 0.172812
H7    H     H_    0.075657 0.746498 0.591093 0.173207
H8    H     H_    0.950399 0.229682 0.352531 0.170600
H9    H     H_    0.278482 0.544680 0.842988 0.169314
H10   H     H_    0.753285 0.426547 0.094995 0.159130
H11   H     H_    0.421247 0.246201 0.906448 0.168530
H12   H     H_    0.253658 0.921454 0.598735 0.166972
H13   H     H_    0.574347 0.750174 0.114517 0.163559
H14   H     H_    0.721523 0.455949 0.842794 0.170326
H15   H     H_    0.246526 0.575262 0.089455 0.162252
H16   H     H_    0.578864 0.753947 0.907921 0.174414
H17   H     H_    0.463479 0.286814 0.163398 0.156611
H18   H     H_    0.283456 0.462392 0.158438 0.173327
H19   H     H_    0.752075 0.576614 0.891737 0.165807
H20   H     H_    0.420341 0.754807 0.093509 0.158589
H21   H     H_    0.541472 0.279683 0.843166 0.179700
H22   H     H_    0.752872 0.576146 0.096894 0.176108
H23   H     H_    0.945031 0.770098 0.350718 0.168427
H24   H     H_    0.248314 0.424025 0.890543 0.165164
H25   H     H_    0.581169 0.244983 0.090722 0.162876
H26   H     H_    0.459066 0.720345 0.842817 0.178768
H27   H     H_    0.098109 0.312512 0.916190 0.342640
H28   H     H_    0.788530 0.605901 0.224035 0.309821
H29   H     H_    0.542806 0.197525 0.687104 0.385585
H30   H     H_    0.349774 0.898756 0.126918 0.328702
H31   H     H_    0.902666 0.687425 0.917721 0.343186
H32   H     H_    0.289580 0.481793 0.288685 0.312209
H33   H     H_    0.456825 0.804158 0.687167 0.384133
H34   H     H_    0.037705 0.213901 0.662983 0.159368
H35   H     H_    0.683092 0.085312 0.108837 0.340444
H36   H     H_    0.144806 0.654602 0.071445 0.311102
H37   H     H_    0.769421 0.472008 0.663386 0.342458
H38   H     H_    0.691088 0.897211 0.080231 0.339016
H39   H     H_    0.390693 0.208736 0.779922 0.326026
H40   H     H_    0.850620 0.342290 0.061628 0.312746
H41   H     H_    0.232188 0.528066 0.663367 0.343854
H42   H     H_    0.456548 0.205011 0.304931 0.326160
H43   H     H_    0.610534 0.796204 0.783519 0.321485
H44   H     H_    0.705587 0.952435 0.191408 0.333313
H45   H     H_    0.238950 0.940525 0.360902 0.150747
H46   H     H_    0.211447 0.018445 0.787645 0.316306
H47   H     H_    0.162575 0.679967 0.334797 0.312061
H48   H     H_    0.868756 0.394131 0.662853 0.332246
H49   H     H_    0.400666 0.185372 0.415585 0.342182
H50   H     H_    0.791747 0.982641 0.788196 0.317351
H51   H     H_    0.862964 0.322706 0.322204 0.314829
H52   H     H_    0.132356 0.605321 0.663022 0.332475
H53   H     H_    0.667817 0.170139 0.545324 0.323138
H54   H     H_    0.249925 0.961328 0.170936 0.336261
H55   H     H_    0.044034 0.294948 0.804588 0.327541
H56   H     H_    0.746259 0.078790 0.598867 0.164677
H57   H     H_    0.979849 0.784405 0.220397 0.316083
H58   H     H_    0.332352 0.830705 0.544738 0.322208
H59   H     H_    0.658648 0.087761 0.232373 0.321080
H60   H     H_    0.956214 0.704410 0.805462 0.327654
H61   H     H_    0.109960 0.290911 0.277848 0.322226
H62   H     H_    0.078592 0.253534 0.404364 0.170993
H63   H     H_    0.962772 0.786322 0.663329 0.160071
H64   H     H_    0.783030 0.961881 0.658328 0.165945
N1    N     N_R   0.868470 0.074730 0.422590 -0.063983
N2    N     N_R   0.131530 0.074730 0.422590 -0.061358
N3    N     N_R   0.925270 0.131530 0.577410 -0.060530
N4    N     N_R   0.074730 0.868470 0.422590 -0.046447
N5    N     N_R   0.131530 0.074730 0.577410 -0.047459
N6    N     N_R   0.868470 0.925270 0.422590 -0.060431
N7    N     N_R   0.074730 0.868470 0.577410 -0.060697
N8    N     N_R   0.925270 0.131530 0.422590 -0.049450
N9    N     N_R   0.368470 0.574730 0.922590 -0.062491
N10   N     N_R   0.631530 0.425270 0.077410 -0.047733
N11   N     N_R   0.425270 0.368470 0.922590 -0.050071
N12   N     N_R   0.131530 0.925270 0.577410 -0.049908
N13   N     N_R   0.574730 0.631530 0.077410 -0.061384
N14   N     N_R   0.631530 0.425270 0.922590 -0.063331
N15   N     N_R   0.368470 0.574730 0.077410 -0.053317
N16   N     N_R   0.574730 0.631530 0.922590 -0.051546
N17   N     N_R   0.425270 0.368470 0.077410 -0.060619
N18   N     N_R   0.368470 0.425270 0.077410 -0.048304
N19   N     N_R   0.631530 0.574730 0.922590 -0.060632
N20   N     N_R   0.425270 0.631530 0.077410 -0.058506
N21   N     N_R   0.574730 0.368470 0.922590 -0.059330
N22   N     N_R   0.631530 0.574730 0.077410 -0.051836
N23   N     N_R   0.925270 0.868470 0.422590 -0.044850
N24   N     N_R   0.368470 0.425270 0.922590 -0.060826
N25   N     N_R   0.574730 0.368470 0.077410 -0.060301
N26   N     N_R   0.425270 0.631530 0.922590 -0.058436
N27   N     N_R   0.074730 0.131530 0.577410 -0.060368
N28   N     N_R   0.131530 0.925270 0.422590 -0.062562
N29   N     N_R   0.868470 0.074730 0.577410 -0.048566
N30   N     N_R   0.074730 0.131530 0.422590 -0.047932
N31   N     N_R   0.925270 0.868470 0.577410 -0.060114
N32   N     N_R   0.868470 0.925270 0.577410 -0.048585
Ni1   Ni    Ni4+2 0.869670 0.000000 0.500000 0.221902
Ni2   Ni    Ni4+2 0.130330 0.000000 0.500000 0.231200
Ni3   Ni    Ni4+2 0.000000 0.869670 0.500000 0.231075
Ni4   Ni    Ni4+2 0.000000 0.130330 0.500000 0.228230
Ni5   Ni    Ni4+2 0.369670 0.500000 0.000000 0.233003
Ni6   Ni    Ni4+2 0.630330 0.500000 0.000000 0.227825
Ni7   Ni    Ni4+2 0.500000 0.369670 0.000000 0.230548
Ni8   Ni    Ni4+2 0.500000 0.630330 0.000000 0.235509
O1    O     O_3   0.151729 0.326757 0.899675 -0.755509
O2    O     O_3   0.741201 0.450278 0.708851 -0.759999
O3    O     O_3   0.675435 0.844236 0.097733 -0.754547
O4    O     O_3   0.366417 0.164905 0.809066 -0.678651
O5    O     O_3   0.863374 0.344133 0.117805 -0.668656
O6    O     O_3   0.260227 0.549741 0.708789 -0.758939
O7    O     O_3   0.448882 0.262049 0.298838 -0.750111
O8    O     O_3   0.635344 0.838365 0.814299 -0.677138
O9    O     O_3   0.761996 0.944450 0.201178 -0.716180
O10   O     O_3   0.258923 0.051811 0.786913 -0.680322
O11   O     O_3   0.135218 0.676811 0.284159 -0.645456
O12   O     O_3   0.833099 0.629499 0.195506 -0.660875
O13   O     O_3   0.848902 0.356084 0.624315 -0.763842
O14   O     O_3   0.347336 0.171398 0.398195 -0.757740
O15   O     O_3   0.743866 0.949862 0.788931 -0.681189
O16   O     O_3   0.886438 0.316702 0.269849 -0.667642
O17   O     O_3   0.151941 0.643814 0.624505 -0.761315
O18   O     O_3   0.640838 0.171805 0.596328 -0.741871
O19   O     O_3   0.242257 0.934173 0.221252 -0.760689
O20   O     O_3   0.051738 0.237994 0.798056 -0.748281
O21   O     O_3   0.946594 0.736906 0.218074 -0.649636
O22   O     O_3   0.359310 0.828987 0.595671 -0.742459
O23   O     O_3   0.556031 0.247065 0.713538 -0.753076
O24   O     O_3   0.713281 0.090404 0.251104 -0.754780
O25   O     O_3   0.948963 0.761391 0.798392 -0.748417
O26   O     O_3   0.134070 0.334888 0.306591 -0.659315
O27   O     O_3   0.324106 0.857277 0.096073 -0.735800
O28   O     O_3   0.848860 0.673606 0.901704 -0.754840
O29   O     O_3   0.242041 0.448524 0.287963 -0.662573
O30   O     O_3   0.444012 0.754233 0.713395 -0.754745
O31   O     O_3   0.677179 0.141790 0.097558 -0.743057
O32   O     O_3   0.139199 0.650777 0.128713 -0.649692

loop_
_geom_bond_atom_site_label_1
_geom_bond_atom_site_label_2
_ccdc_geom_bond_type
C27   C48   S    
H60   O25   S    
C94   O24   S    
C37   C74   A    
C6    N6    A    
C28   C47   S    
C30   C82   A    
H32   O29   S    
C31   C85   A    
N27   Ni4   S    
C24   N24   A    
C26   N26   A    
N12   Ni2   S    
H30   O27   S    
N22   Ni6   S    
N6    Ni1   S    
C79   C85   A    
C31   C52   S    
C30   C90   A    
N5    Ni2   S    
C18   H18   S    
C22   C57   A    
C37   C62   A    
C52   C89   A    
C67   N30   A    
C17   H17   S    
H38   O3    S    
C12   N12   A    
C24   C55   A    
C21   N21   A    
C39   C64   A    
C73   O3    S    
C42   C75   A    
N5    N27   A    
C72   O2    S    
C92   O21   S    
C70   C94   A    
N9    N26   A    
C29   C83   A    
C69   C93   A    
C77   O7    S    
C23   H23   S    
H48   O13   S    
C35   C86   A    
C28   C80   A    
C13   C57   A    
C9    H9    S    
C79   O8    S    
C42   C70   A    
C65   O27   S    
C22   H22   S    
C16   C60   A    
C91   O20   S    
C70   O31   S    
N15   Ni5   S    
C29   C88   A    
C13   H13   S    
C8    N8    A    
C17   C61   A    
C56   N29   A    
C9    N9    A    
C43   C53   S    
N16   N19   A    
C76   O6    S    
C63   C92   A    
C21   H21   S    
C39   C72   A    
C4    N4    A    
C27   C91   A    
C93   O22   S    
C19   H19   S    
C56   H56   S    
C36   C63   A    
H52   O17   S    
C63   O12   S    
H50   O15   S    
N30   Ni4   S    
H41   O6    S    
C71   C82   A    
C16   N16   A    
C87   O17   S    
C81   O10   S    
C1    N1    A    
C43   C69   A    
C7    H7    S    
N13   Ni8   S    
C45   H45   S    
C33   C46   S    
N26   Ni8   S    
H59   O24   S    
N7    Ni3   S    
N16   Ni8   S    
C52   C78   A    
H36   O32   S    
N14   N21   A    
C83   O13   S    
C3    C50   A    
C84   O14   S    
H44   O9    S    
C51   C67   A    
N11   Ni7   S    
C29   C50   S    
H29   O23   S    
C65   C90   A    
C14   C58   A    
C5    C48   A    
C5    H5    S    
N14   Ni6   S    
C23   C47   A    
C6    C47   A    
H27   O1    S    
C24   H24   S    
C40   C68   A    
N31   N32   A    
N1    N8    A    
C7    C46   A    
C15   H15   S    
N11   N24   A    
C27   C81   A    
C25   C54   A    
C41   C60   S    
C20   N20   A    
H51   O16   S    
C2    C51   A    
C1    H1    S    
C12   H12   S    
C28   C92   A    
H47   O11   S    
H28   O12   S    
C77   C84   A    
C39   C58   S    
H33   O30   S    
C45   N28   A    
C50   C56   A    
C40   C61   S    
H49   O14   S    
C64   O23   S    
C96   O26   S    
H58   O22   S    
C73   C80   A    
C13   N13   A    
C95   O25   S    
C62   O1    S    
H57   O21   S    
N20   Ni8   S    
N29   Ni1   S    
C75   C86   A    
N23   Ni3   S    
C38   C65   A    
C45   C49   A    
H54   O19   S    
C1    C44   A    
C62   C91   A    
N2    Ni2   S    
C90   O19   S    
N1    Ni1   S    
N3    N29   A    
C68   C96   A    
N25   Ni7   S    
C20   C59   A    
C35   C44   S    
C8    H8    S    
C76   C87   A    
C2    H2    S    
C23   N23   A    
C41   C66   A    
C25   N25   A    
H61   O26   S    
C12   C46   A    
N7    N12   A    
C32   C96   A    
N18   Ni5   S    
N13   N22   A    
C36   C57   S    
C5    N5    A    
C4    H4    S    
C11   H11   S    
H31   O28   S    
C10   H10   S    
C34   C48   A    
H46   O10   S    
C74   C81   A    
N21   Ni7   S    
C26   C53   A    
C19   N19   A    
C11   N11   A    
N2    N30   A    
C11   C55   A    
C68   O29   S    
C16   H16   S    
C89   H64   S    
N9    Ni5   S    
C82   O11   S    
C35   C94   A    
H35   O31   S    
H37   O2    S    
C14   H14   S    
C7    N7    A    
C38   C71   A    
C40   C77   A    
C15   C59   A    
C30   C49   S    
N6    N23   A    
C8    C44   A    
C32   C84   A    
C20   H20   S    
N4    N28   A    
C33   C93   A    
C41   C79   A    
N4    Ni3   S    
H42   O7    S    
C18   C61   A    
H39   O4    S    
N19   Ni6   S    
C3    N3    A    
C19   C60   A    
C10   N10   A    
C15   N15   A    
C4    C49   A    
N32   Ni1   S    
C85   O15   S    
C78   N31   A    
C21   C58   A    
C22   N22   A    
C69   O30   S    
C32   C51   S    
N10   Ni6   S    
C75   O5    S    
H40   O5    S    
C74   O4    S    
N3    Ni4   S    
N24   Ni5   S    
C31   C95   A    
N10   N25   A    
C80   O9    S    
C89   N32   A    
C88   O18   S    
C67   H62   S    
H53   O18   S    
C6    H6    S    
C33   C87   A    
C34   N27   A    
C10   C54   A    
N31   Ni3   S    
C72   C83   A    
H43   O8    S    
N17   Ni7   S    
N15   N20   A    
N28   Ni2   S    
C38   C59   S    
C37   C55   S    
C3    H3    S    
C78   H63   S    
C9    C53   A    
C34   H34   S    
C14   N14   A    
N17   N18   A    
N8    Ni4   S    
C66   O28   S    
H55   O20   S    
C43   C76   A    
C17   N17   A    
C26   H26   S    
C2    N2    A    
C71   O32   S    
C25   H25   S    
C36   C73   A    
C64   C88   A    
C42   C54   S    
C66   C95   A    
C86   O16   S    
C18   N18   A    
