data_mof_unit_34667.cif
_audit_creation_date              2012-12-10T17:17:22-0500
_audit_creation_method            fapswitch 2.2
_symmetry_space_group_name_H-M    P1
_symmetry_Int_Tables_number       1
_space_group_crystal_system       triclinic
_cell_length_a                    10.176288
_cell_length_b                    10.800355
_cell_length_c                    12.378132
_cell_angle_alpha                 90.799359
_cell_angle_beta                  109.672305
_cell_angle_gamma                 96.011745
_cell_volume                      1272.23968301

loop_
_atom_site_label
_atom_site_type_symbol
_atom_type_description
_atom_site_fract_x
_atom_site_fract_y
_atom_site_fract_z
_atom_type_partial_charge
C1    C     C_R   0.054088 0.732860 0.496368 0.944653
C2    C     C_R   0.204463 0.513405 0.837203 -0.073943
C3    C     C_2   0.092011 0.866151 0.506230 -0.368191
C4    C     C_R   0.133511 0.508422 0.713746 0.857909
C5    C     C_2   0.013585 0.936817 0.542568 -0.137614
C6    C     C_2   0.929204 0.136616 0.529372 -0.378738
C7    C     C_2   0.035433 0.069528 0.540044 -0.141947
C8    C     C_2   0.433867 0.507929 0.514064 -0.173748
C9    C     C_2   0.570167 0.479851 0.501289 -0.109446
C10   C     C_R   0.950392 0.267730 0.511145 0.940927
C11   C     C_R   0.865033 0.487005 0.286138 0.880336
C12   C     C_R   0.412265 0.483503 0.997682 0.010304
C13   C     C_R   0.714424 0.310216 0.002549 -0.156315
C14   C     C_R   0.784905 0.457374 0.165791 -0.065029
C15   C     C_R   0.164570 0.595673 0.905554 -0.219532
C16   C     C_R   0.240024 0.613605 0.021681 -0.185799
C17   C     C_R   0.362341 0.556777 0.069992 -0.002855
C18   C     C_3   0.519463 0.246813 0.699364 0.092060
C19   C     C_3   0.572438 0.146487 0.642687 -0.822677
C20   C     C_2   0.420382 0.561989 0.196746 0.875285
C21   C     C_R   0.321011 0.447874 0.885598 0.008544
C22   C     C_R   0.549227 0.446421 0.030047 0.034420
C23   C     C_R   0.580254 0.351266 0.964776 0.054907
C24   C     C_R   0.477657 0.300488 0.862653 0.439671
C25   C     C_R   0.348807 0.348689 0.824100 -0.301963
C26   C     C_R   0.658844 0.507287 0.121706 -0.164678
C27   C     C_R   0.815117 0.360606 0.104914 -0.214517
H1    H     H_    0.913321 0.320699 0.138744 0.163814
H2    H     H_    0.646330 0.591163 0.164003 0.143894
H3    H     H_    0.074207 0.645836 0.869169 0.165231
H4    H     H_    0.201425 0.671008 0.074287 0.182018
H5    H     H_    0.270062 0.306708 0.746089 0.173041
H6    H     H_    0.136585 0.111065 0.537749 0.188107
H7    H     H_    0.597548 0.331743 0.717272 0.143662
H8    H     H_    0.417130 0.268076 0.637874 0.155827
H9    H     H_    0.495990 0.060894 0.621778 0.257070
H10   H     H_    0.585428 0.180210 0.562120 0.207646
H11   H     H_    0.675542 0.123884 0.701394 0.254095
H12   H     H_    0.924836 0.896938 0.566048 0.186116
H13   H     H_    0.467987 0.665687 0.344855 0.348461
H14   H     H_    0.828334 0.094683 0.531698 0.154927
H15   H     H_    0.180401 0.906442 0.482612 0.156034
H16   H     H_    0.570905 0.396427 0.451811 0.205923
H17   H     H_    0.436007 0.582620 0.574378 0.170754
H18   H     H_    0.681035 0.632591 0.590253 0.157982
H19   H     H_    0.315896 0.375892 0.398900 0.193704
H20   H     H_    0.740042 0.236469 0.955567 0.183323
N1    N     N_2   0.313640 0.446500 0.454900 -0.185828
N2    N     N_2   0.686360 0.553430 0.545150 -0.200073
O1    O     O_R   0.936910 0.692950 0.509080 -0.612959
O2    O     O_2   0.463180 0.469672 0.246565 -0.644653
O3    O     O_R   0.422879 0.671792 0.259014 -0.811256
O4    O     O_R   0.138320 0.658600 0.480130 -0.597294
O5    O     O_R   0.002900 0.525670 0.675280 -0.613372
O6    O     O_R   0.204310 0.491320 0.646330 -0.619872
O7    O     O_R   0.861680 0.341400 0.519870 -0.609532
O8    O     O_R   0.063090 0.307050 0.490920 -0.621829
O9    O     O_R   0.795690 0.508680 0.353670 -0.569768
O10   O     O_R   0.997100 0.474330 0.324720 -0.607124
O11   O     O_3   0.503000 0.202729 0.801539 -0.612805
Zn1   Zn    Zn3+2 0.865520 0.522940 0.519330 0.952379
Zn2   Zn    Zn3+2 0.134480 0.477060 0.480670 0.940333

loop_
_geom_bond_atom_site_label_1
_geom_bond_atom_site_label_2
_ccdc_geom_bond_type
C12   C17   A    
C6    C10   S    
C2    C4    S    
C23   C24   A    
C8    N1    D    
C3    H15   S    
C6    C7    D    
O5    Zn1   S    
C12   C22   A    
C14   C27   A    
C11   O9    A    
C10   O7    A    
C18   H8    S    
N1    Zn2   S    
C1    O1    A    
H18   N2    S    
C24   O11   S    
C17   C20   S    
C2    C21   A    
C3    C5    D    
O8    Zn2   S    
C20   O3    S    
H13   O3    S    
C14   C26   A    
C16   H4    S    
C2    C15   A    
C18   H7    S    
C16   C17   A    
C25   H5    S    
O4    Zn2   S    
C11   O10   A    
C18   O11   S    
C19   H11   S    
C20   O2    D    
C19   H9    S    
C5    H12   S    
C4    O6    A    
C11   C14   S    
H19   N1    S    
C9    H16   S    
N2    Zn1   S    
C7    H6    S    
C15   C16   A    
O6    Zn2   S    
O9    Zn1   S    
C10   O8    A    
C9    N2    D    
C24   C25   A    
C13   C23   A    
C15   H3    S    
C13   H20   S    
C18   C19   S    
C22   C26   A    
C27   H1    S    
C5    C7    S    
O1    Zn1   S    
C21   C25   A    
O7    Zn1   S    
C13   C27   A    
O10   Zn2   S    
C1    O4    A    
C19   H10   S    
C26   H2    S    
C4    O5    A    
C22   C23   A    
C12   C21   A    
C8    H17   S    
C8    C9    S    
C1    C3    S    
C6    H14   S    
