data_mof_unit_42190.cif
_audit_creation_date              2012-12-11T20:51:09-0500
_audit_creation_method            fapswitch 2.2
_symmetry_space_group_name_H-M    P1
_symmetry_Int_Tables_number       1
_space_group_crystal_system       triclinic
_cell_length_a                    30.398525
_cell_length_b                    34.110689
_cell_length_c                    8.421415
_cell_angle_alpha                 90.000839
_cell_angle_beta                  90.122836
_cell_angle_gamma                 89.999871
_cell_volume                      8732.2683695

loop_
_atom_site_label
_atom_site_type_symbol
_atom_type_description
_atom_site_fract_x
_atom_site_fract_y
_atom_site_fract_z
_atom_type_partial_charge
Ba1   Ba    Ba6+2 0.999930 0.472870 0.844940 1.788126
Ba2   Ba    Ba6+2 0.999930 0.527130 0.344940 1.788120
Ba3   Ba    Ba6+2 0.499930 0.972870 0.844940 1.788111
Ba4   Ba    Ba6+2 0.499930 0.027130 0.344940 1.788114
C1    C     C_3   0.018168 0.277693 0.607723 -0.293940
C2    C     C_R   0.212154 0.331165 0.516727 0.618531
C3    C     C_R   0.404643 0.088470 0.690090 -0.000212
C4    C     C_R   0.870746 0.384481 0.153270 -0.164533
C5    C     C_R   0.870746 0.615520 0.653274 -0.164537
C6    C     C_R   0.370747 0.884481 0.153268 -0.164537
C7    C     C_R   0.370746 0.115520 0.653274 -0.164536
C8    C     C_R   0.862732 0.350533 0.246990 0.237860
C9    C     C_R   0.862732 0.649468 0.746995 0.237845
C10   C     C_R   0.362733 0.850533 0.246986 0.237847
C11   C     C_R   0.362732 0.149468 0.746995 0.237845
C12   C     C_2   0.071760 0.594258 0.868562 -0.192220
C13   C     C_R   0.712153 0.168835 0.016733 0.618534
C14   C     C_2   0.071760 0.405742 0.368557 -0.192205
C15   C     C_2   0.571760 0.094258 0.868562 -0.192222
C16   C     C_2   0.571760 0.905742 0.368559 -0.192233
C17   C     C_3   0.133619 0.480081 0.206705 0.748368
C18   C     C_3   0.133620 0.519919 0.706707 0.748367
C19   C     C_3   0.633620 0.980082 0.206708 0.748362
C20   C     C_3   0.633620 0.019919 0.706707 0.748368
C21   C     C_3   0.178648 0.470383 0.277053 0.326279
C22   C     C_3   0.178649 0.529617 0.777057 0.326281
C23   C     C_3   0.678649 0.970384 0.277055 0.326279
C24   C     C_R   0.712154 0.831165 0.516724 0.618533
C25   C     C_3   0.678649 0.029617 0.777056 0.326280
C26   C     C_3   0.863701 0.520357 0.992368 0.688887
C27   C     C_3   0.863703 0.479641 0.492373 0.688873
C28   C     C_3   0.363701 0.020357 0.992368 0.688883
C29   C     C_3   0.363701 0.979642 0.492368 0.688876
C30   C     C_3   0.819020 0.524730 0.909454 -0.307876
C31   C     C_3   0.819022 0.475263 0.409465 -0.307890
C32   C     C_3   0.319020 0.024731 0.909456 -0.307879
C33   C     C_3   0.319020 0.975267 0.409457 -0.307880
C34   C     C_3   0.995511 0.315430 0.557731 0.293803
C35   C     C_R   0.157683 0.719485 0.000937 0.603104
C36   C     C_3   0.995532 0.684556 0.057790 0.293929
C37   C     C_3   0.495534 0.815445 0.557780 0.293930
C38   C     C_3   0.495531 0.184557 0.057789 0.293924
C39   C     C_R   0.931060 0.404979 0.315776 0.152834
C40   C     C_R   0.931060 0.595021 0.815778 0.152805
C41   C     C_R   0.431060 0.904979 0.315774 0.152798
C42   C     C_R   0.431060 0.095021 0.815778 0.152808
C43   C     C_R   0.157684 0.280514 0.500919 0.603101
C44   C     C_R   0.657682 0.219486 0.000933 0.603104
C45   C     C_R   0.657684 0.780514 0.500923 0.603104
C46   C     C_R   0.189507 0.748152 0.041840 -0.079356
C47   C     C_R   0.189508 0.251848 0.541826 -0.079356
C48   C     C_R   0.689507 0.248152 0.041836 -0.079356
C49   C     C_3   0.018161 0.722309 0.107767 -0.293999
C50   C     C_R   0.689508 0.751848 0.541829 -0.079356
C51   C     C_R   0.233279 0.736808 0.071332 -0.062772
C52   C     C_R   0.233279 0.263192 0.571330 -0.062772
C53   C     C_R   0.733278 0.236808 0.071335 -0.062772
C54   C     C_R   0.733279 0.763192 0.571330 -0.062772
C55   C     C_R   0.288211 0.685631 0.090212 -0.040124
C56   C     C_R   0.288210 0.314370 0.590229 -0.040124
C57   C     C_R   0.788209 0.185630 0.090230 -0.040125
C58   C     C_R   0.788210 0.814370 0.590224 -0.040124
C59   C     C_R   0.820059 0.212909 0.136892 0.399298
C60   C     C_3   0.518163 0.777692 0.607753 -0.294002
C61   C     C_R   0.820060 0.787092 0.636890 0.399299
C62   C     C_R   0.320061 0.712909 0.136873 0.399299
C63   C     C_R   0.320059 0.287092 0.636895 0.399298
C64   C     C_R   0.809557 0.253638 0.144393 -0.080891
C65   C     C_R   0.809558 0.746362 0.644393 -0.080893
C66   C     C_R   0.309558 0.753638 0.144381 -0.080894
C67   C     C_R   0.309557 0.246362 0.644395 -0.080894
C68   C     C_R   0.765655 0.265403 0.113551 -0.130933
C69   C     C_R   0.765655 0.734598 0.613550 -0.130932
C70   C     C_R   0.265655 0.765402 0.113547 -0.130932
C71   C     C_3   0.518161 0.222309 0.107767 -0.294000
C72   C     C_R   0.265655 0.234598 0.613549 -0.130932
C73   C     C_R   0.178392 0.788019 0.052006 -0.045287
C74   C     C_R   0.178393 0.211981 0.551985 -0.045287
C75   C     C_R   0.678392 0.288019 0.051995 -0.045287
C76   C     C_R   0.678393 0.711981 0.551991 -0.045286
C77   C     C_3   0.004093 0.313908 0.107454 0.296752
C78   C     C_3   0.004085 0.686087 0.607447 0.296796
C79   C     C_3   0.504078 0.813917 0.107421 0.296850
C80   C     C_3   0.504086 0.186088 0.607449 0.296793
C81   C     C_R   0.709855 0.316629 0.087676 0.403041
C82   C     C_R   0.244661 0.696872 0.058753 -0.088333
C83   C     C_R   0.709855 0.683372 0.587676 0.403041
C84   C     C_R   0.209854 0.816628 0.087686 0.403042
C85   C     C_R   0.209856 0.183371 0.587670 0.403041
C86   C     C_R   0.753941 0.305588 0.124781 -0.084800
C87   C     C_R   0.753942 0.694412 0.624782 -0.084800
C88   C     C_R   0.253941 0.805588 0.124784 -0.084801
C89   C     C_R   0.253942 0.194412 0.624779 -0.084800
C90   C     C_R   0.786182 0.333015 0.177501 0.599013
C91   C     C_R   0.786183 0.666986 0.677506 0.599017
C92   C     C_R   0.286183 0.833015 0.177504 0.599016
C93   C     C_R   0.244661 0.303128 0.558759 -0.088333
C94   C     C_R   0.286183 0.166986 0.677503 0.599016
C95   C     C_R   0.841595 0.282950 0.177302 0.598755
C96   C     C_R   0.841595 0.717050 0.677306 0.598759
C97   C     C_R   0.341596 0.782950 0.177290 0.598762
C98   C     C_R   0.341595 0.217051 0.677307 0.598759
C99   C     C_2   0.109808 0.654866 0.808003 -0.063412
C100  C     C_2   0.109811 0.345134 0.307989 -0.063416
C101  C     C_2   0.609808 0.154866 0.808002 -0.063413
C102  C     C_2   0.609809 0.845133 0.307993 -0.063403
C103  C     C_3   0.071366 0.630921 0.784613 -0.087641
C104  C     C_R   0.744660 0.196872 0.058763 -0.088333
C105  C     C_3   0.071368 0.369079 0.284603 -0.087619
C106  C     C_3   0.571366 0.130921 0.784613 -0.087639
C107  C     C_3   0.571367 0.869079 0.284606 -0.087627
C108  C     C_1   0.096592 0.588415 0.004126 0.002789
C109  C     C_1   0.096592 0.411584 0.504123 0.002801
C110  C     C_1   0.596591 0.088416 0.004127 0.002791
C111  C     C_1   0.596592 0.911584 0.504124 0.002794
C112  C     C_2   0.126726 0.616551 0.051619 -0.099460
C113  C     C_2   0.126726 0.383448 0.551615 -0.099450
C114  C     C_2   0.626726 0.116552 0.051621 -0.099459
C115  C     C_R   0.744661 0.803128 0.558756 -0.088333
C116  C     C_2   0.626727 0.883449 0.551614 -0.099459
C117  C     C_2   0.135697 0.651021 0.946848 0.225385
C118  C     C_2   0.135698 0.348979 0.446839 0.225386
C119  C     C_2   0.635697 0.151021 0.946849 0.225381
C120  C     C_2   0.635698 0.848979 0.446840 0.225377
C121  C     C_R   0.886092 0.344997 0.382190 -0.162832
C122  C     C_R   0.886092 0.655004 0.882195 -0.162806
C123  C     C_R   0.386093 0.844996 0.382185 -0.162812
C124  C     C_R   0.386092 0.155004 0.882195 -0.162807
C125  C     C_3   0.981756 0.277872 0.038244 -0.265456
C126  C     C_R   0.212154 0.668835 0.016725 0.618534
C127  C     C_3   0.981762 0.722131 0.538251 -0.265500
C128  C     C_3   0.481771 0.777864 0.038232 -0.265546
C129  C     C_3   0.481763 0.222132 0.538253 -0.265502
C130  C     C_R   0.921064 0.372975 0.427033 -0.091905
C131  C     C_R   0.921064 0.627026 0.927037 -0.091863
C132  C     C_R   0.421065 0.872975 0.427030 -0.091868
C133  C     C_R   0.421064 0.127026 0.927037 -0.091867
C134  C     C_R   0.904644 0.411531 0.190087 -0.000208
C135  C     C_R   0.904643 0.588469 0.690090 -0.000214
C136  C     C_R   0.404644 0.911531 0.190086 -0.000214
H1    H     H_    0.020973 0.336479 0.517047 -0.000448
H2    H     H_    0.175878 0.555969 0.854233 0.013449
H3    H     H_    0.218533 0.130168 0.519992 0.334707
H4    H     H_    0.869143 0.210388 0.280390 0.331183
H5    H     H_    0.869143 0.789614 0.780390 0.331184
H6    H     H_    0.369146 0.710388 0.280364 0.331184
H7    H     H_    0.369142 0.289613 0.780397 0.331184
H8    H     H_    0.850556 0.389717 0.049358 0.121140
H9    H     H_    0.850556 0.610283 0.549362 0.121147
H10   H     H_    0.350556 0.889717 0.049357 0.121144
H11   H     H_    0.350556 0.110283 0.549361 0.121146
H12   H     H_    0.955605 0.449099 0.419726 0.311441
H13   H     H_    0.675878 0.944033 0.354232 0.013452
H14   H     H_    0.955604 0.550901 0.919722 0.311441
H15   H     H_    0.455604 0.949099 0.419726 0.311444
H16   H     H_    0.455604 0.050901 0.919721 0.311441
H17   H     H_    0.978260 0.334059 0.153475 -0.001091
H18   H     H_    0.978244 0.665936 0.653403 -0.001015
H19   H     H_    0.478228 0.834068 0.153316 -0.000957
H20   H     H_    0.478244 0.165937 0.653406 -0.001015
H21   H     H_    0.088629 0.453996 0.087451 0.304899
H22   H     H_    0.088630 0.546004 0.587451 0.304900
H23   H     H_    0.588629 0.953996 0.087456 0.304900
H24   H     H_    0.675877 0.055969 0.854231 0.013447
H25   H     H_    0.588630 0.046004 0.587452 0.304899
H26   H     H_    0.889554 0.518911 0.900124 -0.047523
H27   H     H_    0.889555 0.481087 0.400126 -0.047520
H28   H     H_    0.389554 0.018911 0.900124 -0.047520
H29   H     H_    0.389553 0.981088 0.400123 -0.047518
H30   H     H_    0.819144 0.550545 0.829084 0.079697
H31   H     H_    0.819148 0.449447 0.329100 0.079688
H32   H     H_    0.319144 0.050546 0.829087 0.079696
H33   H     H_    0.021015 0.663507 0.017255 -0.000325
H34   H     H_    0.319145 0.949452 0.329088 0.079695
H35   H     H_    0.033889 0.263890 0.502895 0.125489
H36   H     H_    0.033897 0.736104 0.002951 0.125528
H37   H     H_    0.533899 0.763897 0.502937 0.125536
H38   H     H_    0.533896 0.236105 0.002951 0.125527
H39   H     H_    0.965238 0.261255 0.134448 0.130914
H40   H     H_    0.965237 0.738744 0.634451 0.130941
H41   H     H_    0.465235 0.761258 0.134424 0.130961
H42   H     H_    0.465238 0.238745 0.634453 0.130940
H43   H     H_    0.145068 0.797524 0.026990 0.149822
H44   H     H_    0.521016 0.836495 0.517252 -0.000318
H45   H     H_    0.145070 0.202475 0.526960 0.149823
H46   H     H_    0.645069 0.297525 0.026974 0.149823
H47   H     H_    0.645070 0.702475 0.526969 0.149823
H48   H     H_    0.879418 0.320123 0.458279 0.101214
H49   H     H_    0.879419 0.679879 0.958284 0.101224
H50   H     H_    0.379419 0.820122 0.458272 0.101223
H51   H     H_    0.379419 0.179879 0.958285 0.101224
H52   H     H_    0.297615 0.655023 0.083857 0.154677
H53   H     H_    0.297614 0.344977 0.583880 0.154678
H54   H     H_    0.797614 0.155023 0.083879 0.154678
H55   H     H_    0.521013 0.163508 0.017247 -0.000330
H56   H     H_    0.797615 0.844977 0.583872 0.154678
H57   H     H_    0.144383 0.613304 0.162986 0.126479
H58   H     H_    0.144381 0.386694 0.662984 0.126479
H59   H     H_    0.644381 0.113305 0.162989 0.126482
H60   H     H_    0.644383 0.886695 0.662982 0.126481
H61   H     H_    0.115659 0.679333 0.728340 0.092255
H62   H     H_    0.115663 0.320668 0.228322 0.092250
H63   H     H_    0.615660 0.179332 0.728338 0.092257
H64   H     H_    0.615660 0.820667 0.228328 0.092263
H65   H     H_    0.993710 0.256883 0.657474 0.113582
H66   H     H_    0.190137 0.495522 0.350449 0.075523
H67   H     H_    0.993681 0.743116 0.157406 0.113594
H68   H     H_    0.493684 0.756885 0.657392 0.113593
H69   H     H_    0.493682 0.243116 0.157410 0.113594
H70   H     H_    0.050798 0.570748 0.826490 0.109087
H71   H     H_    0.050799 0.429251 0.326487 0.109080
H72   H     H_    0.550798 0.070748 0.826489 0.109087
H73   H     H_    0.550798 0.929251 0.326491 0.109091
H74   H     H_    0.025572 0.303902 0.206536 -0.029557
H75   H     H_    0.025554 0.696084 0.706575 -0.029610
H76   H     H_    0.525538 0.803930 0.206592 -0.029680
H77   H     H_    0.190137 0.504478 0.850452 0.075522
H78   H     H_    0.525555 0.196084 0.706575 -0.029608
H79   H     H_    0.956833 0.286709 0.948607 0.162487
H80   H     H_    0.956849 0.713305 0.448566 0.162486
H81   H     H_    0.456868 0.786679 0.948490 0.162479
H82   H     H_    0.456850 0.213305 0.448567 0.162485
H83   H     H_    0.006527 0.258497 0.981536 0.108763
H84   H     H_    0.006543 0.741507 0.481606 0.108758
H85   H     H_    0.506563 0.758486 0.981659 0.108758
H86   H     H_    0.506544 0.241508 0.481610 0.108758
H87   H     H_    0.110546 0.484621 0.306819 -0.136545
H88   H     H_    0.690138 0.995524 0.350449 0.075522
H89   H     H_    0.110546 0.515380 0.806820 -0.136545
H90   H     H_    0.610546 0.984622 0.306823 -0.136531
H91   H     H_    0.610546 0.015380 0.806820 -0.136546
H92   H     H_    0.237225 0.456921 0.208630 0.319431
H93   H     H_    0.237226 0.543077 0.708635 0.319431
H94   H     H_    0.737226 0.956923 0.208629 0.319431
H95   H     H_    0.737226 0.043077 0.708633 0.319431
H96   H     H_    0.862951 0.576448 0.036614 0.250345
H97   H     H_    0.862955 0.423552 0.536646 0.250350
H98   H     H_    0.362952 0.076448 0.036618 0.250345
H99   H     H_    0.690137 0.004478 0.850451 0.075524
H100  H     H_    0.362952 0.923553 0.536623 0.250350
H101  H     H_    0.811740 0.498069 0.838392 0.128773
H102  H     H_    0.811738 0.501922 0.338400 0.128785
H103  H     H_    0.311740 0.998070 0.838394 0.128777
H104  H     H_    0.311738 0.001928 0.338395 0.128780
H105  H     H_    0.792590 0.528596 0.999006 0.127385
H106  H     H_    0.792593 0.471396 0.499021 0.127383
H107  H     H_    0.292590 0.028598 0.999009 0.127383
H108  H     H_    0.292590 0.971401 0.499011 0.127384
H109  H     H_    0.972674 0.308264 0.458557 -0.026131
H110  H     H_    0.175877 0.444031 0.354229 0.013444
H111  H     H_    0.972720 0.691700 0.958515 -0.026294
H112  H     H_    0.472723 0.808301 0.458500 -0.026296
H113  H     H_    0.472718 0.191702 0.958518 -0.026286
H114  H     H_    0.043681 0.283992 0.698832 0.156698
H115  H     H_    0.043658 0.716033 0.198959 0.156666
H116  H     H_    0.543660 0.783970 0.698946 0.156666
H117  H     H_    0.543658 0.216032 0.198956 0.156666
H118  H     H_    0.718531 0.369831 0.019995 0.334706
H119  H     H_    0.718532 0.630168 0.520000 0.334708
H120  H     H_    0.218530 0.869831 0.020012 0.334707
N1    N     N_R   0.169077 0.680219 0.988448 -0.422280
N2    N     N_R   0.169078 0.319781 0.488439 -0.422281
N3    N     N_R   0.669076 0.180219 0.988450 -0.422280
N4    N     N_R   0.669077 0.819781 0.488440 -0.422280
N5    N     N_R   0.829555 0.321771 0.199017 -0.419277
N6    N     N_R   0.829555 0.678230 0.699022 -0.419277
N7    N     N_R   0.329555 0.821771 0.199012 -0.419277
N8    N     N_R   0.329555 0.178230 0.699022 -0.419276
O1    O     O_2   0.914200 0.445720 0.903420 -0.423986
O2    O     O_3   0.029278 0.667770 0.488967 -0.565197
O3    O     O_3   0.529280 0.832230 0.988955 -0.565208
O4    O     O_3   0.529277 0.167770 0.488967 -0.565195
O5    O     O_3   0.049930 0.518940 0.045960 -0.497568
O6    O     O_3   0.049930 0.481060 0.545960 -0.497574
O7    O     O_3   0.549930 0.018940 0.045960 -0.497567
O8    O     O_3   0.549930 0.981060 0.545960 -0.497572
O9    O     O_2   0.222369 0.634327 0.003936 -0.585167
O10   O     O_2   0.222369 0.365673 0.503944 -0.585167
O11   O     O_2   0.722368 0.134327 0.003949 -0.585168
O12   O     O_2   0.914200 0.554280 0.403420 -0.423984
O13   O     O_2   0.722369 0.865673 0.503939 -0.585165
O14   O     O_2   0.119658 0.729543 0.977703 -0.621834
O15   O     O_2   0.119660 0.270456 0.477674 -0.621833
O16   O     O_2   0.619659 0.229544 0.977693 -0.621834
O17   O     O_2   0.619660 0.770456 0.477682 -0.621832
O18   O     O_2   0.775532 0.366669 0.208477 -0.571225
O19   O     O_2   0.775533 0.633333 0.708483 -0.571223
O20   O     O_2   0.275533 0.866668 0.208485 -0.571225
O21   O     O_2   0.275533 0.133333 0.708479 -0.571224
O22   O     O_2   0.880470 0.274157 0.183632 -0.598964
O23   O     O_2   0.414200 0.945720 0.903420 -0.423988
O24   O     O_2   0.880471 0.725843 0.683636 -0.598958
O25   O     O_2   0.380471 0.774158 0.183612 -0.598954
O26   O     O_2   0.380470 0.225843 0.683639 -0.598956
O27   O     O_3   0.950020 0.480960 0.143730 -0.449172
O28   O     O_3   0.950020 0.519040 0.643730 -0.449174
O29   O     O_3   0.450020 0.980960 0.143730 -0.449167
O30   O     O_3   0.450020 0.019040 0.643730 -0.449174
O31   O     O_3   0.985090 0.412220 0.642040 -0.434807
O32   O     O_3   0.985090 0.587780 0.142040 -0.434836
O33   O     O_3   0.485090 0.912220 0.642040 -0.434836
O34   O     O_2   0.414200 0.054280 0.403420 -0.423985
O35   O     O_3   0.485090 0.087780 0.142040 -0.434833
O36   O     O_2   0.911276 0.381268 0.755710 -0.445689
O37   O     O_2   0.911273 0.618729 0.255705 -0.445672
O38   O     O_2   0.411273 0.881272 0.755699 -0.445672
O39   O     O_2   0.411273 0.118729 0.255706 -0.445673
O40   O     O_3   0.861721 0.486470 0.085420 -0.646878
O41   O     O_3   0.861720 0.513531 0.585413 -0.646878
O42   O     O_3   0.361721 0.986470 0.085419 -0.646879
O43   O     O_3   0.361721 0.013531 0.585416 -0.646879
O44   O     O_3   0.972389 0.330775 0.687674 -0.569870
O45   O     O_3   0.137778 0.486649 0.610461 -0.657657
O46   O     O_3   0.972382 0.669225 0.187693 -0.569904
O47   O     O_3   0.472382 0.830775 0.687681 -0.569910
O48   O     O_3   0.472382 0.169225 0.187693 -0.569902
O49   O     O_2   0.085560 0.445380 0.786390 -0.446426
O50   O     O_2   0.085560 0.554620 0.286390 -0.446429
O51   O     O_2   0.585560 0.945380 0.786390 -0.446425
O52   O     O_2   0.585560 0.054620 0.286390 -0.446429
O53   O     O_3   0.014550 0.412170 0.047860 -0.445980
O54   O     O_3   0.014550 0.587830 0.547860 -0.445990
O55   O     O_3   0.514550 0.912170 0.047860 -0.446000
O56   O     O_3   0.137777 0.513350 0.110460 -0.657654
O57   O     O_3   0.514550 0.087830 0.547860 -0.445988
O58   O     O_2   0.092027 0.383399 0.959080 -0.430822
O59   O     O_2   0.092029 0.616600 0.459094 -0.430814
O60   O     O_2   0.592030 0.883401 0.959091 -0.430809
O61   O     O_2   0.592029 0.116600 0.459094 -0.430815
O62   O     O_3   0.208931 0.463146 0.155311 -0.683242
O63   O     O_3   0.208932 0.536852 0.655316 -0.683241
O64   O     O_3   0.708932 0.963147 0.155312 -0.683241
O65   O     O_3   0.708932 0.036853 0.655315 -0.683244
O66   O     O_3   0.871522 0.552221 0.093647 -0.715763
O67   O     O_3   0.637778 0.986649 0.610462 -0.657656
O68   O     O_3   0.871528 0.447781 0.593663 -0.715770
O69   O     O_3   0.371523 0.052221 0.093649 -0.715764
O70   O     O_3   0.371524 0.947780 0.593650 -0.715767
O71   O     O_3   0.696198 0.355088 0.081295 -0.673585
O72   O     O_3   0.696199 0.644912 0.581297 -0.673585
O73   O     O_3   0.196198 0.855088 0.081312 -0.673586
O74   O     O_3   0.196199 0.144912 0.581288 -0.673584
O75   O     O_3   0.860747 0.198264 0.177782 -0.682422
O76   O     O_3   0.860747 0.801737 0.677780 -0.682422
O77   O     O_3   0.360749 0.698264 0.177755 -0.682422
O78   O     O_3   0.637777 0.013350 0.110460 -0.657655
O79   O     O_3   0.360747 0.301737 0.677788 -0.682421
O80   O     O_3   0.966408 0.428730 0.345576 -0.722986
O81   O     O_3   0.966407 0.571270 0.845577 -0.722988
O82   O     O_3   0.466407 0.928730 0.345576 -0.722988
O83   O     O_3   0.466407 0.071270 0.845577 -0.722988
O84   O     O_3   0.119806 0.448622 0.113625 -0.715005
O85   O     O_3   0.119807 0.551377 0.613628 -0.715002
O86   O     O_3   0.619806 0.948623 0.113631 -0.715000
O87   O     O_3   0.619806 0.051377 0.613626 -0.715001
O88   O     O_3   0.029275 0.332231 0.988959 -0.565169
P1    P     P_3+3 0.909970 0.458430 0.077330 1.046481
P2    P     P_3+3 0.053031 0.625692 0.571070 1.020555
P3    P     P_3+3 0.553032 0.874308 0.071064 1.020547
P4    P     P_3+3 0.553031 0.125692 0.571070 1.020555
P5    P     P_3+3 0.946584 0.625960 0.127045 1.039183
P6    P     P_3+3 0.946586 0.374039 0.627039 1.039198
P7    P     P_3+3 0.446584 0.125960 0.127045 1.039184
P8    P     P_3+3 0.446584 0.874040 0.627038 1.039179
P9    P     P_3+3 0.909970 0.541570 0.577330 1.046483
P10   P     P_3+3 0.409970 0.958430 0.077330 1.046481
P11   P     P_3+3 0.409970 0.041570 0.577330 1.046479
P12   P     P_3+3 0.089830 0.458070 0.612460 0.990511
P13   P     P_3+3 0.089830 0.541930 0.112460 0.990511
P14   P     P_3+3 0.589830 0.958070 0.612460 0.990508
P15   P     P_3+3 0.589830 0.041930 0.112460 0.990510
P16   P     P_3+3 0.053031 0.374308 0.071062 1.020572

loop_
_geom_bond_atom_site_label_1
_geom_bond_atom_site_label_2
_ccdc_geom_bond_type
C101  C106  A    
C83   C87   A    
O54   P2    S    
O88   P16   S    
C58   H56   S    
C125  H83   S    
C63   O79   S    
C44   O16   D    
Ba3   O8    S    
C5    H9    S    
C38   C71   S    
C121  H48   S    
Ba4   P11   S    
O6    P12   S    
C55   C62   A    
O45   P12   S    
C120  N4    S    
C23   O64   S    
C101  C119  A    
C4    C134  A    
C70   C88   A    
C57   C59   A    
C5    C9    A    
C51   C70   A    
C7    C11   A    
O61   P4    D    
C73   C84   A    
C85   O74   S    
Ba1   O49   S    
C66   C70   A    
C127  H84   S    
Ba3   O51   S    
C111  P14   S    
O56   P13   S    
C40   C131  S    
C136  P10   S    
C33   H104  S    
O38   P8    D    
C6    C136  A    
O27   P1    S    
C74   C85   A    
C17   H87   S    
C80   C129  S    
H95   O65   S    
C123  H50   S    
C112  C117  S    
C128  H81   S    
C2    C93   A    
C94   O21   D    
C25   O65   S    
C123  C132  S    
C11   N8    S    
C35   N1    Am   
C36   H111  S    
C118  N2    S    
C91   N6    Am   
H120  O73   S    
O58   P16   D    
Ba4   O35   S    
C99   H61   S    
C128  H41   S    
Ba2   O6    S    
C20   O87   S    
C77   C125  S    
C64   C68   A    
H14   O81   S    
C129  H82   S    
C27   O68   S    
C69   C87   A    
C58   C115  A    
O23   P10   D    
C80   H78   S    
C67   C98   A    
C27   H27   S    
C40   C135  D    
O35   P7    S    
O29   P10   S    
C28   H28   S    
Ba2   P13   S    
C84   O73   S    
O1    P1    D    
C21   H66   S    
C99   C117  A    
C46   C73   A    
C75   C81   A    
C103  P2    S    
C40   O81   S    
Ba1   O28   S    
C32   H103  S    
Ba2   O27   S    
O12   P9    D    
C81   C86   A    
C51   C82   A    
C130  P6    S    
C47   C74   A    
C17   O56   S    
C97   O25   D    
C112  H57   S    
C62   C66   A    
C96   N6    Am   
C41   O82   S    
C28   O42   S    
C54   C115  A    
C73   H43   S    
C38   H55   S    
C126  N1    Am   
C101  H63   S    
C78   H75   S    
C34   H109  S    
C65   C96   A    
C44   C48   A    
C96   O24   D    
O67   P14   S    
C38   O48   S    
H119  O72   S    
C99   C103  A    
C78   C127  S    
H6    O77   S    
C100  H62   S    
C60   H37   S    
H4    O75   S    
C14   C105  A    
O30   P11   S    
C20   H91   S    
C9    N6    S    
C79   H76   S    
C19   O78   S    
C28   C32   S    
Ba2   O12   S    
C78   H18   S    
O2    P2    S    
C100  C118  A    
C88   C92   A    
C61   O76   S    
C26   O40   S    
C92   O20   D    
Ba3   O55   S    
C56   C63   A    
C94   N8    Am   
C37   H44   S    
C77   O88   S    
C48   C75   A    
Ba4   O52   S    
O52   P15   D    
C30   H101  S    
O51   P14   D    
C52   C93   A    
C14   C109  A    
C45   N4    Am   
C3    P11   S    
C56   H53   S    
C102  C107  A    
C32   H32   S    
C26   C30   S    
C3    C42   D    
H22   O85   S    
C6    C10   A    
C82   C126  A    
C102  H64   S    
C109  P12   S    
Ba2   O50   S    
C127  H80   S    
C29   O43   S    
H97   O68   S    
C113  C118  S    
H23   O86   S    
C68   C86   A    
O7    P15   S    
C4    C8    A    
C18   O45   S    
C2    N2    Am   
Ba4   O34   S    
O44   P6    S    
Ba1   O6    S    
C43   O15   D    
C42   C133  S    
C109  C113  A    
H12   O80   S    
C7    H11   S    
O59   P2    D    
C34   H1    S    
H98   O69   S    
C102  C120  A    
Ba3   Ba4   S    
C108  C112  A    
C10   N7    S    
C21   O62   S    
O57   P4    S    
C90   N5    Am   
C17   C21   S    
C59   C64   A    
O43   P11   S    
Ba4   O7    S    
C42   O83   S    
C16   C111  A    
C127  H40   S    
Ba3   O7    S    
O60   P3    D    
C107  P3    S    
C44   N3    Am   
O47   P8    S    
C126  O9    D    
C14   H71   S    
C18   O85   S    
C106  P4    S    
C91   O19   D    
C108  P13   S    
C85   C89   A    
C87   C91   A    
H21   O84   S    
C53   C104  A    
C37   O47   S    
C32   H107  S    
O3    P3    S    
C134  P1    S    
C113  H58   S    
C121  C130  S    
C75   H46   S    
C133  P7    S    
C31   H31   S    
C29   H29   S    
C80   H20   S    
C98   O26   D    
C27   O41   S    
C81   O71   S    
C67   C72   A    
H93   O63   S    
H7    O79   S    
C35   O14   D    
Ba1   P1    S    
O42   P10   S    
C39   C134  D    
C20   C25   S    
H15   O82   S    
C12   C103  A    
C59   O75   S    
C33   H34   S    
O4    P4    S    
C71   H117  S    
C65   C69   A    
C17   O84   S    
C135  P9    S    
C95   O22   D    
C58   C61   A    
O33   P8    S    
C1    C34   S    
C22   H77   S    
C1    H35   S    
C25   H24   S    
H118  O71   S    
C4    H8    S    
H16   O83   S    
C86   C90   A    
C50   C76   A    
C43   N2    Am   
C24   O13   D    
O40   P1    S    
C66   C97   A    
C77   H17   S    
O5    P13   S    
C26   O66   S    
C129  H86   S    
C56   C93   A    
C13   C104  A    
C43   C47   A    
C8    C121  D    
C38   H113  S    
C41   C136  D    
C29   C33   S    
C10   C123  D    
C15   H72   S    
H100  O70   S    
C39   C130  S    
C131  P5    S    
Ba2   P9    S    
C72   C89   A    
C125  H39   S    
C21   H110  S    
C19   O86   S    
C30   H105  S    
C110  P15   S    
C34   O44   S    
C74   H45   S    
C79   O3    S    
C28   O69   S    
C13   O11   D    
O48   P7    S    
C9    C122  D    
C122  C131  S    
C11   C124  D    
Ba1   P12   S    
C55   H52   S    
Ba4   O29   S    
Ba3   P10   S    
C12   C108  A    
O41   P9    S    
C71   H69   S    
C31   H106  S    
Ba1   O31   S    
Ba2   O32   S    
Ba1   O53   S    
C15   C110  A    
C124  H51   S    
C12   H70   S    
C79   C128  S    
C125  H79   S    
C6    H10   S    
Ba2   O5    S    
C5    C135  A    
C36   H33   S    
C18   H89   S    
H3    O74   S    
C61   C65   A    
C37   H112  S    
Ba4   O57   S    
C116  H60   S    
C62   O77   S    
C63   C67   A    
C114  C119  S    
C53   C68   A    
C55   C82   A    
C36   O46   S    
C48   C53   A    
H94   O64   S    
H25   O87   S    
Ba1   O1    S    
O39   P7    D    
C18   C22   S    
C49   H115  S    
C37   C60   S    
C23   H13   S    
C52   C72   A    
C20   O67   S    
Ba3   O23   S    
C22   O63   S    
O55   P3    S    
C90   O18   D    
O32   P5    S    
C3    C7    A    
C60   H68   S    
C45   O17   D    
C33   H108  S    
Ba1   Ba2   S    
C76   C83   A    
C100  C105  A    
C23   H88   S    
C45   C50   A    
C16   C107  A    
C47   C52   A    
C71   H38   S    
C57   C104  A    
C8    N5    S    
C117  N1    S    
O36   P6    D    
C84   C88   A    
C119  N3    S    
Ba2   O54   S    
Ba3   P14   S    
C19   C23   S    
H5    O76   S    
C83   O72   S    
Ba1   O5    S    
C39   O80   S    
C30   H30   S    
C92   N7    Am   
C97   N7    Am   
C98   N8    Am   
O34   P11   D    
C114  H59   S    
C80   O4    S    
Ba4   O8    S    
C26   H26   S    
O50   P13   D    
C49   H67   S    
O37   P5    D    
C24   N4    Am   
O31   P6    S    
H92   O62   S    
C1    H114  S    
C13   N3    Am   
C122  H49   S    
C124  C133  S    
Ba3   O30   S    
Ba4   P15   S    
C77   H74   S    
O78   P15   S    
C110  C114  A    
C132  P8    S    
C111  C116  A    
C50   C54   A    
C15   C106  A    
C95   N5    Am   
C41   C132  S    
C105  P16   S    
C24   C115  A    
O28   P9    S    
C29   O70   S    
C46   C51   A    
C78   O2    S    
O46   P5    S    
C16   H73   S    
C64   C95   A    
C128  H85   S    
O8    P14   S    
C57   H54   S    
O53   P16   S    
C76   H47   S    
C25   H99   S    
C27   C31   S    
C19   H90   S    
C1    H65   S    
C129  H42   S    
C35   C46   A    
C79   H19   S    
C54   C69   A    
C31   H102  S    
H96   O66   S    
C36   C49   S    
C22   H2    S    
O49   P12   D    
C89   C94   A    
Ba3   O33   S    
C116  C120  S    
C49   H36   S    
C60   H116  S    
C2    O10   D    
