data_mof_unit_17830.cif
_audit_creation_date              2013-03-05T16:28:01-0500
_audit_creation_method            fapswitch 2.2
_symmetry_space_group_name_H-M    P1
_symmetry_Int_Tables_number       1
_space_group_crystal_system       triclinic
_cell_length_a                    15.900268
_cell_length_b                    19.42794
_cell_length_c                    18.124295
_cell_angle_alpha                 89.608888
_cell_angle_beta                  89.940931
_cell_angle_gamma                 89.805352
_cell_volume                      5598.60045594

loop_
_atom_site_label
_atom_site_type_symbol
_atom_site_description
_atom_site_fract_x
_atom_site_fract_y
_atom_site_fract_z
_atom_type_partial_charge
O1    O     O_R   0.499960 0.400180 0.561980 -0.593272
O2    O     O_R   0.500040 0.599820 0.438020 -0.581430
O3    O     O_R   0.500000 0.400190 0.438070 -0.582325
O4    O     O_R   0.500000 0.599810 0.561930 -0.593773
C1    C     C_R   0.500476 0.367418 0.500324 0.823395
C2    C     C_R   0.499520 0.632581 0.499687 0.822582
O5    O     O_R   0.379060 0.499990 0.561940 -0.562256
O6    O     O_R   0.620940 0.500010 0.438060 -0.577010
O7    O     O_R   0.379100 0.500000 0.438040 -0.585531
O8    O     O_R   0.620900 0.500000 0.561960 -0.571525
C3    C     C_R   0.339727 0.500052 0.500012 0.829037
C4    C     C_R   0.660278 0.499907 0.499983 0.829038
Cu1   Cu    Cu3+1 0.499980 0.500000 0.573360 0.986887
Cu2   Cu    Cu3+1 0.500020 0.500000 0.426640 0.984203
C5    C     C_3   0.971668 0.452227 0.550353 -0.419158
C6    C     C_3   0.028349 0.547182 0.449671 -0.411532
C7    C     C_3   0.027175 0.437560 0.482199 0.280330
C8    C     C_3   0.972897 0.561875 0.517832 0.282451
H1    H     H_    0.948471 0.413233 0.590448 0.195252
H2    H     H_    0.051698 0.585933 0.409403 0.192124
C9    C     C_1   0.250323 0.500008 0.500024 -0.124436
C10   C     C_1   0.749692 0.499768 0.499954 -0.123871
C11   C     C_3   0.028071 0.515565 0.566658 0.413862
C12   C     C_3   0.972006 0.483888 0.433410 0.422964
C13   C     C_3   0.083610 0.499655 0.499308 -0.074542
C14   C     C_3   0.916421 0.499811 0.500713 -0.076709
C15   C     C_1   0.175004 0.499878 0.499830 0.128825
C16   C     C_1   0.825017 0.499728 0.500148 0.129048
C17   C     C_R   0.494233 0.744023 0.431107 -0.216418
C18   C     C_R   0.505782 0.256040 0.569014 -0.218898
H3    H     H_    0.492851 0.715860 0.379753 0.198293
H4    H     H_    0.507147 0.284249 0.620339 0.189601
C19   C     C_R   0.490512 0.816052 0.428973 0.346274
C20   C     C_R   0.509540 0.184015 0.571232 0.349332
C21   C     C_R   0.492038 0.852669 0.496181 -0.026106
C22   C     C_R   0.508029 0.147332 0.504066 -0.027477
C23   C     C_R   0.494431 0.816685 0.563484 -0.180125
C24   C     C_R   0.505603 0.183252 0.436723 -0.179531
H5    H     H_    0.495957 0.844242 0.615245 0.174540
H6    H     H_    0.504083 0.155643 0.384994 0.176680
C25   C     C_R   0.496946 0.745128 0.564777 -0.151513
C26   C     C_R   0.503058 0.254808 0.435348 -0.146736
H7    H     H_    0.499116 0.718769 0.617596 0.167697
H8    H     H_    0.500872 0.281117 0.382503 0.177505
C27   C     C_R   0.497385 0.708237 0.498630 -0.098300
C28   C     C_R   0.502617 0.291762 0.501448 -0.098971
C29   C     C_R   0.434981 0.965530 0.536872 -0.131326
C30   C     C_R   0.565146 0.034466 0.463464 -0.130485
H9    H     H_    0.384193 0.939263 0.565144 0.153290
H10   H     H_    0.615928 0.060733 0.435183 0.154016
C31   C     C_R   0.438940 0.037097 0.538872 -0.068370
C32   C     C_R   0.561187 0.962901 0.461465 -0.068884
H11   H     H_    0.391042 0.065481 0.568532 0.159135
H12   H     H_    0.609079 0.934518 0.431796 0.159074
C33   C     C_R   0.504321 0.071829 0.502527 0.121442
C34   C     C_R   0.495797 0.928169 0.497795 0.121312
C35   C     C_R   0.537742 0.447420 0.721566 0.096641
C36   C     C_R   0.561313 0.465332 0.278972 0.093918
H13   H     H_    0.568074 0.406158 0.691807 0.128382
H14   H     H_    0.609429 0.437635 0.309215 0.133720
C37   C     C_R   0.537817 0.446103 0.799128 -0.161184
C38   C     C_R   0.562739 0.465084 0.201426 -0.171630
H15   H     H_    0.567792 0.403780 0.828192 0.159311
H16   H     H_    0.612043 0.437432 0.172790 0.154997
C39   C     C_R   0.500019 0.499907 0.838534 0.236460
C40   C     C_R   0.499984 0.500019 0.161467 0.238323
C41   C     C_R   0.462156 0.553737 0.798512 -0.171838
C42   C     C_R   0.437250 0.534946 0.201059 -0.167670
H17   H     H_    0.432158 0.596002 0.827092 0.152752
H18   H     H_    0.387935 0.562614 0.172135 0.152745
C43   C     C_R   0.462170 0.552523 0.720977 0.094429
C44   C     C_R   0.438715 0.534673 0.278606 0.093757
H19   H     H_    0.431699 0.593790 0.690791 0.126012
H20   H     H_    0.390634 0.562390 0.308554 0.127360
N1    N     N_R   0.499990 0.500020 0.683620 -0.180648
N2    N     N_R   0.500010 0.499980 0.316380 -0.181444
C45   C     C_R   0.560436 0.538532 0.960410 0.224565
C46   C     C_R   0.438999 0.461977 0.039438 0.221060
C47   C     C_R   0.560952 0.538022 0.038744 0.220883
C48   C     C_R   0.439601 0.461328 0.961114 0.221111
C49   C     C_R   0.499970 0.500015 0.078654 -0.234292
C50   C     C_R   0.500044 0.499891 0.921259 -0.236991
N3    N     N_R   0.055505 0.369073 0.461026 0.141928
O9    O     O_R   0.000552 0.321453 0.447285 -0.301949
O10   O     O_R   0.135288 0.355150 0.455425 -0.342008
N4    N     N_R   0.944637 0.630431 0.538826 0.142142
O11   O     O_R   0.999649 0.677931 0.552857 -0.302443
O12   O     O_R   0.864863 0.644533 0.544001 -0.344006
N5    N     N_R   0.620213 0.580054 0.920748 0.167334
O13   O     O_R   0.665660 0.553531 0.868336 -0.339579
O14   O     O_R   0.629892 0.644587 0.937387 -0.265885
N6    N     N_R   0.375266 0.424555 0.079024 0.165447
O15   O     O_R   0.395768 0.382213 0.132007 -0.320438
O16   O     O_R   0.296349 0.432469 0.061915 -0.288840
N7    N     N_R   0.624564 0.575599 0.077646 0.167030
O17   O     O_R   0.603920 0.617950 0.129994 -0.305509
O18   O     O_R   0.703502 0.567881 0.060484 -0.284638
N8    N     N_R   0.379844 0.419755 0.922211 0.170846
O19   O     O_R   0.334527 0.446178 0.869349 -0.328369
O20   O     O_R   0.370041 0.355279 0.940001 -0.253981
O21   O     O_3   0.937689 0.465157 0.364659 -0.576155
C51   C     C_3   0.001598 0.459541 0.310627 0.114578
H21   H     H_    0.992842 0.409837 0.281723 0.197975
H22   H     H_    0.066913 0.458727 0.333240 0.141942
C52   C     C_3   0.992667 0.518217 0.254467 -0.377881
H23   H     H_    0.929375 0.515992 0.228608 0.257509
H24   H     H_    0.998653 0.568422 0.282903 0.231884
C53   C     C_3   0.059672 0.513538 0.194343 -0.799107
H25   H     H_    0.123498 0.517281 0.218853 0.258091
H26   H     H_    0.051186 0.556536 0.154339 0.271658
H27   H     H_    0.054133 0.464087 0.164351 0.274306
O22   O     O_3   0.062700 0.535082 0.635013 -0.568054
C54   C     C_3   0.000034 0.532301 0.690076 0.088652
H28   H     H_    0.984184 0.477718 0.702699 0.151148
H29   H     H_    0.942028 0.560390 0.672646 0.170228
C55   C     C_3   0.033614 0.565758 0.760092 -0.319527
H30   H     H_    0.091518 0.538357 0.778397 0.247919
H31   H     H_    0.049998 0.620286 0.748097 0.250441
C56   C     C_3   0.968698 0.563496 0.822145 -0.792970
H32   H     H_    0.910682 0.591547 0.805465 0.278286
H33   H     H_    0.994908 0.588342 0.872051 0.270466
H34   H     H_    0.952595 0.509344 0.836055 0.263639
N9    N     N_R   0.482911 0.850687 0.358787 0.117307
O23   O     O_R   0.436286 0.905543 0.352000 -0.321912
O24   O     O_R   0.514171 0.822895 0.299611 -0.306774
N10   N     N_R   0.517166 0.149455 0.641460 0.117110
O25   O     O_R   0.485962 0.177327 0.700615 -0.313931
O26   O     O_R   0.563777 0.094597 0.648299 -0.322317

loop_
_geom_bond_atom_site_label_1
_geom_bond_atom_site_label_2
_geom_bond_distance
_ccdc_geom_bond_type
C36   C38   1.405667 A    
C30   C33   1.401554 A    
C40   C42   1.403894 A    
N10   O25   1.301502 A    
C2    C27   1.470102 S    
C17   C19   1.400691 A    
N7    O17   1.301193 A    
C8    C14   1.539341 S    
C44   N2    1.365089 A    
C36   N2    1.365031 A    
N9    O23   1.301364 A    
C29   H9    1.083284 S    
C55   H30   1.111771 S    
C5    H1    1.109900 S    
C11   O22   1.411038 S    
C52   H24   1.110697 S    
C45   N5    1.437614 S    
O21   C51   1.414989 S    
O1    C1    1.289799 A    
C21   C23   1.402289 A    
C12   C14   1.538131 S    
C24   C26   1.390690 A    
C46   C48   1.419735 A    
C35   H13   1.081151 S    
C36   H14   1.081374 S    
C4    C10   1.421706 S    
C53   H25   1.111039 S    
C51   C52   1.529381 S    
C12   O21   1.411303 S    
C26   C28   1.400883 A    
O4    Cu1   1.948730 S    
C37   H15   1.082895 S    
C38   H16   1.082895 S    
Cu1   N1    1.998389 S    
C55   H31   1.111739 S    
C39   C41   1.403070 A    
O6    Cu2   1.933984 S    
N5    O14   1.301185 A    
C41   C43   1.405628 A    
C6    H2    1.109556 S    
C54   C55   1.527391 S    
C56   H33   1.110372 S    
C20   N10   1.440038 S    
C5    C11   1.555259 S    
C9    C15   1.197606 T    
C6    C12   1.553862 S    
C24   H6    1.083657 S    
C10   C16   1.197700 T    
Cu1   Cu2   2.659194 S    
C25   H7    1.083107 S    
O2    C2    1.289973 A    
C26   H8    1.083079 S    
O22   C54   1.410418 S    
C32   H12   1.083262 S    
C45   C47   1.419746 A    
C52   C53   1.526144 S    
C7    C12   1.531947 S    
C38   C40   1.403908 A    
N4    O12   1.300205 A    
C8    C11   1.532190 S    
C18   H4    1.083157 S    
C44   H20   1.081366 S    
C43   H19   1.081087 S    
C18   C20   1.400673 A    
N4    O11   1.300202 A    
C5    C14   1.555784 S    
C29   C31   1.392750 A    
C46   N6    1.437577 S    
C3    C9    1.421557 S    
C17   C27   1.404221 A    
C42   C44   1.405679 A    
C7    N3    1.457084 S    
Cu2   N2    1.998389 S    
O5    C3    1.285441 A    
O7    Cu2   1.933519 S    
C47   N7    1.437580 S    
N3    O9    1.300195 A    
O5    Cu1   1.933984 S    
O6    C4    1.285394 A    
N6    O16   1.301206 A    
C53   H27   1.110880 S    
C8    N4    1.457110 S    
C51   H22   1.116885 S    
O7    C3    1.285318 A    
O3    Cu2   1.948734 S    
O8    C4    1.285438 A    
C48   C50   1.415196 A    
N3    O10   1.300203 A    
N8    O20   1.301178 A    
O4    C2    1.291604 A    
O1    Cu1   1.951637 S    
C47   C49   1.415896 A    
C54   H28   1.113004 S    
C1    C28   1.470116 S    
C56   H34   1.110872 S    
C41   H17   1.082902 S    
C6    C13   1.555221 S    
C5    C7    1.544933 S    
N10   O26   1.301364 A    
C48   N8    1.437580 S    
C21   C34   1.468702 S    
C18   C28   1.404293 A    
C6    C8    1.544617 S    
O3    C1    1.291784 A    
O8    Cu1   1.933519 S    
C56   H32   1.110960 S    
N7    O18   1.301200 A    
C35   C37   1.405818 A    
C13   C15   1.453254 S    
C52   H23   1.111671 S    
C14   C16   1.453393 S    
C55   C56   1.526248 S    
C7    C13   1.539398 S    
C35   N1    1.365534 A    
C22   C24   1.402311 A    
C23   H5    1.083655 S    
C22   C33   1.468697 S    
C40   C49   1.500937 S    
C43   N1    1.365631 A    
C46   C49   1.415850 A    
C39   C50   1.499334 S    
C45   C50   1.415175 A    
C30   H10   1.083284 S    
N6    O15   1.301198 A    
C19   C21   1.415085 A    
C20   C22   1.415079 A    
C53   H26   1.110364 S    
C31   C33   1.402582 A    
C11   C13   1.538352 S    
C23   C25   1.390677 A    
C51   H21   1.110973 S    
O2    Cu2   1.951633 S    
N9    O24   1.301498 A    
C37   C39   1.403208 A    
C30   C32   1.392730 A    
C17   H3    1.083168 S    
N8    O19   1.301086 A    
C19   N9    1.440019 S    
C42   H18   1.082924 S    
C25   C27   1.400962 A    
C31   H11   1.083261 S    
N5    O13   1.301086 A    
C32   C34   1.402578 A    
C29   C34   1.401558 A    
C54   H29   1.114937 S    
