data_mof_unit_41990.cif
_audit_creation_date              2013-03-05T16:48:14-0500
_audit_creation_method            fapswitch 2.2
_symmetry_space_group_name_H-M    P1
_symmetry_Int_Tables_number       1
_space_group_crystal_system       triclinic
_cell_length_a                    23.478788
_cell_length_b                    8.933494
_cell_length_c                    8.100766
_cell_angle_alpha                 90.116903
_cell_angle_beta                  90.290504
_cell_angle_gamma                 90.604523
_cell_volume                      1698.99618458

loop_
_atom_site_label
_atom_site_type_symbol
_atom_site_description
_atom_site_fract_x
_atom_site_fract_y
_atom_site_fract_z
_atom_type_partial_charge
O1    O     O_R   0.500000 0.285350 0.636850 -0.623802
O2    O     O_R   0.500000 0.714650 0.363150 -0.594325
O3    O     O_R   0.500000 0.714650 0.636850 -0.620231
O4    O     O_R   0.500000 0.285350 0.363150 -0.592715
H1    H     H_    0.939101 0.135573 0.406766 0.197554
H2    H     H_    0.060591 0.874130 0.442669 0.196047
H3    H     H_    0.957136 0.888060 0.472405 0.180088
H4    H     H_    0.042248 0.120923 0.444289 0.179013
C1    C     C_R   0.500508 0.218015 0.499873 1.021765
C2    C     C_R   0.499535 0.781982 0.500048 1.026596
O5    O     O_R   0.416160 0.500000 0.636910 -0.581461
O6    O     O_R   0.583840 0.500000 0.363090 -0.594248
O7    O     O_R   0.583840 0.500000 0.636910 -0.585297
O8    O     O_R   0.416160 0.500000 0.363090 -0.586389
C3    C     C_R   0.207320 0.479732 0.477407 -0.063202
C4    C     C_R   0.792081 0.526254 0.473259 -0.042767
C5    C     C_R   0.388872 0.498134 0.499498 1.091346
C6    C     C_R   0.611080 0.502198 0.500288 1.090751
Zn1   Zn    Zn3+2 0.500000 0.500000 0.682780 1.130895
Zn2   Zn    Zn3+2 0.500000 0.500000 0.317220 1.152394
C7    C     C_R   0.293764 0.583407 0.600284 0.275710
C8    C     C_R   0.707224 0.418659 0.598352 0.261269
C9    C     C_R   0.298610 0.385103 0.389316 0.215253
C10   C     C_R   0.699861 0.621424 0.394426 0.198454
C11   C     C_R   0.326234 0.488754 0.497122 -0.385527
C12   C     C_R   0.673574 0.514297 0.499140 -0.370333
C13   C     C_R   0.884264 0.651069 0.476511 0.676072
C14   C     C_R   0.114665 0.356697 0.476505 0.656594
C15   C     C_R   0.877758 0.389159 0.416598 0.640776
C16   C     C_R   0.121505 0.620686 0.431867 0.660650
N1    N     N_R   0.852628 0.522892 0.452887 -0.314118
N2    N     N_R   0.146560 0.485254 0.460566 -0.305353
C17   C     C_R   0.936910 0.377330 0.422863 -0.021089
C18   C     C_R   0.062357 0.632533 0.437257 -0.026350
C19   C     C_R   0.943327 0.648300 0.456915 -0.033798
C20   C     C_R   0.055761 0.360591 0.451830 -0.052464
C21   C     C_R   0.969791 0.508870 0.438990 -0.007497
C22   C     C_R   0.029379 0.500639 0.441380 -0.008708
C23   C     C_R   0.963769 0.237920 0.418849 -0.100015
C24   C     C_R   0.035623 0.771933 0.442919 -0.105435
C25   C     C_R   0.976617 0.779693 0.459514 -0.116730
C26   C     C_R   0.022631 0.229446 0.440142 -0.134364
C27   C     C_1   0.500141 0.065162 0.499646 -0.082367
C28   C     C_1   0.499803 0.934835 0.499917 -0.075906
C29   C     C_R   0.234325 0.561301 0.606192 0.340762
C30   C     C_R   0.766699 0.441973 0.601709 0.340772
C31   C     C_R   0.239615 0.397702 0.362479 0.319643
C32   C     C_R   0.758387 0.609981 0.362949 0.254985
N3    N     N_1   0.500000 0.500000 0.073640 0.027095
N4    N     N_1   0.500000 0.500000 0.926360 0.024770
O9    O     O_2   0.858737 0.779371 0.521417 -0.466309
O10   O     O_2   0.139811 0.226694 0.517161 -0.471584
O11   O     O_2   0.845425 0.267896 0.378805 -0.493032
O12   O     O_2   0.153850 0.743186 0.401008 -0.488060
S1    S     S_3+6 0.193213 0.628199 0.775568 0.149168
O13   O     O_2   0.172330 0.783266 0.739426 -0.206825
O14   O     O_2   0.142611 0.527091 0.802674 -0.281772
O15   O     O_3   0.232785 0.632652 0.949216 -0.419655
H5    H     H_    0.209899 0.689399 0.029942 0.415780
S2    S     S_3+6 0.809984 0.371727 0.765950 0.135145
O16   O     O_2   0.832006 0.219828 0.720409 -0.205006
O17   O     O_2   0.859800 0.475268 0.796508 -0.261740
O18   O     O_3   0.772386 0.357247 0.941421 -0.471975
H6    H     H_    0.797438 0.302890 0.019103 0.418769
S3    S     S_3+6 0.206456 0.322034 0.180861 0.141352
O19   O     O_2   0.247786 0.319672 0.039868 -0.135611
O20   O     O_2   0.185915 0.164922 0.213377 -0.220502
O21   O     O_3   0.150353 0.426523 0.125562 -0.540293
H7    H     H_    0.121342 0.354676 0.083196 0.393124
S4    S     S_3+6 0.788891 0.687993 0.180005 0.155846
O22   O     O_2   0.812243 0.841947 0.215675 -0.161926
O23   O     O_2   0.836844 0.592420 0.120232 -0.259608
O24   O     O_3   0.740070 0.700690 0.028092 -0.398829
H8    H     H_    0.720770 0.601672 0.024805 0.381187
S5    S     S_3+6 0.326962 0.737117 0.706395 0.122334
O25   O     O_2   0.285121 0.857170 0.748592 -0.175062
O26   O     O_2   0.354562 0.681854 0.862275 -0.213675
O27   O     O_3   0.376788 0.814524 0.584712 -0.592674
H9    H     H_    0.387598 0.909464 0.640553 0.391630
S6    S     S_3+6 0.675341 0.263599 0.703436 0.117067
O28   O     O_2   0.717720 0.142977 0.739365 -0.162077
O29   O     O_2   0.649898 0.317053 0.862634 -0.237812
O30   O     O_3   0.623829 0.187695 0.584814 -0.585002
H10   H     H_    0.611250 0.097231 0.645604 0.394819
S7    S     S_3+6 0.336920 0.231663 0.304142 0.127966
O31   O     O_2   0.366746 0.281158 0.149566 -0.192414
O32   O     O_2   0.380445 0.180026 0.426962 -0.369364
O33   O     O_3   0.294613 0.084123 0.259183 -0.398622
H11   H     H_    0.282283 0.044686 0.367742 0.393447
S8    S     S_3+6 0.660982 0.779843 0.324113 0.111933
O34   O     O_2   0.626493 0.738368 0.173778 -0.222613
O35   O     O_2   0.621449 0.828813 0.458236 -0.362350
O36   O     O_3   0.703543 0.926151 0.278045 -0.387650
H12   H     H_    0.718026 0.963134 0.385922 0.397716

loop_
_geom_bond_atom_site_label_1
_geom_bond_atom_site_label_2
_geom_bond_distance
_ccdc_geom_bond_type
S1    O13   1.503218 D    
O36   H12   0.990908 S    
O24   H8    0.989868 S    
C20   C26   1.402210 A    
C6    C12   1.470197 S    
C3    C31   1.412385 A    
C27   C28   1.164233 T    
C4    C32   1.411324 A    
C3    N2    1.433770 S    
S7    O31   1.502836 D    
C4    N1    1.432580 S    
C16   O12   1.349939 S    
O5    Zn1   2.001376 S    
C17   C23   1.402299 A    
O7    C6    1.281134 A    
S2    O18   1.681532 S    
C18   C24   1.401246 A    
C19   C21   1.405408 A    
C21   C22   1.401790 A    
C10   C12   1.418627 A    
C15   C17   1.394618 A    
S2    O17   1.502741 D    
O21   H7    0.990562 S    
S3    O20   1.503481 D    
O3    Zn1   1.954082 S    
S4    O22   1.502185 D    
C9    C11   1.420924 A    
O8    C5    1.280166 A    
S6    O30   1.677549 S    
C13   O9    1.349185 S    
C23   C26   1.394714 A    
C7    C29   1.408472 A    
S7    O32   1.499508 D    
C1    C27   1.365441 S    
O1    Zn1   1.952592 S    
C16   C18   1.394742 A    
C2    C28   1.365457 S    
C10   C32   1.403614 A    
O8    Zn2   2.005079 S    
C14   N2    1.371084 A    
O1    C1    1.261269 A    
S6    O29   1.503107 D    
C4    C30   1.415896 A    
O7    Zn1   2.005077 S    
O27   H9    0.990521 S    
C13   C19   1.397065 A    
O15   H5    0.990617 S    
O2    Zn2   1.952591 S    
C17   C21   1.404691 A    
S2    O16   1.503181 D    
S5    O25   1.502082 D    
Zn2   N3    1.973185 S    
S8    O35   1.500074 D    
O30   H10   0.990415 S    
S3    O21   1.681890 S    
O6    Zn2   2.001374 S    
S4    O24   1.682314 S    
S5    O26   1.503061 D    
C14   C20   1.397168 A    
C24   C25   1.395005 A    
C8    C30   1.409793 A    
N3    N4    1.193080 T    
H1    C23   1.081156 S    
C13   N1    1.370841 A    
C8    C12   1.417985 A    
H2    C24   1.079782 S    
C3    C29   1.414862 A    
H4    C26   1.078226 S    
O2    C2    1.260676 A    
S8    O36   1.680585 S    
S7    O33   1.680268 S    
C7    C11   1.418352 A    
O5    C5    1.281524 A    
C30   S2    1.788841 S    
C18   C22   1.403627 A    
C32   S4    1.788673 S    
S6    O28   1.502308 D    
C10   S8    1.784896 S    
C7    S5    1.788238 S    
C5    C11   1.472204 S    
C9    C31   1.406715 A    
S1    O14   1.502117 D    
C8    S6    1.786975 S    
C15   N1    1.370054 A    
O3    C2    1.262057 A    
C16   N2    1.370651 A    
C14   O10   1.349047 S    
Zn1   N4    1.973185 S    
S8    O34   1.502645 D    
C15   O11   1.350002 S    
C20   C22   1.404416 A    
H3    C25   1.080156 S    
C19   C25   1.403397 A    
S5    O27   1.678042 S    
O18   H6    0.990590 S    
O4    Zn2   1.954083 S    
O33   H11   0.991455 S    
C29   S1    1.787112 S    
S3    O19   1.502715 D    
C9    S7    1.786759 S    
S1    O15   1.682059 S    
O6    C6    1.279495 A    
S4    O23   1.501733 D    
O4    C1    1.261514 A    
C31   S3    1.789096 S    
