data_mof_unit_44578.cif
_audit_creation_date              2012-12-11T14:08:16-0500
_audit_creation_method            fapswitch 2.2
_symmetry_space_group_name_H-M    P1
_symmetry_Int_Tables_number       1
_space_group_crystal_system       triclinic
_cell_length_a                    10.929245
_cell_length_b                    10.951537
_cell_length_c                    18.69375
_cell_angle_alpha                 89.78128
_cell_angle_beta                  89.456331
_cell_angle_gamma                 60.245715
_cell_volume                      1942.41717347

loop_
_atom_site_label
_atom_site_type_symbol
_atom_type_description
_atom_site_fract_x
_atom_site_fract_y
_atom_site_fract_z
_atom_type_partial_charge
C1    C     C_R   0.236238 0.645373 0.608773 0.546989
C2    C     C_3   0.687627 0.540407 0.801347 -0.271834
C3    C     C_3   0.697551 0.674091 0.813204 0.025103
C4    C     C_3   0.666967 0.647989 0.677549 0.082477
C5    C     C_3   0.802948 0.655064 0.688789 -0.238064
C6    C     C_3   0.676427 0.521344 0.721060 -0.265103
C7    C     C_2   0.675770 0.155354 0.670648 -0.110152
C8    C     C_2   0.689967 0.166878 0.827500 -0.118606
C9    C     C_2   0.801820 0.121060 0.783211 -0.176172
C10   C     C_2   0.783007 0.153313 0.706258 -0.181271
C11   C     C_2   0.180825 0.662123 0.681432 -0.123132
C12   C     C_R   0.652457 0.621125 0.602114 0.569872
C13   C     C_2   0.194724 0.663367 0.839153 -0.119089
C14   C     C_2   0.193454 0.561164 0.800387 -0.177709
C15   C     C_2   0.222101 0.548383 0.723308 -0.181257
C16   C     C_2   0.667344 0.684511 0.330931 -0.113222
C17   C     C_2   0.674223 0.683294 0.174058 -0.104811
C18   C     C_2   0.787592 0.636073 0.216944 -0.153251
C19   C     C_2   0.783338 0.608986 0.292394 -0.171166
C20   C     C_2   0.684674 0.130987 0.335381 -0.002007
C21   C     C_2   0.645810 0.151590 0.177592 -0.097503
C22   C     C_2   0.617173 0.071706 0.221974 -0.154932
C23   C     C_R   0.628182 0.227366 0.601964 0.548885
C24   C     C_2   0.601386 0.096616 0.298488 -0.154969
C25   C     C_2   0.191787 0.659162 0.325851 -0.092754
C26   C     C_2   0.183570 0.642839 0.172846 -0.107369
C27   C     C_2   0.243253 0.707082 0.205551 -0.172181
C28   C     C_2   0.273734 0.684060 0.280865 -0.149538
C29   C     C_R   0.703538 0.102243 0.897465 0.548087
C30   C     C_R   0.722740 0.687875 0.888814 0.548484
C31   C     C_R   0.119196 0.706565 0.907376 0.547569
C32   C     C_R   0.674000 0.107692 0.104192 0.548230
C33   C     C_R   0.698817 0.692317 0.098587 0.549692
C34   C     C_R   0.225995 0.647740 0.400109 0.544998
C35   C     C_R   0.099081 0.705331 0.110698 0.551196
C36   C     C_R   0.644911 0.627281 0.396115 0.556807
C37   C     C_R   0.622751 0.222020 0.397565 0.564457
C38   C     C_3   0.559708 0.803465 0.786151 -0.200213
C39   C     C_3   0.537099 0.785847 0.706337 0.156689
C40   C     C_3   0.823811 0.664871 0.769156 -0.227232
Cr1   Cr    Cr6+3 0.393010 0.398050 0.501480 1.004512
Cr2   Cr    Cr6+3 0.398820 0.707980 0.501630 0.991778
Cr3   Cr    Cr6+3 0.708140 0.393940 0.496850 0.992610
Cr4   Cr    Cr6+3 0.937950 0.938450 0.008940 1.018164
Cr5   Cr    Cr6+3 0.626180 0.937030 0.994750 1.012485
Cr6   Cr    Cr6+3 0.937790 0.625760 0.001410 1.011525
H1    H     H_    0.566087 0.901018 0.793671 0.164077
H2    H     H_    0.771186 0.422048 0.704000 0.147897
H3    H     H_    0.923460 0.570168 0.785350 0.138679
H4    H     H_    0.896039 0.559736 0.666467 0.121054
H5    H     H_    0.908219 0.055192 0.802811 0.148917
H6    H     H_    0.855630 0.179460 0.679558 0.140083
H7    H     H_    0.584097 0.233704 0.807353 0.103163
H8    H     H_    0.609525 0.120550 0.697028 0.125626
H9    H     H_    0.164162 0.488834 0.824485 0.146695
H10   H     H_    0.277818 0.442892 0.700955 0.148454
H11   H     H_    0.231472 0.730398 0.815523 0.096880
H12   H     H_    0.467528 0.815661 0.817855 0.078442
H13   H     H_    0.123098 0.767580 0.703723 0.102644
H14   H     H_    0.891966 0.602782 0.194999 0.158852
H15   H     H_    0.874288 0.517377 0.314584 0.148558
H16   H     H_    0.568419 0.718140 0.194132 0.080330
H17   H     H_    0.579943 0.780667 0.309820 0.094617
H18   H     H_    0.599447 0.988956 0.201572 0.153765
H19   H     H_    0.506134 0.105754 0.322342 0.142654
H20   H     H_    0.661502 0.236464 0.196297 0.091736
H21   H     H_    0.254531 0.790055 0.179681 0.145642
H22   H     H_    0.442385 0.772681 0.701289 0.119673
H23   H     H_    0.356796 0.701903 0.300748 0.150071
H24   H     H_    0.182150 0.552948 0.196893 0.104062
H25   H     H_    0.106612 0.642722 0.308325 0.080121
H26   H     H_    0.835585 0.758552 0.779720 0.128175
H27   H     H_    0.796127 0.747916 0.660622 0.157903
H28   H     H_    0.782257 0.446216 0.822776 0.146972
H29   H     H_    0.593596 0.549369 0.829855 0.118077
H30   H     H_    0.582528 0.509501 0.710959 0.117584
O1    O     O_R   0.507110 0.256280 0.580300 -0.524242
O2    O     O_R   0.524640 0.695370 0.425100 -0.510248
O3    O     O_R   0.735890 0.504390 0.415980 -0.512284
O4    O     O_R   0.690560 0.277820 0.422350 -0.505059
O5    O     O_3   0.499990 0.499990 0.499980 -0.244723
O6    O     O_R   0.089190 0.825870 0.932320 -0.521907
O7    O     O_R   0.819070 0.053960 0.931440 -0.495043
O8    O     O_R   0.607070 0.076440 0.916460 -0.522221
O9    O     O_R   0.647110 0.806550 0.917690 -0.510573
O10   O     O_R   0.837080 0.593860 0.915300 -0.524836
O11   O     O_R   0.064770 0.636080 0.932550 -0.499860
O12   O     O_R   0.280830 0.527190 0.577940 -0.499482
O13   O     O_R   0.068250 0.829200 0.092940 -0.512366
O14   O     O_R   0.799650 0.057040 0.080330 -0.495481
O15   O     O_R   0.586130 0.079760 0.077080 -0.512298
O16   O     O_R   0.627700 0.809630 0.066580 -0.500176
O17   O     O_R   0.816140 0.597180 0.075920 -0.512222
O18   O     O_R   0.045360 0.639170 0.081440 -0.511137
O19   O     O_3   0.833980 0.833750 0.001700 -0.250120
O20   O     O_R   0.261360 0.738990 0.584270 -0.534553
O21   O     O_R   0.532590 0.694780 0.574370 -0.485334
O22   O     O_R   0.744470 0.503750 0.577000 -0.542376
O23   O     O_R   0.698520 0.277230 0.571620 -0.506351
O24   O     O_R   0.498530 0.256920 0.419280 -0.521995
O25   O     O_R   0.272880 0.527780 0.428680 -0.489424
O26   O     O_R   0.252780 0.739630 0.423250 -0.532313
C41   C     C_3   0.828784 0.103167 0.307708 -0.251732
C42   C     C_3   0.947844 0.028189 0.362173 -0.278238
C43   C     C_3   0.076889 0.038923 0.339339 -0.437148
H31   H     H_    0.116897 0.987931 0.286511 0.157953
H32   H     H_    0.049267 0.151000 0.335645 0.143002
H33   H     H_    0.161585 0.987389 0.379408 0.171075
H34   H     H_    0.916629 0.073232 0.416618 0.183800
H35   H     H_    0.975702 0.916304 0.365777 0.162910
H36   H     H_    0.862895 0.035858 0.259142 0.160641
H37   H     H_    0.818932 0.206189 0.293009 0.154207
O27   O     O_3   0.520173 0.903637 0.666208 -0.575792
C44   C     C_3   0.383520 0.021958 0.675542 0.004883
H38   H     H_    0.395654 0.110675 0.695520 0.140255
H39   H     H_    0.315739 0.006538 0.715449 0.098604
C45   C     C_3   0.308427 0.063236 0.603560 -0.241358
H40   H     H_    0.374617 0.080925 0.563993 0.184828
H41   H     H_    0.293217 0.976204 0.583799 0.186118
C46   C     C_3   0.165094 0.196900 0.609927 -0.476125
H42   H     H_    0.096336 0.181139 0.648585 0.135664
H43   H     H_    0.113036 0.223449 0.556956 0.144055
H44   H     H_    0.178085 0.286300 0.628038 0.150546

loop_
_geom_bond_atom_site_label_1
_geom_bond_atom_site_label_2
_ccdc_geom_bond_type
C7    C10   D    
C23   O23   A    
Cr2   O21   S    
C21   H20   S    
C39   H22   S    
C28   H23   S    
C1    C11   S    
Cr3   O22   S    
Cr4   O7    S    
C10   H6    S    
C44   H38   S    
Cr6   O11   S    
C20   C41   S    
C25   C28   D    
C43   H32   S    
C26   C27   D    
C34   O26   A    
C31   O6    A    
C6    H2    S    
Cr2   O20   S    
C8    C29   S    
Cr3   O23   S    
C29   O7    A    
Cr4   O6    S    
C45   H41   S    
Cr1   O1    S    
C38   C39   S    
C32   O15   A    
C13   H11   S    
Cr3   O3    S    
C40   H3    S    
C41   H36   S    
C18   C19   S    
Cr5   O16   S    
C38   H12   S    
C11   C15   D    
C32   O14   A    
Cr6   O19   S    
C20   C24   D    
C3    C38   S    
C8    C9    D    
C39   O27   S    
C9    H5    S    
C25   H25   S    
C16   H17   S    
C30   O10   A    
C9    C10   S    
C12   O22   A    
C2    H28   S    
C46   H44   S    
C1    O20   A    
C25   C34   S    
C1    O12   A    
C14   H9    S    
C21   C22   D    
C2    C6    S    
Cr2   O5    S    
C17   C33   S    
C11   H13   S    
Cr2   O26   S    
C42   C43   S    
C21   C32   S    
C46   H43   S    
C37   O4    A    
C34   O25   A    
C31   O11   A    
C29   O8    A    
C4    C6    S    
C45   C46   S    
Cr3   O4    S    
C41   H37   S    
C3    C30   S    
Cr5   O9    S    
C17   H16   S    
Cr6   O18   S    
C4    C39   S    
Cr1   O5    S    
C17   C18   D    
C12   O21   A    
Cr1   O24   S    
C43   H33   S    
C23   O1    A    
C30   O9    A    
C38   H1    S    
C24   H19   S    
C35   O13   A    
C18   H14   S    
C3    C40   S    
Cr2   O2    S    
C26   H24   S    
C22   C24   S    
C5    H4    S    
C33   O16   A    
Cr5   O8    S    
C4    C12   S    
Cr5   O19   S    
C41   C42   S    
Cr4   O14   S    
C46   H42   S    
O27   C44   S    
C35   O18   A    
Cr1   O12   S    
C40   H26   S    
Cr3   O5    S    
C13   C31   S    
C4    C5    S    
C36   O3    A    
C33   O17   A    
C8    H7    S    
C44   H39   S    
C6    H30   S    
C43   H31   S    
C15   H10   S    
C2    C3    S    
Cr4   O19   S    
C36   O2    A    
C45   H40   S    
C16   C36   S    
C42   H35   S    
C20   C37   S    
C42   H34   S    
Cr6   O17   S    
C19   H15   S    
C16   C19   D    
C7    C23   S    
Cr1   O25   S    
C5    H27   S    
Cr5   O15   S    
C44   C45   S    
C27   H21   S    
C2    H29   S    
C22   H18   S    
C26   C35   S    
C5    C40   S    
C27   C28   S    
C14   C15   S    
C7    H8    S    
C13   C14   D    
C37   O24   A    
Cr4   O13   S    
Cr6   O10   S    
