data_mof_unit_47906.cif
_audit_creation_date              2012-12-10T20:51:43-0500
_audit_creation_method            fapswitch 2.2
_symmetry_space_group_name_H-M    P1
_symmetry_Int_Tables_number       1
_space_group_crystal_system       triclinic
_cell_length_a                    8.093179
_cell_length_b                    8.933971
_cell_length_c                    16.783499
_cell_angle_alpha                 89.479542
_cell_angle_beta                  92.230957
_cell_angle_gamma                 90.012871
_cell_volume                      1212.54806444

loop_
_atom_site_label
_atom_site_type_symbol
_atom_type_description
_atom_site_fract_x
_atom_site_fract_y
_atom_site_fract_z
_atom_type_partial_charge
C1    C     C_R   0.499964 0.217940 0.499933 0.945701
C2    C     C_R   0.500036 0.782064 0.499949 0.936482
C3    C     C_R   0.517267 0.498729 0.654055 0.905085
C4    C     C_R   0.482465 0.496570 0.346521 0.913618
C5    C     C_R   0.516375 0.521355 0.739868 -0.104281
C6    C     C_R   0.481544 0.484133 0.260803 -0.093407
C7    C     C_R   0.375180 0.481856 0.782785 0.103096
C8    C     C_R   0.590159 0.383229 0.224951 0.103068
C9    C     C_R   0.366466 0.525603 0.862589 0.191631
C10   C     C_R   0.599316 0.383644 0.141471 0.152363
C11   C     C_R   0.502550 0.599620 0.899382 0.259404
C12   C     C_R   0.503961 0.487466 0.096511 0.268740
C13   C     C_R   0.640092 0.639132 0.856541 -0.245573
C14   C     C_R   0.392578 0.582969 0.133029 -0.214903
C15   C     C_R   0.646998 0.600566 0.776956 -0.286690
C16   C     C_R   0.380733 0.580438 0.214875 -0.302722
C17   C     C_1   0.499980 0.065187 0.499881 -0.198004
C18   C     C_1   0.500038 0.934831 0.499893 -0.198883
H1    H     H_    0.744057 0.695351 0.885732 0.160314
H2    H     H_    0.314336 0.658806 0.097861 0.170008
H3    H     H_    0.753549 0.634329 0.744063 0.178537
H4    H     H_    0.297030 0.657054 0.242612 0.171092
N1    N     N_1   0.073640 0.500030 0.499990 -0.042943
N2    N     N_1   0.926360 0.499970 0.500010 -0.045766
N3    N     N_2   0.511376 0.612375 0.982475 -0.193015
N4    N     N_2   0.511124 0.485228 0.013324 -0.142157
O1    O     O_R   0.636850 0.285340 0.500000 -0.610837
O2    O     O_R   0.363150 0.714660 0.500000 -0.617664
O3    O     O_R   0.363100 0.285350 0.500000 -0.615983
O4    O     O_R   0.636900 0.714650 0.500000 -0.616455
O5    O     O_R   0.652140 0.498630 0.616140 -0.633606
O6    O     O_R   0.347860 0.501370 0.383860 -0.627891
O7    O     O_R   0.378390 0.498650 0.616130 -0.589680
O8    O     O_R   0.621610 0.501350 0.383870 -0.601855
Zn1   Zn    Zn3+2 0.682780 0.499990 0.500010 0.974593
Zn2   Zn    Zn3+2 0.317220 0.500010 0.499990 0.979117
N5    N     N_2   0.685692 0.280951 0.273475 -0.307711
H5    H     H_    0.665747 0.169915 0.260009 0.206900
C19   C     C_3   0.859074 0.318339 0.284956 -0.686545
H6    H     H_    0.926893 0.294848 0.230336 0.223585
H7    H     H_    0.913937 0.249433 0.334597 0.232752
H8    H     H_    0.874965 0.438256 0.300430 0.254877
N6    N     N_2   0.247691 0.392399 0.746358 -0.299790
H9    H     H_    0.229515 0.290478 0.773957 0.208004
C20   C     C_3   0.095636 0.469318 0.722876 -0.694977
H10   H     H_    0.009754 0.469707 0.772757 0.215452
H11   H     H_    0.034333 0.409374 0.672216 0.244965
H12   H     H_    0.120087 0.586367 0.703565 0.243075
N7    N     N_2   0.703442 0.281274 0.101994 -0.305441
H13   H     H_    0.727217 0.179596 0.129500 0.221793
C21   C     C_3   0.842017 0.344757 0.061018 -0.752920
H14   H     H_    0.960018 0.297260 0.085990 0.224329
H15   H     H_    0.847888 0.468568 0.066854 0.240219
H16   H     H_    0.830138 0.316474 0.996801 0.250004
N8    N     N_2   0.225619 0.491305 0.908068 -0.291181
H17   H     H_    0.159467 0.397416 0.891507 0.226338
C22   C     C_3   0.122194 0.618623 0.924527 -0.804712
H18   H     H_    0.069235 0.667569 0.868078 0.234401
H19   H     H_    0.194324 0.705881 0.957203 0.249236
H20   H     H_    0.019446 0.582514 0.962099 0.236814

loop_
_geom_bond_atom_site_label_1
_geom_bond_atom_site_label_2
_ccdc_geom_bond_type
C2    O2    A    
N1    N2    T    
N5    H5    S    
C9    N8    S    
C14   C16   A    
C7    N6    S    
C2    C18   S    
N6    C20   S    
C1    C17   S    
C2    O4    A    
C21   H16   S    
O1    Zn1   S    
C7    C9    A    
C3    C5    S    
N8    H17   S    
C13   C15   A    
C17   C18   T    
N5    C19   S    
C3    O7    A    
C20   H10   S    
C3    O5    A    
C11   C13   A    
O3    Zn2   S    
C9    C11   A    
C22   H18   S    
C4    O6    A    
C10   C12   A    
O4    Zn1   S    
O6    Zn2   S    
C4    C6    S    
C12   C14   A    
O8    Zn1   S    
C19   H8    S    
O5    Zn1   S    
N8    C22   S    
N6    H9    S    
C4    O8    A    
C1    O3    A    
C5    C15   A    
N2    Zn1   S    
C22   H19   S    
C8    N5    S    
C11   N3    S    
C6    C16   A    
C21   H14   S    
N1    Zn2   S    
C14   H2    S    
C15   H3    S    
O7    Zn2   S    
C19   H7    S    
C1    O1    A    
N7    H13   S    
C20   H11   S    
C12   N4    S    
C19   H6    S    
C5    C7    A    
C13   H1    S    
O2    Zn2   S    
C22   H20   S    
C6    C8    A    
C20   H12   S    
N7    C21   S    
N3    N4    D    
C10   N7    S    
C8    C10   A    
C16   H4    S    
C21   H15   S    
