data_mof_unit_37161.cif
_audit_creation_date              2012-12-10T18:09:52-0500
_audit_creation_method            fapswitch 2.2
_symmetry_space_group_name_H-M    P1
_symmetry_Int_Tables_number       1
_space_group_crystal_system       triclinic
_cell_length_a                    10.639823
_cell_length_b                    12.589233
_cell_length_c                    13.268927
_cell_angle_alpha                 81.43379
_cell_angle_beta                  92.389871
_cell_angle_gamma                 102.291594
_cell_volume                      1717.1290445

loop_
_atom_site_label
_atom_site_type_symbol
_atom_type_description
_atom_site_fract_x
_atom_site_fract_y
_atom_site_fract_z
_atom_type_partial_charge
C1    C     C_R   0.474930 0.439803 0.690382 0.888787
C2    C     C_R   0.455579 0.457286 0.969692 0.121433
C3    C     C_R   0.439905 0.485247 0.863983 0.104881
C4    C     C_R   0.741719 0.499727 0.502086 0.834399
C5    C     C_R   0.468445 0.540407 0.031776 -0.031407
C6    C     C_R   0.501282 0.651199 0.987582 0.107683
C7    C     C_R   0.471635 0.678489 0.885270 -0.173106
C8    C     C_R   0.425936 0.594380 0.827319 -0.165082
C9    C     C_R   0.443980 0.517784 0.135708 0.280347
C10   C     C_R   0.574988 0.697940 0.152394 -0.146119
C11   C     C_R   0.448169 0.406104 0.799278 -0.138369
C12   C     C_3   0.121250 0.497863 0.502844 0.125783
C13   C     C_R   0.255740 0.074609 0.425609 -0.229590
C14   C     C_R   0.666739 0.798981 0.620058 -0.059899
C15   C     C_R   0.693428 0.897148 0.660485 -0.304858
C16   C     C_R   0.512675 0.560628 0.308557 0.955546
C17   C     C_R   0.618196 0.975373 0.632163 0.472988
C18   C     C_R   0.524392 0.958610 0.553821 -0.168450
C19   C     C_R   0.494055 0.853880 0.520634 0.091500
C20   C     C_R   0.453905 0.037988 0.508523 0.059497
C21   C     C_R   0.330173 0.000067 0.467804 0.164999
C22   C     C_R   0.290955 0.889292 0.457296 -0.369506
C23   C     C_3   0.087600 0.583065 0.414513 -0.326583
C24   C     C_R   0.388928 0.832520 0.452488 0.424823
C25   C     C_R   0.505070 0.151791 0.492510 0.048324
C26   C     C_R   0.308904 0.186089 0.416670 0.041735
C27   C     C_R   0.258069 0.498995 0.500810 0.874949
C28   C     C_3   0.899100 0.382679 0.491264 -0.356444
C29   C     C_3   0.041544 0.382152 0.490769 -0.375827
C30   C     C_3   0.943101 0.581627 0.413806 -0.461189
C31   C     C_3   0.943427 0.534395 0.605669 -0.162847
C32   C     C_3   0.878552 0.498883 0.504543 0.075353
C33   C     C_2   0.876444 0.470100 0.701369 0.912041
C34   C     C_3   0.087049 0.528311 0.606110 -0.470063
C35   C     C_R   0.558640 0.730438 0.048221 -0.142413
C36   C     C_R   0.509211 0.594141 0.198225 -0.152418
C37   C     C_R   0.452824 0.298516 0.841990 -0.155093
C38   C     C_R   0.465571 0.271178 0.946529 -0.103504
C39   C     C_R   0.473381 0.351275 0.009329 -0.078127
H1    H     H_    0.855591 0.358941 0.417874 0.184614
H2    H     H_    0.478181 0.189700 0.978203 0.173139
H3    H     H_    0.851416 0.319275 0.552940 0.247591
H4    H     H_    0.386888 0.617556 0.752806 0.169769
H5    H     H_    0.249483 0.244315 0.389630 0.195108
H6    H     H_    0.201303 0.863484 0.417154 0.152568
H7    H     H_    0.159112 0.047076 0.397170 0.156360
H8    H     H_    0.601270 0.185012 0.516992 0.166366
H9    H     H_    0.721270 0.736626 0.646281 0.186561
H10   H     H_    0.766236 0.908076 0.719681 0.213382
H11   H     H_    0.064014 0.320114 0.554128 0.199353
H12   H     H_    0.146360 0.609555 0.618809 0.172650
H13   H     H_    0.064936 0.357284 0.417827 0.215321
H14   H     H_    0.899258 0.558141 0.340482 0.185136
H15   H     H_    0.114430 0.565079 0.339912 0.239432
H16   H     H_    0.939189 0.622217 0.605498 0.139664
H17   H     H_    0.110929 0.467087 0.669581 0.195220
H18   H     H_    0.402583 0.298288 0.237562 0.342097
H19   H     H_    0.646337 0.068432 0.880984 0.382638
H20   H     H_    0.292727 0.920628 0.233788 0.365318
H21   H     H_    0.840377 0.328991 0.799613 0.375113
H22   H     H_    0.928601 0.665771 0.418561 0.188513
H23   H     H_    0.142143 0.666722 0.423739 0.183671
H24   H     H_    0.635448 0.754242 0.196404 0.217684
H25   H     H_    0.479413 0.763457 0.851448 0.182698
H26   H     H_    0.595741 0.814679 0.014746 0.186921
H27   H     H_    0.456829 0.237938 0.793911 0.239033
H28   H     H_    0.502288 0.332102 0.087516 0.141212
N1    N     N_R   0.433240 0.222190 0.444680 -0.146592
N2    N     N_R   0.566070 0.776970 0.554790 -0.123469
O1    O     O_R   0.468120 0.366740 0.627160 -0.584025
O2    O     O_2   0.201383 0.426747 0.088332 -0.236241
O3    O     O_3   0.319412 0.292980 0.200510 -0.546475
O4    O     O_2   0.696839 0.177163 0.685367 -0.330172
O5    O     O_2   0.475203 0.078574 0.725940 -0.347667
O6    O     O_3   0.661768 0.017047 0.835394 -0.565238
O7    O     O_2   0.568780 0.848041 0.315186 -0.299792
O8    O     O_2   0.353811 0.733611 0.285298 -0.330151
O9    O     O_3   0.384593 0.945147 0.251730 -0.523828
O10   O     O_2   0.813711 0.514209 0.751248 -0.631303
O11   O     O_R   0.887998 0.361765 0.733894 -0.760799
O12   O     O_R   0.510770 0.544830 0.662520 -0.622782
O13   O     O_R   0.663880 0.410950 0.482330 -0.629419
O14   O     O_R   0.706530 0.589040 0.517700 -0.627574
O15   O     O_R   0.489230 0.455170 0.337480 -0.622992
O16   O     O_R   0.531880 0.633260 0.372840 -0.529667
O17   O     O_R   0.293470 0.410960 0.482300 -0.617598
O18   O     O_R   0.336120 0.589050 0.517670 -0.646658
O19   O     O_2   0.242832 0.452464 0.265719 -0.326439
S1    S     S_3+6 0.297772 0.422589 0.174183 0.042908
S2    S     S_3+6 0.612122 0.067149 0.719405 -0.026137
S3    S     S_3+6 0.426167 0.835849 0.324026 0.026671
Zn1   Zn    Zn3+2 0.471520 0.381090 0.476390 0.994101
Zn2   Zn    Zn3+2 0.528480 0.618910 0.523610 1.000033

loop_
_geom_bond_atom_site_label_1
_geom_bond_atom_site_label_2
_ccdc_geom_bond_type
C34   H17   S    
C12   C29   S    
C10   H24   S    
C1    C11   S    
C8    H4    S    
C26   H5    S    
C7    C8    A    
C12   C23   S    
C34   H12   S    
C28   C29   S    
O4    S2    D    
N2    Zn2   S    
C38   C39   A    
C20   C25   A    
C35   H26   S    
C1    O12   A    
O14   Zn2   S    
C16   O15   A    
O13   Zn1   S    
C6    C35   A    
C18   C19   A    
C11   C37   A    
O6    S2    S    
O16   Zn2   S    
C2    C39   A    
C23   H23   S    
H21   O11   S    
C9    C36   A    
C31   C33   S    
C10   C35   A    
C25   H8    S    
C21   C22   A    
C25   N1    A    
H20   O9    S    
H19   O6    S    
C29   H11   S    
C30   H14   S    
C12   C27   S    
C23   C30   S    
C28   C32   S    
C38   H2    S    
C3    C8    A    
C9    S1    S    
C33   O10   D    
C14   H9    S    
C27   O17   A    
C5    C9    A    
C37   C38   A    
O12   Zn2   S    
C31   C32   S    
O2    S1    D    
C37   H27   S    
C17   C18   A    
C31   C34   S    
C13   C21   A    
O19   S1    D    
C27   O18   A    
C4    C32   S    
C16   O16   A    
C14   N2    A    
C22   C24   A    
C13   C26   A    
C19   N2    A    
C2    C5    A    
C12   C34   S    
C24   S3    S    
C23   H15   S    
C13   H7    S    
C15   C17   A    
O8    S3    D    
C39   H28   S    
O1    Zn1   S    
C17   S2    S    
C33   O11   S    
C6    C7    A    
O9    S3    S    
C1    O1    A    
C26   N1    A    
O5    S2    D    
C2    C3    A    
O17   Zn1   S    
C16   C36   S    
C30   C32   S    
O3    S1    S    
C5    C6    A    
C4    O14   A    
O18   Zn2   S    
C28   H3    S    
N1    Zn1   S    
C19   C24   A    
C18   C20   A    
C15   H10   S    
H18   O3    S    
C7    H25   S    
C3    C11   A    
O7    S3    D    
C22   H6    S    
C4    O13   A    
C20   C21   A    
C30   H22   S    
C28   H1    S    
C14   C15   A    
C10   C36   A    
O15   Zn1   S    
C31   H16   S    
C29   H13   S    
