data_mof_unit_60366.cif
_audit_creation_date              2012-10-26T19:44:39-0400
_audit_creation_method            fapswitch 2.2
_symmetry_space_group_name_H-M    P1
_symmetry_Int_Tables_number       1
_space_group_crystal_system       triclinic
_cell_length_a                    19.340795
_cell_length_b                    11.727676
_cell_length_c                    10.470769
_cell_angle_alpha                 89.941092
_cell_angle_beta                  89.999477
_cell_angle_gamma                 90.000447
_cell_volume                      2375.00555589

loop_
_atom_site_label
_atom_site_type_symbol
_atom_type_description
_atom_site_fract_x
_atom_site_fract_y
_atom_site_fract_z
_atom_type_partial_charge
Br1   Br    Br    0.304803 0.709934 0.646635 -0.423737
Br2   Br    Br    0.695155 0.290122 0.353284 -0.423751
Br3   Br    Br    0.695192 0.709853 0.646763 -0.423730
Br4   Br    Br    0.304853 0.290009 0.353450 -0.423757
C1    C     C_R   0.499999 0.283326 0.500046 0.577603
C2    C     C_1   0.500000 0.940267 0.499954 0.026100
C3    C     C_1   0.500000 0.499997 0.072070 0.157853
C4    C     C_1   0.500000 0.500003 0.927930 0.157852
C5    C     C_R   0.255289 0.586967 0.564160 0.108572
C6    C     C_R   0.744696 0.413021 0.435818 0.108568
C7    C     C_R   0.744710 0.586913 0.564244 0.108567
C8    C     C_R   0.255308 0.412967 0.435888 0.108562
C9    C     C_R   0.182720 0.586908 0.564316 -0.014346
C10   C     C_R   0.817266 0.413018 0.435728 -0.014349
C11   C     C_R   0.817280 0.586832 0.564431 -0.014360
C12   C     C_R   0.500000 0.716673 0.499954 0.577570
C13   C     C_R   0.182738 0.412966 0.435793 -0.014348
C14   C     C_R   0.146151 0.499922 0.500066 -0.051722
C15   C     C_R   0.853854 0.499909 0.500094 -0.051735
C16   C     C_R   0.291512 0.499984 0.500005 0.019827
C17   C     C_R   0.708490 0.499988 0.500006 0.019826
C18   C     C_1   0.146024 0.678863 0.626953 0.311924
C19   C     C_1   0.853937 0.321043 0.373119 0.311937
C20   C     C_1   0.853965 0.678700 0.627198 0.311948
C21   C     C_1   0.146065 0.320958 0.373253 0.311931
C22   C     C_R   0.930089 0.499875 0.500110 0.332888
C23   C     C_R   0.069920 0.499883 0.500092 0.332881
C24   C     C_R   0.367226 0.500001 0.500001 0.600996
C25   C     C_R   0.632774 0.500006 0.500000 0.600983
C26   C     C_1   0.499999 0.161955 0.500101 0.054733
C27   C     C_1   0.500000 0.838045 0.499899 0.054707
C28   C     C_1   0.499999 0.059733 0.500046 0.026110
Cu1   Cu    Cu3+1 0.500000 0.500000 0.625300 1.113039
Cu2   Cu    Cu3+1 0.500000 0.500000 0.374700 1.113048
N1    N     N_1   0.500000 0.500000 0.186410 -0.168868
N2    N     N_1   0.116719 0.247456 0.323328 -0.179258
N3    N     N_1   0.500000 0.500000 0.813590 -0.168869
N4    N     N_R   0.034386 0.493714 0.388626 -0.183797
N5    N     N_R   0.965624 0.506032 0.611574 -0.183806
N6    N     N_R   0.965619 0.493710 0.388636 -0.183803
N7    N     N_R   0.034391 0.506035 0.611567 -0.183797
N8    N     N_1   0.116659 0.752317 0.676969 -0.179226
N9    N     N_1   0.883282 0.247562 0.323145 -0.179249
N10   N     N_1   0.883322 0.752080 0.677324 -0.179236
O1    O     O_R   0.500000 0.337200 0.605810 -0.499511
O2    O     O_R   0.500000 0.662800 0.394190 -0.499513
O3    O     O_R   0.500000 0.662800 0.605810 -0.462189
O4    O     O_R   0.500000 0.337200 0.394190 -0.462167
O5    O     O_R   0.400140 0.500000 0.605850 -0.469732
O6    O     O_R   0.599860 0.500000 0.394150 -0.469711
O7    O     O_R   0.599860 0.500000 0.605850 -0.469723
O8    O     O_R   0.400140 0.500000 0.394150 -0.469733

loop_
_geom_bond_atom_site_label_1
_geom_bond_atom_site_label_2
_ccdc_geom_bond_type
C8    C13   A    
C10   C19   S    
N4    N6    A    
Cu2   O2    S    
Br4   C8    S    
Cu1   O1    S    
C24   O5    A    
C23   N7    A    
C5    C16   A    
C2    C28   S    
Br3   C7    S    
C13   C21   S    
C8    C16   A    
C2    C27   T    
Br1   C5    S    
C3    C4    S    
N5    N7    A    
C12   C27   S    
C26   C28   T    
C24   O8    A    
C22   N6    A    
C18   N8    T    
C17   C25   S    
C9    C14   A    
C20   N10   T    
C12   O3    A    
C3    N1    T    
C11   C20   S    
C9    C18   S    
Cu1   Cu2   S    
C7    C11   A    
C25   O6    A    
C6    C17   A    
C6    C10   A    
Cu1   O3    S    
C1    O4    A    
C22   N5    A    
Cu2   O6    S    
Cu1   O7    S    
C4    N3    T    
C23   N4    A    
Cu1   O5    S    
Br2   C6    S    
C16   C24   S    
C19   N9    T    
C13   C14   A    
Cu2   N1    S    
C25   O7    A    
C12   O2    A    
C15   C22   S    
C5    C9    A    
Cu2   O8    S    
C21   N2    T    
C11   C15   A    
C1    O1    A    
C10   C15   A    
C7    C17   A    
Cu1   N3    S    
C14   C23   S    
C1    C26   S    
Cu2   O4    S    
