data_mof_unit_57916.cif
_audit_creation_date              2012-12-11T18:07:18-0500
_audit_creation_method            fapswitch 2.2
_symmetry_space_group_name_H-M    P1
_symmetry_Int_Tables_number       1
_space_group_crystal_system       triclinic
_cell_length_a                    8.228709
_cell_length_b                    12.742815
_cell_length_c                    26.906363
_cell_angle_alpha                 96.673454
_cell_angle_beta                  93.181342
_cell_angle_gamma                 80.486516
_cell_volume                      2761.76614521

loop_
_atom_site_label
_atom_site_type_symbol
_atom_type_description
_atom_site_fract_x
_atom_site_fract_y
_atom_site_fract_z
_atom_type_partial_charge
Ba1   Ba    Ba6+2 0.859560 0.448380 0.523550 1.688838
Ba2   Ba    Ba6+2 0.330270 0.551530 0.476440 1.664638
C1    C     C_3   0.651921 0.169527 0.742786 -0.409357
C2    C     C_R   0.958542 0.607344 0.183894 0.592143
C3    C     C_2   0.762752 0.581065 0.272487 -0.086881
C4    C     C_3   0.179403 0.079920 0.661796 0.340121
C5    C     C_3   0.735918 0.609821 0.327884 -0.066653
C6    C     C_1   0.981687 0.477994 0.342696 0.029644
C7    C     C_2   0.019714 0.465594 0.294653 -0.083210
C8    C     C_2   0.904471 0.519258 0.256567 0.226397
C9    C     C_R   0.027164 0.506826 0.102804 -0.079775
C10   C     C_R   0.022427 0.411569 0.124257 -0.033964
C11   C     C_R   0.055398 0.313812 0.094094 -0.060664
C12   C     C_3   0.624449 0.208114 0.690839 0.285313
C13   C     C_R   0.995383 0.605189 0.133094 -0.029846
C14   C     C_2   0.846587 0.538228 0.360382 -0.265136
C15   C     C_2   0.361847 0.482004 0.642425 -0.214469
C16   C     C_3   0.071957 0.053230 0.701121 -0.312467
C17   C     C_R   0.140717 0.401255 0.969874 0.019539
C18   C     C_R   0.094658 0.598669 0.978002 0.020175
C19   C     C_R   0.135911 0.498742 0.948412 0.049366
C20   C     C_R   0.187151 0.304170 0.938969 -0.099411
C21   C     C_R   0.225051 0.302886 0.888987 -0.066124
C22   C     C_R   0.218398 0.398174 0.867189 -0.035788
C23   C     C_3   0.481604 0.719765 0.627929 0.296947
C24   C     C_R   0.172987 0.496403 0.896789 -0.079191
C25   C     C_R   0.164843 0.592403 0.874771 -0.031284
C26   C     C_R   0.203487 0.589111 0.823968 0.580899
C27   C     C_R   0.257210 0.397319 0.816450 0.593798
C28   C     C_3   0.212193 0.226966 0.422522 0.297703
C29   C     C_2   0.457309 0.464186 0.731710 -0.114692
C30   C     C_3   0.506734 0.477176 0.679565 -0.097147
C31   C     C_1   0.213653 0.525962 0.657504 0.053696
C32   C     C_2   0.170569 0.526651 0.704509 -0.051758
C33   C     C_2   0.297224 0.491152 0.744092 0.250261
C34   C     C_3   0.459831 0.758453 0.683179 -0.378012
C35   C     C_R   0.099896 0.403928 0.021175 0.019767
C36   C     C_R   0.063872 0.503908 0.051109 0.049727
C37   C     C_R   0.064155 0.601171 0.029959 0.019907
C38   C     C_R   0.093263 0.309868 0.043912 -0.099785
C39   C     C_R   0.001604 0.699915 0.112161 -0.062900
C40   C     C_3   0.252587 0.106018 0.411780 -0.402647
C41   C     C_R   0.084175 0.693212 0.954230 -0.101512
C42   C     C_R   0.118663 0.689946 0.903974 -0.062380
C43   C     C_R   0.035193 0.698164 0.061962 -0.100861
C44   C     C_R   0.745321 0.820391 0.475557 -0.275238
C45   C     C_3   0.937717 0.855835 0.343170 0.296457
C46   C     C_R   0.454067 0.195556 0.527841 -0.168726
C47   C     C_R   0.419336 0.017836 0.543178 -0.108924
C48   C     C_R   0.373124 0.129089 0.551422 -0.031430
C49   C     C_R   0.580638 0.154443 0.495659 0.070254
C50   C     C_R   0.636298 0.042527 0.488534 -0.041040
C51   C     C_R   0.553226 0.972951 0.512217 -0.002911
C52   C     C_3   0.976128 0.771474 0.577133 0.257044
C53   C     C_R   0.610123 0.861027 0.505033 0.047647
C54   C     C_R   0.835454 0.888710 0.456588 -0.036367
C55   C     C_R   0.777435 0.998564 0.460811 -0.143074
C56   C     C_3   0.962985 0.889458 0.292190 -0.300500
C57   C     C_3   0.938427 0.891658 0.588475 -0.332376
C58   C     C_3   0.698191 0.310827 0.375562 0.303090
C59   C     C_3   0.703202 0.283546 0.319060 -0.358929
C60   C     C_2   0.616858 0.114295 0.652005 0.529308
C61   C     C_3   0.464687 0.829238 0.343283 0.400354
C62   C     C_3   0.425913 0.913122 0.306667 -0.366358
C63   C     C_R   0.983063 0.416186 0.175291 0.591966
H1    H     H_    0.364904 0.084319 0.389507 0.108237
H2    H     H_    0.602544 0.382171 0.383824 0.082426
H3    H     H_    0.541508 0.137906 0.752872 0.114052
H4    H     H_    0.803465 0.215455 0.309576 0.123868
H5    H     H_    0.725843 0.353627 0.301152 0.077023
H6    H     H_    0.583476 0.261381 0.304106 0.134416
H7    H     H_    0.505354 0.261968 0.692166 0.035402
H8    H     H_    0.672100 0.237276 0.771099 0.144096
H9    H     H_    0.361173 0.702105 0.611486 0.022611
H10   H     H_    0.575064 0.645884 0.624340 0.034584
H11   H     H_    0.370628 0.834209 0.687379 0.124555
H12   H     H_    0.275233 0.069239 0.447331 0.073974
H13   H     H_    0.411789 0.697996 0.702264 0.081718
H14   H     H_    0.580010 0.772551 0.701331 0.123471
H15   H     H_    0.759536 0.104892 0.744191 0.100337
H16   H     H_    0.147457 0.999157 0.726122 0.064176
H17   H     H_    0.912129 0.772387 0.338088 0.027467
H18   H     H_    0.830129 0.911303 0.359222 -0.026642
H19   H     H_    0.069946 0.836597 0.274422 0.174728
H20   H     H_    0.850682 0.883732 0.267821 0.111258
H21   H     H_    0.985597 0.973645 0.296304 0.091205
H22   H     H_    0.601047 0.813163 0.348448 -0.133305
H23   H     H_    0.147959 0.074110 0.390800 0.148505
H24   H     H_    0.412145 0.862387 0.380060 0.070448
H25   H     H_    0.463679 0.877426 0.268595 0.122636
H26   H     H_    0.494872 0.980318 0.318399 0.073402
H27   H     H_    0.266079 0.128508 0.682826 0.052176
H28   H     H_    0.292187 0.944797 0.305619 0.128576
H29   H     H_    0.136462 0.418860 0.282871 0.105868
H30   H     H_    0.051824 0.239102 0.109242 0.119188
H31   H     H_    0.551980 0.442470 0.760094 0.068612
H32   H     H_    0.260281 0.226052 0.867336 0.115905
H33   H     H_    0.197910 0.226867 0.952352 0.067344
H34   H     H_    0.863579 0.740121 0.562816 0.009318
H35   H     H_    0.114657 0.231068 0.023801 0.066442
H36   H     H_    0.677848 0.622075 0.246017 0.091546
H37   H     H_    0.979976 0.776787 0.134675 0.118096
H38   H     H_    0.047018 0.771996 0.973154 0.066928
H39   H     H_    0.251802 0.005049 0.644044 -0.038841
H40   H     H_    0.109138 0.765081 0.888009 0.119560
H41   H     H_    0.044405 0.555841 0.715047 0.094380
H42   H     H_    0.040004 0.775006 0.049739 0.067706
H43   H     H_    0.824898 0.550406 0.400209 0.074647
H44   H     H_    0.382262 0.455761 0.603106 0.073958
H45   H     H_    0.070673 0.752028 0.548340 0.086840
H46   H     H_    0.352058 0.968083 0.561307 0.076844
H47   H     H_    0.848832 0.048289 0.444257 0.093456
H48   H     H_    0.790846 0.735253 0.471668 0.055618
H49   H     H_    0.414709 0.281297 0.533852 0.057238
H50   H     H_    0.020346 0.128166 0.724061 0.150276
H51   H     H_    0.969947 0.013540 0.683541 0.126995
H52   H     H_    0.323356 0.258831 0.438120 -0.006298
H53   H     H_    0.115051 0.246100 0.450462 0.075441
H54   H     H_    0.539549 0.055416 0.656859 -0.101976
H55   H     H_    0.842100 0.912195 0.616779 0.154126
H56   H     H_    0.895994 0.930741 0.554608 0.090008
H57   H     H_    0.052456 0.921271 0.602872 0.119147
H58   H     H_    0.819988 0.329033 0.389948 0.003351
N1    N     N_R   0.949860 0.513676 0.204451 -0.423636
N2    N     N_R   0.250620 0.492290 0.795565 -0.427358
O1    O     O_2   0.907040 0.557650 0.617910 -0.453485
O2    O     O_2   0.172983 0.884653 0.467364 -0.495953
O3    O     O_3   0.080697 0.862069 0.373592 -0.580384
O4    O     O_3   0.139040 0.557570 0.557730 -0.504637
O5    O     O_3   0.571310 0.369620 0.475470 -0.489723
O6    O     O_2   0.348200 0.764910 0.523260 -0.468589
O7    O     O_3   0.534673 0.800347 0.604732 -0.644496
O8    O     O_2   0.435244 0.528851 0.324148 -0.482292
O9    O     O_3   0.395254 0.737780 0.324387 -0.561948
O10   O     O_2   0.976394 0.333557 0.193486 -0.598042
O11   O     O_2   0.296146 0.312074 0.790819 -0.609674
O12   O     O_3   0.661196 0.222824 0.396886 -0.638367
O13   O     O_2   0.934902 0.693065 0.210016 -0.623838
O14   O     O_2   0.197124 0.672613 0.805161 -0.602051
O15   O     O_3   0.684960 0.360550 0.588460 -0.447290
O16   O     O_2   0.840004 0.433713 0.669869 -0.451951
O17   O     O_3   0.032686 0.729005 0.621633 -0.638252
O18   O     O_3   0.755983 0.259383 0.680905 -0.540123
O19   O     O_2   0.841490 0.235060 0.476710 -0.511894
O20   O     O_3   0.099640 0.305100 0.564190 -0.435530
O21   O     O_2   0.293236 0.263629 0.633807 -0.565188
O22   O     O_2   0.698356 0.103143 0.614668 -0.577865
O23   O     O_3   0.080136 0.134588 0.625201 -0.532481
O24   O     O_2   0.282660 0.442310 0.382060 -0.446385
O25   O     O_3   0.050670 0.442340 0.442260 -0.506868
O26   O     O_3   0.504750 0.639360 0.411530 -0.470470
O27   O     O_3   0.158656 0.270377 0.377861 -0.626225
O28   O     O_3   0.618400 0.630290 0.524520 -0.478472
O29   O     O_3   0.090070 0.694820 0.435810 -0.463653
P1    P     P_3+3 0.072810 0.589830 0.610360 0.992979
P2    P     P_3+3 0.661990 0.251250 0.462170 0.958992
P3    P     P_3+3 0.206660 0.197465 0.591909 0.962010
P4    P     P_3+3 0.116900 0.410080 0.389630 0.988335
P5    P     P_3+3 0.042662 0.833525 0.433513 0.950713
P6    P     P_3+3 0.687896 0.379940 0.654694 1.052543
P7    P     P_3+3 0.532757 0.765221 0.539905 0.940288
P8    P     P_3+3 0.517380 0.625563 0.346307 0.980927

loop_
_geom_bond_atom_site_label_1
_geom_bond_atom_site_label_2
_ccdc_geom_bond_type
C59   H5    S    
Ba2   O25   S    
C19   C24   A    
C57   H56   S    
C57   H55   S    
C20   H33   S    
C27   N2    Am   
C58   H58   S    
Ba1   O20   S    
C1    H3    S    
C62   H25   S    
C6    P4    S    
O8    P8    D    
Ba2   O4    S    
O18   P6    S    
C21   H32   S    
O21   P3    D    
C42   H40   S    
C39   H37   S    
C2    N1    Am   
C24   C25   A    
C11   H30   S    
C17   C19   A    
C22   C24   A    
C62   H28   S    
Ba1   Ba2   S    
C54   P5    S    
Ba1   O4    S    
C36   C37   A    
C32   C33   S    
C47   C51   A    
C63   N1    Am   
C55   H47   S    
O6    P7    D    
C29   H31   S    
C12   C60   S    
C16   H16   S    
C4    O23   S    
C54   C55   A    
C52   H45   S    
C33   N2    S    
C23   H9    S    
C45   H17   S    
Ba1   P1    S    
O7    P7    S    
C11   C38   A    
C17   C35   A    
C22   C27   A    
C9    C13   A    
C25   C42   A    
C46   C49   A    
C58   H2    S    
C6    C7    D    
C44   C53   A    
O4    P1    S    
C21   C22   A    
C45   H18   S    
O17   P1    S    
C34   H11   S    
C7    C8    S    
C58   O12   S    
C47   H46   S    
O1    P1    D    
C59   H6    S    
Ba2   O24   S    
C46   C48   A    
Ba2   O29   S    
C26   O14   D    
C15   C31   D    
C1    H15   S    
C56   H21   S    
Ba2   O6    S    
C3    H36   S    
C52   C57   S    
C51   C53   A    
C48   P3    S    
C4    C16   S    
C5    P8    S    
O27   P4    S    
C49   P2    S    
C49   C50   A    
C32   H41   S    
C61   O9    S    
C45   O3    S    
C17   C20   A    
Ba1   O1    S    
C53   P7    S    
Ba1   O5    S    
C16   H51   S    
C3    C5    S    
C18   C37   A    
C28   H53   S    
O9    P8    S    
O12   P2    S    
O28   P7    S    
C58   C59   S    
C23   H10   S    
O19   P2    D    
Ba1   P2    S    
C41   C42   A    
C35   C36   A    
C56   H19   S    
O20   P3    S    
O16   P6    D    
C28   O27   S    
C29   C30   S    
Ba2   P4    S    
O26   P8    S    
C61   H24   S    
C31   C32   D    
Ba1   O25   S    
C50   C51   A    
C18   C19   A    
Ba1   O28   S    
Ba1   O15   S    
C13   C39   A    
C60   H54   S    
C63   O10   D    
C1    C12   S    
C5    C14   S    
C52   O17   S    
Ba2   O28   S    
C4    H39   S    
C60   O22   D    
C29   C33   D    
C52   H34   S    
C40   H23   S    
C56   H20   S    
O2    P5    D    
C18   C41   A    
C26   N2    Am   
C46   H49   S    
O24   P4    D    
C59   H4    S    
Ba2   O26   S    
C12   O18   S    
O25   P4    S    
C44   H48   S    
C61   H22   S    
C12   H7    S    
C34   H14   S    
C15   H44   S    
C16   H50   S    
C38   H35   S    
C9    C10   A    
C31   P1    S    
C28   H52   S    
C35   C38   A    
C10   C63   A    
C8    N1    S    
C37   C43   A    
C2    C13   A    
C3    C8    D    
Ba1   O19   S    
C34   H13   S    
O15   P6    S    
C45   C56   S    
C57   H57   S    
C4    H27   S    
Ba2   O5    S    
O23   P3    S    
C1    H8    S    
C41   H38   S    
C50   C55   A    
C14   H43   S    
C23   C34   S    
C2    O13   D    
C61   C62   S    
O29   P5    S    
C27   O11   D    
C10   C11   A    
C40   H12   S    
C6    C14   D    
C47   C48   A    
C44   C54   A    
C25   C26   A    
C40   H1    S    
C15   C30   S    
C39   C43   A    
C20   C21   A    
C28   C40   S    
C9    C36   A    
O5    P2    S    
C62   H26   S    
C23   O7    S    
C7    H29   S    
C43   H42   S    
O3    P5    S    
C30   P6    S    
