data_mof_unit_54136.cif
_audit_creation_date              2013-03-05T16:01:22-0500
_audit_creation_method            fapswitch 2.2
_symmetry_space_group_name_H-M    P1
_symmetry_Int_Tables_number       1
_space_group_crystal_system       triclinic
_cell_length_a                    19.769518
_cell_length_b                    7.020025
_cell_length_c                    17.691748
_cell_angle_alpha                 89.999844
_cell_angle_beta                  107.73267
_cell_angle_gamma                 90.000208
_cell_volume                      2338.64866246

loop_
_atom_site_label
_atom_site_type_symbol
_atom_site_description
_atom_site_fract_x
_atom_site_fract_y
_atom_site_fract_z
_atom_type_partial_charge
O1    O     O_R   0.561700 0.369960 0.440190 -0.604265
O2    O     O_R   0.061700 0.630040 0.940190 -0.604263
O3    O     O_R   0.413790 0.033680 0.407460 -0.555387
O4    O     O_R   0.913790 0.966320 0.907460 -0.555387
O5    O     O_R   0.438300 0.869760 0.559810 -0.591620
O6    O     O_R   0.938300 0.130240 0.059810 -0.591630
C1    C     C_R   0.387687 0.203524 0.383576 0.905370
C2    C     C_R   0.887687 0.796476 0.883576 0.905372
O7    O     O_R   0.559630 0.039830 0.430710 -0.608182
O8    O     O_R   0.059630 0.960170 0.930710 -0.608179
O9    O     O_R   0.585190 0.875950 0.583220 -0.594460
O10   O     O_R   0.085190 0.124050 0.083220 -0.594460
C3    C     C_R   0.580346 0.208227 0.414471 0.939322
C4    C     C_R   0.080347 0.791773 0.914472 0.939316
O11   O     O_R   0.414810 0.363770 0.416780 -0.542998
O12   O     O_R   0.914810 0.636230 0.916780 -0.542995
O13   O     O_3   0.508210 0.205480 0.550010 -0.274242
O14   O     O_3   0.008210 0.794520 0.050010 -0.274245
V1    V     V_3+5 0.498480 0.928140 0.490720 1.218315
V2    V     V_3+5 0.998480 0.071860 0.990720 1.218312
O15   O     O_R   0.586210 0.546600 0.592540 -0.582106
O16   O     O_R   0.086210 0.453400 0.092540 -0.582108
C5    C     C_R   0.612429 0.714944 0.614957 0.982263
C6    C     C_R   0.112429 0.285056 0.114957 0.982262
O17   O     O_R   0.440370 0.540460 0.569290 -0.587215
O18   O     O_R   0.940370 0.459540 0.069290 -0.587223
C7    C     C_R   0.419606 0.708836 0.584425 0.941208
C8    C     C_R   0.919607 0.291163 0.084425 0.941225
V3    V     V_3+5 0.501520 0.428910 0.509280 1.230357
V4    V     V_3+5 0.001520 0.571090 0.009280 1.230350
O19   O     O_3   0.491790 0.701440 0.449990 -0.263504
O20   O     O_3   0.991790 0.298560 0.949990 -0.263501
C9    C     C_R   0.253788 0.786424 0.644266 -0.122045
C10   C     C_R   0.753803 0.213427 0.144278 -0.122011
H1    H     H_    0.199800 0.833738 0.616263 0.115522
H2    H     H_    0.699826 0.166012 0.116284 0.115515
C11   C     C_R   0.301123 0.783103 0.599360 -0.125569
C12   C     C_R   0.801140 0.216743 0.099376 -0.125540
H3    H     H_    0.282986 0.828439 0.537923 0.129386
H4    H     H_    0.783017 0.171294 0.037951 0.129377
C13   C     C_R   0.370806 0.717560 0.632892 -0.117678
C14   C     C_R   0.870807 0.282435 0.132892 -0.117711
C15   C     C_R   0.393102 0.659257 0.712519 -0.176011
C16   C     C_R   0.893087 0.340876 0.212503 -0.176025
H5    H     H_    0.446972 0.609757 0.739550 0.116442
H6    H     H_    0.946944 0.390491 0.239522 0.116469
C17   C     C_R   0.346409 0.668327 0.758295 0.007222
C18   C     C_R   0.846395 0.331791 0.258279 0.007198
H7    H     H_    0.365503 0.627912 0.820249 0.126014
H8    H     H_    0.865480 0.372303 0.320223 0.126049
C19   C     C_R   0.275636 0.728290 0.724279 0.175131
C20   C     C_R   0.775635 0.271696 0.224276 0.175099
C21   C     C_R   0.216786 0.589613 0.822666 0.356895
C22   C     C_R   0.716777 0.410391 0.322655 0.356897
C23   C     C_R   0.169814 0.613835 0.867918 -0.292753
C24   C     C_R   0.669807 0.386170 0.367910 -0.292753
H9    H     H_    0.164351 0.498316 0.906175 0.179593
H10   H     H_    0.664342 0.501695 0.406162 0.179591
C25   C     C_R   0.129588 0.781588 0.864330 -0.215523
C26   C     C_R   0.629585 0.218413 0.364327 -0.215525
C27   C     C_R   0.138358 0.931407 0.813466 0.182997
C28   C     C_R   0.638355 0.068590 0.313466 0.182995
C29   C     C_R   0.185333 0.905512 0.768392 -0.148730
C30   C     C_R   0.685331 0.094479 0.268394 -0.148707
H11   H     H_    0.191475 0.018702 0.729462 0.174239
H12   H     H_    0.691473 0.981281 0.229468 0.174263
C31   C     C_R   0.225103 0.738553 0.772306 -0.105947
C32   C     C_R   0.725100 0.261440 0.272302 -0.105926
C33   C     C_2   0.726973 0.851942 0.687765 -0.070905
C34   C     C_2   0.226972 0.148056 0.187766 -0.070904
C35   C     C_2   0.675688 0.724571 0.684811 -0.373319
C36   C     C_2   0.175687 0.275429 0.184811 -0.373314
H13   H     H_    0.720824 0.944236 0.636710 0.157092
H14   H     H_    0.220822 0.055760 0.136712 0.157092
H15   H     H_    0.678049 0.632369 0.734718 0.191665
H16   H     H_    0.178049 0.367632 0.234717 0.191667
C37   C     C_2   0.786213 0.900827 0.760741 0.209141
C38   C     C_2   0.286212 0.099172 0.260742 0.209139
C39   C     C_2   0.825577 0.767232 0.810636 -0.120204
C40   C     C_2   0.325576 0.232768 0.310636 -0.120202
N1    N     N_R   0.797865 0.098751 0.773782 0.259775
O21   O     O_R   0.742631 0.208499 0.747087 -0.332870
O22   O     O_R   0.860942 0.167991 0.783955 -0.355344
N2    N     N_R   0.297862 0.901248 0.273786 0.259773
O23   O     O_R   0.242627 0.791503 0.247094 -0.332874
O24   O     O_R   0.360937 0.832004 0.283959 -0.355342
N3    N     N_R   0.808593 0.573534 0.791391 0.268025
O25   O     O_R   0.814738 0.504849 0.725450 -0.332902
O26   O     O_R   0.795752 0.463439 0.844625 -0.336926
N4    N     N_R   0.308592 0.426466 0.291393 0.268025
O27   O     O_R   0.295750 0.536556 0.344627 -0.336933
O28   O     O_R   0.314732 0.495153 0.225450 -0.332903
N5    N     N_R   0.253319 0.410730 0.826779 0.211211
O29   O     O_R   0.269998 0.310862 0.891840 -0.412200
O30   O     O_R   0.261953 0.335404 0.763153 -0.446149
N6    N     N_R   0.753299 0.589286 0.326756 0.211191
O31   O     O_R   0.761915 0.664614 0.263121 -0.446193
O32   O     O_R   0.769985 0.689163 0.391815 -0.412214
C41   C     C_3   0.099564 0.120910 0.803530 -0.396534
C42   C     C_3   0.022472 0.103089 0.750544 -0.317056
C43   C     C_3   0.988280 0.299483 0.730903 -0.689933
H17   H     H_    0.986033 0.372096 0.785884 0.271242
H18   H     H_    0.019025 0.389148 0.701277 0.216791
H19   H     H_    0.933547 0.284094 0.689819 0.280421
H20   H     H_    0.021142 0.031110 0.694116 0.199970
H21   H     H_    0.991173 0.016109 0.780342 0.224442
H22   H     H_    0.103265 0.186646 0.861529 0.216482
H23   H     H_    0.126273 0.225135 0.774876 0.206043
C44   C     C_3   0.599556 0.879093 0.303527 -0.396527
C45   C     C_3   0.522464 0.896928 0.250542 -0.317071
C46   C     C_3   0.488268 0.700539 0.230894 -0.689915
H24   H     H_    0.519011 0.610880 0.201264 0.216795
H25   H     H_    0.486021 0.627913 0.285873 0.271240
H26   H     H_    0.433535 0.715938 0.189812 0.280419
H27   H     H_    0.491167 0.983902 0.280344 0.224440
H28   H     H_    0.521134 0.968918 0.194117 0.199974
H29   H     H_    0.626261 0.774865 0.274870 0.206056
H30   H     H_    0.603256 0.813350 0.361525 0.216481

loop_
_geom_bond_atom_site_label_1
_geom_bond_atom_site_label_2
_geom_bond_distance
_ccdc_geom_bond_type
C35   H15   1.084245 S    
N3    O25   1.301757 A    
C29   H11   1.082333 S    
N5    O29   1.301509 A    
C23   C25   1.411559 A    
C34   C38   1.495041 S    
O13   V3    1.714299 S    
C33   C37   1.495042 S    
C46   H24   1.111036 S    
C36   H16   1.084246 S    
V1    O19   1.735329 S    
C39   N3    1.417029 S    
N1    O21   1.301849 A    
C44   H29   1.110932 S    
C17   H7    1.082749 S    
C3    C26   1.505230 S    
C4    C25   1.505243 S    
O9    V1    2.010473 S    
C42   H20   1.112048 S    
C43   H17   1.110997 S    
C30   C32   1.401261 A    
N2    O24   1.298817 A    
C12   C14   1.401312 A    
O3    C1    1.316671 A    
C38   C40   1.358639 D    
C22   C32   1.415381 A    
O12   V4    2.029012 S    
C26   C28   1.428632 A    
C8    C14   1.474335 S    
C33   C35   1.340867 D    
O7    C3    1.311268 A    
C45   C46   1.528195 S    
C28   C30   1.407996 A    
O13   V1    2.192017 S    
O5    C7    1.304011 A    
O7    V1    1.996296 S    
O6    C8    1.304007 A    
O8    V2    1.996301 S    
N6    O32   1.301511 A    
C34   H14   1.087898 S    
C2    C39   1.499959 S    
O3    V1    2.004895 S    
O14   V4    1.714302 S    
V4    O20   2.162081 S    
C22   N6    1.439391 S    
C20   C32   1.497438 S    
O4    C2    1.316672 A    
C37   C39   1.358640 D    
C2    O12   1.306213 A    
C11   C13   1.401289 A    
C13   C15   1.402895 A    
C27   C41   1.518788 S    
C14   C16   1.402915 A    
C21   C31   1.415374 A    
N1    O22   1.298816 A    
C16   H6    1.083246 S    
C44   H30   1.107014 S    
O11   V3    2.029012 S    
C22   C24   1.408910 A    
C21   C23   1.408915 A    
O17   V3    1.995919 S    
C29   C31   1.401255 A    
C25   C27   1.428638 A    
C21   N5    1.439395 S    
C5    C35   1.467789 S    
N2    O23   1.301848 A    
O8    C4    1.311272 A    
C17   C19   1.408570 A    
C1    O11   1.306213 A    
O15   V3    2.037953 S    
C9    C11   1.400095 A    
C9    C19   1.408716 A    
C24   C26   1.411555 A    
C30   H12   1.082323 S    
C41   H23   1.110936 S    
C7    C13   1.474347 S    
N4    O28   1.301757 A    
C41   C42   1.531963 S    
C37   N1    1.415783 S    
V3    O19   2.162077 S    
N6    O31   1.301123 A    
O10   V2    2.010474 S    
O1    V3    1.991643 S    
C46   H25   1.110999 S    
C19   C31   1.497418 S    
C33   H13   1.087899 S    
C18   H8    1.082761 S    
C15   H5    1.083223 S    
O18   V4    1.995913 S    
C43   H19   1.109825 S    
C23   H9    1.082552 S    
O16   C6    1.302818 A    
O1    C3    1.316873 A    
C45   H28   1.112049 S    
O6    V2    1.990818 S    
C6    C36   1.467787 S    
V2    O20   1.735326 S    
O16   V4    2.037955 S    
C10   C12   1.400086 A    
O18   C8    1.305482 A    
C27   C29   1.408002 A    
O5    V1    1.990813 S    
C42   H21   1.110098 S    
O17   C7    1.305483 A    
C41   H22   1.107013 S    
O10   C6    1.303287 A    
C10   C20   1.408750 A    
O2    V4    1.991638 S    
O15   C5    1.302816 A    
C11   H3    1.083453 S    
C44   C45   1.531964 S    
C12   H4    1.083475 S    
N4    O27   1.301683 A    
N5    O30   1.301122 A    
C28   C44   1.518791 S    
O9    C5    1.303289 A    
C42   C43   1.528193 S    
C9    H1    1.082970 S    
C10   H2    1.082986 S    
C24   H10   1.082551 S    
C46   H26   1.109824 S    
O14   V2    2.192013 S    
C40   N4    1.417028 S    
O2    C4    1.316876 A    
O4    V2    2.004892 S    
C38   N2    1.415782 S    
C18   C20   1.408597 A    
C43   H18   1.111036 S    
N3    O26   1.301684 A    
C34   C36   1.340868 D    
C15   C17   1.402647 A    
C45   H27   1.110098 S    
C16   C18   1.402639 A    
C1    C40   1.499959 S    
