data_mof_unit_59667.cif
_audit_creation_date              2012-10-26T19:40:44-0400
_audit_creation_method            fapswitch 2.2
_symmetry_space_group_name_H-M    P1
_symmetry_Int_Tables_number       1
_space_group_crystal_system       triclinic
_cell_length_a                    9.72269
_cell_length_b                    10.924332
_cell_length_c                    13.433318
_cell_angle_alpha                 90.733876
_cell_angle_beta                  72.640486
_cell_angle_gamma                 89.560976
_cell_volume                      1361.60573981

loop_
_atom_site_label
_atom_site_type_symbol
_atom_type_description
_atom_site_fract_x
_atom_site_fract_y
_atom_site_fract_z
_atom_type_partial_charge
C1    C     C_R   0.498810 0.734601 0.500298 0.524644
C2    C     C_R   0.377681 0.507981 0.814376 0.023569
C3    C     C_2   0.405428 0.067032 0.470918 -0.087989
C4    C     C_R   0.422779 0.497644 0.699967 0.607233
C5    C     C_2   0.515353 0.134590 0.478899 -0.070016
C6    C     C_2   0.424680 0.934245 0.451517 0.015578
C7    C     C_2   0.489558 0.867699 0.510282 0.232830
C8    C     C_2   0.046766 0.543693 0.575753 -0.004806
C9    C     C_2   0.898025 0.564334 0.565857 0.120281
C10   C     C_R   0.502807 0.265615 0.495417 0.573532
C11   C     C_R   0.577341 0.499418 0.300038 0.537782
C12   C     C_R   0.451315 0.527944 0.972792 0.019047
C13   C     C_R   0.799939 0.442877 0.020950 0.269127
C14   C     C_R   0.622466 0.493847 0.185843 -0.066614
C15   C     C_R   0.251467 0.574539 0.862586 -0.153646
C16   C     C_R   0.228121 0.623930 0.961689 -0.100241
C17   C     C_R   0.331269 0.609076 0.014811 0.257161
C18   C     C_3   0.367399 0.875144 0.368237 -0.281223
C19   C     C_3   0.344614 0.964420 0.287524 -0.440486
C20   C     C_3   0.812844 0.663824 0.638586 -0.230325
C21   C     C_3   0.876737 0.789734 0.605952 -0.443692
C22   C     C_R   0.472936 0.475739 0.872033 -0.011699
C23   C     C_R   0.553515 0.499826 0.026055 -0.039460
C24   C     C_R   0.689710 0.447470 0.970998 0.024621
C25   C     C_R   0.706065 0.390617 0.873268 0.209467
C26   C     C_R   0.588820 0.392077 0.831355 0.236184
C27   C     C_R   0.519442 0.513154 0.134373 -0.094568
C28   C     C_R   0.764304 0.464718 0.128251 -0.088961
Cu1   Cu    Cu3+1 0.361370 0.499980 0.499980 0.940860
Cu2   Cu    Cu3+1 0.638630 0.500020 0.500020 0.956467
H1    H     H_    0.846955 0.454760 0.166794 0.157038
H2    H     H_    0.254525 0.029165 0.323850 0.144098
H3    H     H_    0.444716 0.016231 0.251852 0.165981
H4    H     H_    0.316593 0.912497 0.224816 0.175506
H5    H     H_    0.445664 0.804332 0.324309 0.166542
H6    H     H_    0.263413 0.829930 0.406569 0.170987
H7    H     H_    0.566242 0.861140 0.628623 0.319336
H8    H     H_    0.990113 0.793769 0.607699 0.147861
H9    H     H_    0.873024 0.810368 0.526014 0.177583
H10   H     H_    0.813313 0.860921 0.660679 0.154002
H11   H     H_    0.698922 0.668517 0.643424 0.203068
H12   H     H_    0.620822 0.092988 0.468252 0.153027
H13   H     H_    0.815482 0.645570 0.719249 0.105175
H14   H     H_    0.844471 0.323456 0.748682 0.329641
H15   H     H_    0.964719 0.455113 0.899411 0.349604
H16   H     H_    0.233294 0.732306 0.119327 0.318352
H17   H     H_    0.641134 0.235424 0.757632 0.343631
H18   H     H_    0.068716 0.576230 0.646097 0.140001
H19   H     H_    0.133605 0.481190 0.431435 0.208136
H20   H     H_    0.910395 0.431275 0.459667 0.196290
H21   H     H_    0.409312 0.529304 0.180834 0.205479
H22   H     H_    0.176682 0.598517 0.819984 0.120766
H23   H     H_    0.134372 0.682364 0.993665 0.113591
H24   H     H_    0.302535 0.109276 0.474520 0.139253
N1    N     N_2   0.152660 0.501340 0.501130 -0.359513
N2    N     N_2   0.846520 0.501370 0.501160 -0.335651
O1    O     O_R   0.382960 0.678040 0.499980 -0.514932
O2    O     O_3   0.830008 0.324220 0.824948 -0.685945
O3    O     O_3   0.942136 0.416536 0.968685 -0.652146
O4    O     O_3   0.322397 0.681313 0.101834 -0.735608
O5    O     O_3   0.580376 0.307949 0.755525 -0.668933
O6    O     O_R   0.617100 0.678080 0.500020 -0.517953
O7    O     O_R   0.325800 0.499940 0.650950 -0.500392
O8    O     O_R   0.559930 0.499980 0.650990 -0.474329
O9    O     O_R   0.382900 0.321920 0.499980 -0.485644
O10   O     O_R   0.617040 0.321960 0.500020 -0.477021
O11   O     O_R   0.440070 0.500020 0.349010 -0.509221
O12   O     O_R   0.674200 0.500060 0.349050 -0.500132
O13   O     O_3   0.534603 0.924525 0.587792 -0.722187

loop_
_geom_bond_atom_site_label_1
_geom_bond_atom_site_label_2
_ccdc_geom_bond_type
C12   C17   A    
C7    O13   S    
C2    C4    S    
C5    H12   S    
C8    H18   S    
C13   C28   A    
C2    C22   A    
C6    C7    D    
C13   O3    S    
Cu2   O8    S    
C14   C27   A    
C18   H5    S    
C4    O8    A    
C9    C20   S    
C21   H9    S    
C23   C24   A    
C3    C6    S    
C14   C28   A    
C1    O6    A    
C3    C5    D    
Cu1   O7    S    
C20   H11   S    
C24   C25   A    
C5    C10   S    
C9    N2    D    
Cu2   O10   S    
C15   H22   S    
C11   O12   A    
C2    C15   A    
C12   C23   A    
Cu1   Cu2   S    
C21   H10   S    
C18   H6    S    
Cu1   O9    S    
C19   H2    S    
C8    N1    D    
C4    O7    A    
C11   C14   S    
C26   O5    S    
C11   O11   A    
H7    O13   S    
C23   C27   A    
C10   O10   A    
Cu2   O6    S    
C19   H3    S    
C6    C18   S    
C3    H24   S    
Cu2   O12   S    
C16   C17   A    
C25   O2    S    
Cu1   O1    S    
C17   O4    S    
C15   C16   A    
C12   C22   A    
H17   O5    S    
C20   H13   S    
C20   C21   S    
C18   C19   S    
C22   C26   A    
C10   O9    A    
C16   H23   S    
H15   O3    S    
Cu1   O11   S    
Cu1   N1    S    
H16   O4    S    
C25   C26   A    
C1    C7    S    
Cu2   N2    S    
C19   H4    S    
C28   H1    S    
H20   N2    S    
C21   H8    S    
C13   C24   A    
H14   O2    S    
C8    C9    S    
C27   H21   S    
H19   N1    S    
C1    O1    A    
