data_mof_unit_9240.cif
_audit_creation_date              2012-12-10T16:50:54-0500
_audit_creation_method            fapswitch 2.2
_symmetry_space_group_name_H-M    P1
_symmetry_Int_Tables_number       1
_space_group_crystal_system       triclinic
_cell_length_a                    7.943238
_cell_length_b                    8.550166
_cell_length_c                    10.424227
_cell_angle_alpha                 91.909526
_cell_angle_beta                  86.808009
_cell_angle_gamma                 93.291529
_cell_volume                      705.385004919

loop_
_atom_site_label
_atom_site_type_symbol
_atom_type_description
_atom_site_fract_x
_atom_site_fract_y
_atom_site_fract_z
_atom_type_partial_charge
Br1   Br    Br    0.994751 0.245795 0.438290 -0.499491
Br2   Br    Br    0.971811 0.715663 0.629403 -0.414025
C1    C     C_R   0.544752 0.793732 0.497027 0.987773
C2    C     C_R   0.898365 0.256880 0.058785 -0.098421
C3    C     C_R   0.009674 0.391993 0.060843 -0.116883
C4    C     C_R   0.903849 0.251349 0.922101 -0.139386
C5    C     C_R   0.156970 0.392978 0.129705 -0.201017
C6    C     C_R   0.758042 0.280742 0.858271 -0.181814
C7    C     C_R   0.318509 0.400746 0.066359 0.087547
C8    C     C_R   0.622725 0.349645 0.926023 0.082705
C9    C     C_R   0.327065 0.389137 0.931729 0.089233
C10   C     C_R   0.614045 0.347587 0.061086 0.075487
C11   C     C_R   0.472641 0.406910 0.129729 -0.224811
C12   C     C_R   0.455192 0.206175 0.503009 0.897120
C13   C     C_R   0.484787 0.401595 0.864808 -0.239628
C14   C     C_2   0.567902 0.957528 0.495681 -0.380535
C15   C     C_2   0.431874 0.042423 0.505103 -0.347382
C16   C     C_R   0.497077 0.468962 0.736347 0.868622
C17   C     C_R   0.491401 0.471425 0.261610 0.856865
C18   C     C_R   0.178923 0.356465 0.866712 -0.169854
C19   C     C_R   0.740673 0.274982 0.122563 -0.178617
C20   C     C_R   0.022182 0.378705 0.927143 -0.110417
H1    H     H_    0.954827 0.144929 0.879022 0.172345
H2    H     H_    0.753317 0.250200 0.756836 0.186249
H3    H     H_    0.947608 0.496532 0.097081 0.181455
H4    H     H_    0.182404 0.309318 0.768755 0.187776
H5    H     H_    0.720812 0.236840 0.220608 0.187490
H6    H     H_    0.981479 0.483578 0.883389 0.200401
H7    H     H_    0.953696 0.157150 0.099631 0.175185
H8    H     H_    0.696729 0.007579 0.486808 0.226526
H9    H     H_    0.302930 0.992279 0.514211 0.224530
H10   H     H_    0.139877 0.385756 0.231526 0.218618
N1    N     N_2   0.950330 0.457950 0.466250 0.057246
N2    N     N_2   0.049670 0.542050 0.533750 0.080490
O1    O     O_R   0.389250 0.738570 0.508280 -0.586807
O2    O     O_R   0.610750 0.261430 0.491720 -0.610818
O3    O     O_R   0.678390 0.711630 0.486650 -0.569449
O4    O     O_R   0.321610 0.288370 0.513350 -0.600245
O5    O     O_R   0.355430 0.513480 0.694040 -0.604180
O6    O     O_R   0.644570 0.486520 0.305960 -0.612800
O7    O     O_R   0.644570 0.486540 0.672410 -0.587946
O8    O     O_R   0.355430 0.513460 0.327590 -0.619374
Zn1   Zn    Zn3+2 0.306940 0.517990 0.514440 1.025346
Zn2   Zn    Zn3+2 0.693060 0.482010 0.485560 1.024891

loop_
_geom_bond_atom_site_label_1
_geom_bond_atom_site_label_2
_ccdc_geom_bond_type
C13   C16   S    
C4    C6    A    
C16   O5    A    
C12   O4    A    
O1    Zn1   S    
C2    H7    S    
C17   O8    A    
C1    O1    A    
Br2   N2    S    
O3    Zn2   S    
N1    N2    D    
C19   H5    S    
Br1   N1    S    
O4    Zn1   S    
C20   H6    S    
C2    C19   A    
C7    C9    A    
C12   C15   S    
C8    C10   A    
C3    H3    S    
C4    H1    S    
C2    C4    A    
C6    H2    S    
C18   C20   A    
C3    C5    A    
C8    C13   A    
C12   O2    A    
C15   H9    S    
O7    Zn2   S    
C9    C18   A    
O2    Zn2   S    
C17   O6    A    
C1    C14   S    
C14   H8    S    
C4    C20   A    
O6    Zn2   S    
C10   C11   A    
C1    O3    A    
C6    C8    A    
O8    Zn1   S    
C16   O7    A    
C5    C7    A    
C7    C11   A    
C2    C3    A    
C11   C17   S    
O5    Zn1   S    
C5    H10   S    
N2    Zn1   S    
N1    Zn2   S    
C9    C13   A    
C10   C19   A    
C3    C20   A    
C14   C15   D    
C18   H4    S    
