data_mof_unit_26449.cif
_audit_creation_date              2012-12-10T19:14:25-0500
_audit_creation_method            fapswitch 2.2
_symmetry_space_group_name_H-M    P1
_symmetry_Int_Tables_number       1
_space_group_crystal_system       triclinic
_cell_length_a                    10.635844
_cell_length_b                    9.684381
_cell_length_c                    19.103156
_cell_angle_alpha                 90.061163
_cell_angle_beta                  89.47555
_cell_angle_gamma                 90.183751
_cell_volume                      1967.5613674

loop_
_atom_site_label
_atom_site_type_symbol
_atom_type_description
_atom_site_fract_x
_atom_site_fract_y
_atom_site_fract_z
_atom_type_partial_charge
C1    C     C_R   0.257723 0.500090 0.499328 0.857189
C2    C     C_R   0.587451 0.484194 0.070296 0.281713
C3    C     C_R   0.630507 0.585758 0.812823 -0.202794
C4    C     C_R   0.489023 0.390088 0.823166 -0.196022
C5    C     C_R   0.607731 0.592663 0.741295 -0.011000
C6    C     C_R   0.463370 0.396520 0.752181 -0.011384
C7    C     C_R   0.522186 0.498688 0.710394 -0.143938
C8    C     C_R   0.571717 0.484576 0.853712 0.046949
C9    C     C_3   0.069688 0.447124 0.571662 -0.056619
C10   C     C_3   0.071416 0.399419 0.440830 0.009338
C11   C     C_3   0.924456 0.440967 0.568051 -0.402606
C12   C     C_3   0.927893 0.414512 0.435235 -0.438158
C13   C     C_3   0.071411 0.650420 0.487041 -0.390079
C14   C     C_3   0.121406 0.500717 0.499094 0.104652
C15   C     C_3   0.878537 0.501508 0.497767 0.109478
C16   C     C_R   0.501810 0.499818 0.365169 0.862658
C17   C     C_3   0.928838 0.651328 0.489902 -0.411379
C18   C     C_3   0.423849 0.081021 0.440225 -0.241111
C19   C     C_3   0.423477 0.918207 0.440373 -0.232036
C20   C     C_3   0.628777 0.081704 0.490597 -0.235431
C21   C     C_3   0.628718 0.919162 0.490315 -0.235784
C22   C     C_3   0.446167 0.081087 0.564412 -0.216163
C23   C     C_3   0.446561 0.918653 0.564573 -0.228383
C24   C     C_R   0.742489 0.500478 0.498295 0.871372
C25   C     C_R   0.503067 0.499947 0.634708 0.871633
C26   C     C_R   0.547168 0.619989 0.253299 -0.211861
C27   C     C_R   0.512341 0.372148 0.253512 -0.205113
C28   C     C_R   0.573311 0.615333 0.181964 -0.164045
C29   C     C_R   0.538364 0.367465 0.182427 -0.165618
C30   C     C_R   0.569157 0.488896 0.146093 0.091611
C31   C     C_R   0.517294 0.498177 0.289441 -0.028667
C32   C     C_R   0.589686 0.481572 0.929123 0.305581
H1    H     H_    0.552467 0.718286 0.280237 0.142284
H2    H     H_    0.489614 0.276718 0.280363 0.140315
H3    H     H_    0.897246 0.715814 0.535044 0.189000
H4    H     H_    0.892286 0.699584 0.441265 0.166828
H5    H     H_    0.461750 0.118505 0.389246 0.143770
H6    H     H_    0.460614 0.880182 0.389319 0.145682
H7    H     H_    0.325646 0.119655 0.444156 0.136356
H8    H     H_    0.325124 0.879503 0.444727 0.140758
H9    H     H_    0.672406 0.120673 0.441251 0.142432
H10   H     H_    0.671768 0.880848 0.440701 0.138132
H11   H     H_    0.501132 0.119094 0.609781 0.167770
H12   H     H_    0.502086 0.881785 0.609833 0.171070
H13   H     H_    0.348362 0.119019 0.571767 0.159630
H14   H     H_    0.349170 0.879137 0.572686 0.142543
H15   H     H_    0.688768 0.119655 0.534022 0.150015
H16   H     H_    0.689191 0.881247 0.533330 0.164916
H17   H     H_    0.595653 0.710701 0.154981 0.148140
H18   H     H_    0.533688 0.268593 0.156033 0.148154
H19   H     H_    0.695710 0.657990 0.836497 0.155011
H20   H     H_    0.441849 0.312663 0.855001 0.157596
H21   H     H_    0.104560 0.339767 0.579268 0.151559
H22   H     H_    0.086928 0.292832 0.461038 0.104954
H23   H     H_    0.893061 0.331611 0.573273 0.155776
H24   H     H_    0.884209 0.309820 0.435074 0.150445
H25   H     H_    0.879732 0.499439 0.611739 0.184874
H26   H     H_    0.901110 0.465027 0.385312 0.182331
H27   H     H_    0.107733 0.723294 0.527097 0.163098
H28   H     H_    0.103714 0.693906 0.436554 0.183232
N1    N     N_R   0.562789 0.366110 0.034840 -0.181081
N2    N     N_R   0.617665 0.600020 0.033915 -0.179720
N3    N     N_R   0.563647 0.364853 0.965484 -0.176606
N4    N     N_R   0.618901 0.598714 0.964392 -0.172864
N5    N     N_3   0.499750 0.138610 0.498490 -0.036612
N6    N     N_3   0.499750 0.861390 0.498490 -0.034272
O1    O     O_R   0.314910 0.616040 0.499990 -0.635182
O2    O     O_R   0.314910 0.383960 0.499990 -0.642628
O3    O     O_R   0.500100 0.616080 0.398110 -0.629644
O4    O     O_R   0.500100 0.383920 0.398110 -0.630571
O5    O     O_R   0.685320 0.616040 0.499960 -0.628959
O6    O     O_R   0.685320 0.383960 0.499960 -0.635582
O7    O     O_R   0.500130 0.616000 0.601840 -0.616112
O8    O     O_R   0.500130 0.384000 0.601840 -0.612686
Zn1   Zn    Zn3+2 0.500150 0.654960 0.499970 0.907746
Zn2   Zn    Zn3+2 0.500150 0.345040 0.499970 0.905533
C33   C     C_1   0.679262 0.691901 0.700655 0.155151
N7    N     N_1   0.737011 0.771129 0.668290 -0.249160
C34   C     C_1   0.375330 0.297173 0.724370 0.162247
N8    N     N_1   0.305041 0.216764 0.702683 -0.250791
C35   C     C_3   0.115189 0.532034 0.635950 -0.381666
C36   C     C_3   0.076130 0.466770 0.705901 -0.847151
H29   H     H_    0.975405 0.486478 0.717631 0.253536
H30   H     H_    0.091843 0.353694 0.705337 0.271533
H31   H     H_    0.132354 0.512940 0.748734 0.253206
H32   H     H_    0.219413 0.539002 0.634975 0.200950
H33   H     H_    0.077443 0.638686 0.634763 0.218090
C37   C     C_3   0.138858 0.396311 0.368044 -0.406948
C38   C     C_3   0.150912 0.533836 0.329485 -0.860353
H34   H     H_    0.059801 0.589086 0.328055 0.255155
H35   H     H_    0.224359 0.599149 0.353880 0.248431
H36   H     H_    0.181549 0.514020 0.274668 0.251861
H37   H     H_    0.234544 0.352272 0.373581 0.210580
H38   H     H_    0.086980 0.323279 0.333747 0.203915

loop_
_geom_bond_atom_site_label_1
_geom_bond_atom_site_label_2
_ccdc_geom_bond_type
C21   N6    S    
C27   C29   A    
O6    Zn2   S    
C35   C36   S    
C13   H28   S    
C33   N7    T    
C18   N5    S    
C10   C37   S    
N5    Zn2   S    
O8    Zn2   S    
C4    H20   S    
C23   N6    S    
C18   H5    S    
C25   O8    A    
C1    O2    A    
C19   N6    S    
C18   C19   S    
N1    N3    A    
N2    N4    A    
C11   C15   S    
C17   H4    S    
C38   H35   S    
C35   H32   S    
C2    N1    A    
C4    C8    A    
C21   H16   S    
C12   H26   S    
C26   C31   A    
C23   H14   S    
C13   C14   S    
O7    Zn1   S    
C20   H9    S    
C29   H18   S    
C27   H2    S    
C37   H38   S    
C27   C31   A    
C8    C32   S    
C20   N5    S    
C16   O4    A    
C32   N4    A    
C4    C6    A    
C3    C8    A    
C10   C14   S    
C5    C7    A    
C9    C14   S    
C3    H19   S    
C23   H12   S    
C34   N8    T    
C16   C31   S    
C18   H7    S    
C22   N5    S    
C29   C30   A    
C19   H6    S    
C28   H17   S    
C26   H1    S    
C22   H11   S    
C12   C15   S    
C35   H33   S    
C20   C21   S    
C38   H36   S    
C9    C11   S    
C12   H24   S    
C10   C12   S    
C15   C24   S    
C36   H30   S    
O4    Zn2   S    
O1    Zn1   S    
C5    C33   S    
C11   H23   S    
C24   O6    A    
C15   C17   S    
C37   H37   S    
C16   O3    A    
C32   N3    A    
C3    C5    A    
C6    C7    A    
C13   H27   S    
O2    Zn2   S    
C36   H31   S    
C26   C28   A    
C7    C25   S    
C13   C17   S    
C2    C30   S    
C28   C30   A    
O5    Zn1   S    
C6    C34   S    
N6    Zn1   S    
C1    O1    A    
O3    Zn1   S    
C25   O7    A    
C10   H22   S    
C20   H15   S    
C19   H8    S    
C21   H10   S    
C22   H13   S    
C9    H21   S    
C37   C38   S    
C36   H29   S    
C22   C23   S    
C1    C14   S    
C17   H3    S    
C38   H34   S    
C11   H25   S    
C2    N2    A    
C24   O5    A    
C9    C35   S    
