data_mof_unit_10848.cif
_audit_creation_date              2012-12-11T14:33:45-0500
_audit_creation_method            fapswitch 2.2
_symmetry_space_group_name_H-M    P1
_symmetry_Int_Tables_number       1
_space_group_crystal_system       triclinic
_cell_length_a                    13.860694
_cell_length_b                    13.987988
_cell_length_c                    27.302286
_cell_angle_alpha                 89.960639
_cell_angle_beta                  90.104159
_cell_angle_gamma                 119.625732
_cell_volume                      4601.44995223

loop_
_atom_site_label
_atom_site_type_symbol
_atom_type_description
_atom_site_fract_x
_atom_site_fract_y
_atom_site_fract_z
_atom_type_partial_charge
C1    C     C_R   0.233535 0.787560 0.568543 0.555887
C2    C     C_1   0.710745 0.864220 0.859449 -0.072455
C3    C     C_1   0.111237 0.880243 0.852339 -0.071876
C4    C     C_1   0.115609 0.233380 0.852383 -0.072221
C5    C     C_1   0.637273 0.817837 0.657534 -0.027552
C6    C     C_1   0.173762 0.821297 0.655235 -0.022307
C7    C     C_1   0.175918 0.354352 0.655422 -0.024598
C8    C     C_1   0.606660 0.798439 0.615581 0.034248
C9    C     C_1   0.197254 0.807952 0.614367 0.038813
C10   C     C_1   0.191106 0.390176 0.614427 0.036137
C11   C     C_R   0.064853 0.150340 0.095957 0.578499
C12   C     C_R   0.212147 0.445708 0.568509 0.556802
C13   C     C_R   0.777548 0.884066 0.088363 0.548092
C14   C     C_R   0.116488 0.893667 0.088123 0.561056
C15   C     C_R   0.069721 0.161072 0.943158 0.538473
C16   C     C_R   0.779923 0.887233 0.950660 0.542792
C17   C     C_R   0.090549 0.929706 0.943380 0.536501
C18   C     C_R   0.618771 0.895790 0.361605 -0.132769
C19   C     C_R   0.097012 0.732727 0.362970 -0.134454
C20   C     C_R   0.264128 0.357364 0.363902 -0.135227
C21   C     C_R   0.645137 0.911415 0.311958 0.014046
C22   C     C_R   0.080418 0.744222 0.313280 0.014160
C23   C     C_R   0.553990 0.765821 0.568672 0.553683
C24   C     C_R   0.241123 0.306372 0.317824 0.013799
C25   C     C_R   0.681312 0.929175 0.210401 0.017025
C26   C     C_R   0.060623 0.760074 0.211557 0.016902
C27   C     C_R   0.200506 0.225485 0.221080 0.017005
C28   C     C_R   0.232464 0.788361 0.431862 0.542237
C29   C     C_R   0.211674 0.444492 0.431403 0.544620
C30   C     C_R   0.555613 0.767224 0.431942 0.543299
C31   C     C_R   0.653756 0.000819 0.234520 -0.137981
C32   C     C_R   0.977484 0.671068 0.237621 -0.127738
C33   C     C_R   0.302782 0.256317 0.243700 -0.123859
C34   C     C_3   0.697241 0.752577 0.787040 -0.223659
C35   C     C_R   0.635478 0.991846 0.285044 -0.131012
C36   C     C_R   0.987956 0.662477 0.288150 -0.128898
C37   C     C_R   0.323083 0.296782 0.291692 -0.128784
C38   C     C_R   0.704173 0.939506 0.160109 -0.150082
C39   C     C_R   0.050805 0.771153 0.161145 -0.135181
C40   C     C_R   0.182734 0.194812 0.171575 -0.128586
C41   C     C_R   0.728915 0.864790 0.137093 -0.002917
C42   C     C_R   0.135427 0.861286 0.136221 -0.004776
C43   C     C_R   0.082724 0.172325 0.148660 -0.008996
C44   C     C_R   0.659241 0.745245 0.364262 -0.131347
C45   C     C_3   0.232473 0.960660 0.780809 -0.225540
C46   C     C_R   0.265598 0.911011 0.362090 -0.128344
C47   C     C_R   0.076141 0.327791 0.368109 -0.130339
C48   C     C_R   0.683420 0.758085 0.314699 0.013314
C49   C     C_R   0.253886 0.920652 0.312348 0.013713
C50   C     C_R   0.052618 0.278690 0.322055 0.011586
C51   C     C_R   0.673850 0.839753 0.288113 0.063947
C52   C     C_R   0.162090 0.836107 0.287519 0.063333
C53   C     C_R   0.136010 0.270003 0.296251 0.062594
C54   C     C_R   0.708616 0.684881 0.290697 -0.126866
C55   C     C_R   0.337115 0.009761 0.286601 -0.127213
C56   C     C_3   0.026575 0.259730 0.778940 -0.226055
C57   C     C_R   0.949212 0.244812 0.300136 -0.129204
C58   C     C_R   0.720433 0.689893 0.240186 -0.127072
C59   C     C_R   0.331412 0.013413 0.235965 -0.129500
C60   C     C_R   0.930257 0.207573 0.251929 -0.122444
C61   C     C_R   0.710387 0.770169 0.213603 0.010883
C62   C     C_R   0.240490 0.930060 0.210990 0.014190
C63   C     C_R   0.013321 0.201285 0.225455 0.016615
C64   C     C_3   0.553276 0.821164 0.737646 -0.014114
C65   C     C_3   0.157362 0.742742 0.739123 -0.014081
C66   C     C_3   0.246980 0.420198 0.739830 -0.015522
C67   C     C_3   0.682151 0.742621 0.730700 -0.241842
C68   C     C_R   0.688997 0.846809 0.237392 0.065284
C69   C     C_R   0.154168 0.842061 0.236689 0.063855
C70   C     C_R   0.116007 0.230411 0.247853 0.062082
C71   C     C_R   0.724779 0.776649 0.163575 -0.122766
C72   C     C_R   0.232693 0.935981 0.160782 -0.132349
C73   C     C_R   0.997177 0.171540 0.176223 -0.129265
C74   C     C_R   0.618919 0.808102 0.386834 -0.002547
C75   C     C_R   0.193234 0.813262 0.386533 -0.002939
C76   C     C_R   0.183159 0.372368 0.388212 -0.004195
C77   C     C_3   0.760872 0.945468 0.723132 -0.215823
C78   C     C_3   0.246570 0.947519 0.725534 -0.241293
C79   C     C_3   0.041902 0.832009 0.714640 -0.215420
C80   C     C_3   0.174632 0.220036 0.715813 -0.214558
C81   C     C_3   0.777841 0.957686 0.779494 -0.211031
C82   C     C_3   0.024170 0.844633 0.769848 -0.211156
C83   C     C_3   0.163894 0.191975 0.771113 -0.212979
C84   C     C_1   0.736415 0.873967 0.902052 -0.022245
C85   C     C_1   0.101687 0.901360 0.894174 -0.018444
C86   C     C_1   0.096930 0.201649 0.894109 -0.020937
C87   C     C_3   0.658436 0.832811 0.710684 0.043979
C88   C     C_3   0.153788 0.834222 0.707112 0.044736
C89   C     C_3   0.043045 0.292669 0.724154 -0.241148
C90   C     C_3   0.161468 0.322417 0.707334 0.043916
C91   C     C_3   0.573495 0.835960 0.794011 -0.219310
C92   C     C_3   0.137182 0.757073 0.794217 -0.216873
C93   C     C_3   0.229097 0.387614 0.795141 -0.215218
C94   C     C_3   0.689781 0.852876 0.806383 0.047817
C95   C     C_3   0.125546 0.860802 0.800641 0.046415
C96   C     C_3   0.133545 0.267683 0.800767 0.047002
C97   C     C_2   0.515305 0.897820 0.717152 0.534174
C98   C     C_2   0.078149 0.627543 0.721015 0.543547
C99   C     C_2   0.365680 0.461006 0.723851 0.535071
Cr1   Cr    Cr6+3 0.164410 0.584450 0.499910 1.035703
Cr2   Cr    Cr6+3 0.415550 0.579960 0.499910 1.036502
Cr3   Cr    Cr6+3 0.420040 0.835590 0.499910 1.033990
Cr4   Cr    Cr6+3 0.155170 0.075460 0.019960 1.019798
Cr5   Cr    Cr6+3 0.924540 0.079710 0.019960 1.009534
Cr6   Cr    Cr6+3 0.920290 0.844830 0.019960 1.011797
H1    H     H_    0.566400 0.906866 0.808110 0.157242
H2    H     H_    0.778877 0.761131 0.796938 0.118920
H3    H     H_    0.229707 0.037195 0.787142 0.115817
H4    H     H_    0.956799 0.174481 0.782633 0.114661
H5    H     H_    0.706328 0.006742 0.139446 0.105265
H6    H     H_    0.975803 0.713448 0.141954 0.114602
H7    H     H_    0.247945 0.192743 0.150541 0.122337
H8    H     H_    0.588993 0.945676 0.379266 0.127568
H9    H     H_    0.039712 0.658072 0.382117 0.123232
H10   H     H_    0.346571 0.390599 0.379439 0.124749
H11   H     H_    0.646335 0.063619 0.214346 0.098661
H12   H     H_    0.061603 0.684027 0.808626 0.158811
H13   H     H_    0.905424 0.607402 0.218830 0.098750
H14   H     H_    0.368357 0.252695 0.223725 0.100887
H15   H     H_    0.612551 0.046833 0.302951 0.099824
H16   H     H_    0.924439 0.591596 0.307461 0.100846
H17   H     H_    0.403957 0.323603 0.307827 0.102057
H18   H     H_    0.742012 0.717216 0.145928 0.129859
H19   H     H_    0.298708 0.005134 0.141436 0.123932
H20   H     H_    0.919070 0.151436 0.158734 0.118064
H21   H     H_    0.737557 0.631195 0.221893 0.098705
H22   H     H_    0.397467 0.081822 0.216383 0.094764
H23   H     H_    0.305802 0.396504 0.812503 0.161085
H24   H     H_    0.852281 0.187801 0.234720 0.110748
H25   H     H_    0.715614 0.621668 0.310753 0.101332
H26   H     H_    0.408300 0.074628 0.305438 0.097252
H27   H     H_    0.884653 0.251488 0.319546 0.103257
H28   H     H_    0.661491 0.679052 0.384016 0.128053
H29   H     H_    0.338440 0.975103 0.380385 0.131217
H30   H     H_    0.012523 0.337246 0.386919 0.130234
H31   H     H_    0.836373 0.951808 0.705698 0.096328
H32   H     H_    0.041867 0.900457 0.693822 0.096941
H33   H     H_    0.109448 0.148607 0.695137 0.098758
H34   H     H_    0.484345 0.735739 0.731487 0.152469
H35   H     H_    0.751188 0.014134 0.708206 0.167257
H36   H     H_    0.971692 0.754621 0.700138 0.166719
H37   H     H_    0.255972 0.234192 0.701897 0.161210
H38   H     H_    0.771433 0.029974 0.792086 0.140288
H39   H     H_    0.948594 0.769519 0.782599 0.138705
H40   H     H_    0.244398 0.203132 0.784797 0.147414
H41   H     H_    0.862643 0.973221 0.788719 0.099500
H42   H     H_    0.009370 0.915018 0.775102 0.096977
H43   H     H_    0.099372 0.104704 0.776462 0.099102
H44   H     H_    0.613177 0.659552 0.721273 0.170269
H45   H     H_    0.242765 0.754517 0.736288 0.143564
H46   H     H_    0.329556 0.956264 0.719086 0.167440
H47   H     H_    0.029208 0.363724 0.718582 0.168443
H48   H     H_    0.758506 0.750554 0.713444 0.118593
H49   H     H_    0.243988 0.014941 0.704911 0.118035
H50   H     H_    0.979736 0.223381 0.701796 0.116952
H51   H     H_    0.632211 0.675841 0.804623 0.136008
H52   H     H_    0.306093 0.969014 0.801032 0.134266
H53   H     H_    0.003686 0.314255 0.799535 0.133601
H54   H     H_    0.538337 0.051776 0.712865 0.332834
H55   H     H_    0.920666 0.502584 0.715570 0.336285
H56   H     H_    0.230555 0.489972 0.735116 0.149106
H57   H     H_    0.501409 0.443070 0.726041 0.333914
H58   H     H_    0.508795 0.761557 0.813191 0.093877
H59   H     H_    0.208227 0.765141 0.816476 0.095881
H60   H     H_    0.208060 0.444038 0.815302 0.098977
O1    O     O_R   0.137150 0.468200 0.553200 -0.501770
O2    O     O_R   0.140110 0.470540 0.446010 -0.524616
O3    O     O_R   0.529460 0.669570 0.446010 -0.524507
O4    O     O_R   0.330430 0.859890 0.446010 -0.527291
O5    O     O_R   0.176710 0.690910 0.450560 -0.506089
O6    O     O_R   0.309090 0.485800 0.450560 -0.505305
O7    O     O_R   0.514200 0.823290 0.450560 -0.508220
O8    O     O_3   0.333333 0.666667 0.499990 -0.265822
O9    O     O_R   0.176750 0.985260 0.074180 -0.529753
O10   O     O_R   0.014740 0.191490 0.074180 -0.493662
O11   O     O_R   0.808510 0.823250 0.074180 -0.517077
O12   O     O_R   0.531800 0.668950 0.553200 -0.501217
O13   O     O_R   0.146100 0.172630 0.068980 -0.478813
O14   O     O_R   0.827370 0.973470 0.068980 -0.517818
O15   O     O_R   0.026530 0.853900 0.068980 -0.489078
O16   O     O_3   1.000000 0.000000 0.020040 -0.288501
O17   O     O_R   0.148270 0.170520 0.969620 -0.489030
O18   O     O_R   0.829480 0.977750 0.969620 -0.519264
O19   O     O_R   0.022250 0.851730 0.969620 -0.480849
O20   O     O_2   0.436920 0.861866 0.688684 -0.538594
O21   O     O_R   0.570688 0.009336 0.729720 -0.729838
O22   O     O_2   0.114479 0.576738 0.698436 -0.544159
O23   O     O_R   0.331050 0.862850 0.553200 -0.497179
O24   O     O_R   0.964137 0.579554 0.729622 -0.727386
O25   O     O_2   0.409830 0.538796 0.695641 -0.543739
O26   O     O_R   0.423508 0.408414 0.739889 -0.728967
O27   O     O_R   0.179100 0.982980 0.967000 -0.501946
O28   O     O_R   0.017020 0.196120 0.967000 -0.481282
O29   O     O_R   0.803880 0.820900 0.967000 -0.509491
O30   O     O_R   0.173970 0.688730 0.549930 -0.490590
O31   O     O_R   0.311270 0.485240 0.549930 -0.488076
O32   O     O_R   0.514760 0.826030 0.549930 -0.486065

loop_
_geom_bond_atom_site_label_1
_geom_bond_atom_site_label_2
_ccdc_geom_bond_type
C25   C31   A    
C13   O11   A    
C26   C32   A    
C47   C76   A    
C55   C59   A    
C65   C92   S    
C18   C21   A    
C56   H4    S    
C57   H27   S    
Cr2   O8    S    
C46   H29   S    
C17   O19   A    
C77   H35   S    
C6    C9    T    
C13   C41   S    
C82   H42   S    
C16   O18   A    
C40   H7    S    
C29   C76   S    
C27   C33   A    
Cr3   O8    S    
C97   O20   D    
C46   C49   A    
C81   H38   S    
C60   C63   A    
C17   C85   S    
C34   H2    S    
C32   C36   A    
H54   O21   S    
C71   H18   S    
C1    O30   A    
H55   O24   S    
C80   C83   S    
C12   O1    A    
C30   C74   S    
C73   H20   S    
C26   C39   A    
C89   H50   S    
Cr5   O14   S    
C67   H44   S    
C59   H22   S    
Cr4   O17   S    
C15   O17   A    
C16   C84   S    
C8    C23   S    
C6    C88   S    
C20   C76   A    
Cr1   O1    S    
C7    C10   T    
C65   H45   S    
C39   C42   A    
C79   C88   S    
C56   H53   S    
C52   C69   A    
C4    C96   S    
C2    C84   T    
C43   C73   A    
C89   H47   S    
C20   C24   A    
Cr6   O11   S    
Cr5   O28   S    
C11   C43   S    
C45   C78   S    
C77   H31   S    
C38   H5    S    
C64   C87   S    
Cr2   O31   S    
C14   C42   S    
C92   H59   S    
C58   C61   A    
C39   H6    S    
Cr5   O16   S    
C93   H60   S    
C18   C74   A    
Cr4   O27   S    
C83   H40   S    
C72   H19   S    
C12   O31   A    
C91   H1    S    
C91   H58   S    
C35   H15   S    
Cr6   O29   S    
C25   C68   A    
C98   O24   S    
C53   C70   A    
C18   H8    S    
H57   O26   S    
C78   H46   S    
C47   C50   A    
C79   C82   S    
C40   C43   A    
C17   O27   A    
Cr3   O7    S    
C97   O21   S    
C54   H25   S    
C77   C87   S    
C48   C51   A    
C50   C53   A    
Cr1   O5    S    
C2    C94   S    
C19   C22   A    
C1    C9    S    
C38   C41   A    
C82   H39   S    
Cr3   O32   S    
C78   H49   S    
C57   C60   A    
C63   C73   A    
C19   H9    S    
C24   C53   A    
C13   O14   A    
C7    C90   S    
Cr4   O9    S    
C33   C37   A    
C37   H17   S    
C66   H56   S    
C67   C87   S    
C15   O28   A    
C66   C99   S    
C34   C67   S    
Cr2   O3    S    
C48   C54   A    
C92   H12   S    
C98   O22   D    
C25   C38   A    
C99   O25   D    
C63   C70   A    
C77   C81   S    
C27   C40   A    
C49   C52   A    
C42   C72   A    
C24   C37   A    
C45   H52   S    
C11   O13   A    
C29   O6    A    
C44   C74   A    
C30   O7    A    
C27   C70   A    
C10   C12   S    
C15   C86   S    
C28   O5    A    
C56   C89   S    
C1    O23   A    
C33   H14   S    
C93   C96   S    
C55   H26   S    
C66   C93   S    
C31   C35   A    
C3    C85   T    
C5    C8    T    
Cr6   O15   S    
C45   C95   S    
C31   H11   S    
C21   C51   A    
C65   C88   S    
C22   C52   A    
C54   C58   A    
Cr1   O30   S    
C78   C88   S    
C44   H28   S    
C56   C96   S    
C64   C97   S    
C59   C62   A    
C82   C95   S    
C47   H30   S    
Cr4   O16   S    
C50   C57   A    
C11   O10   A    
C34   C94   S    
C32   H13   S    
C60   H24   S    
C65   C98   S    
C20   H10   S    
C45   H3    S    
C58   H21   S    
C21   C35   A    
C34   H51   S    
C22   C36   A    
C23   O32   A    
C80   H37   S    
C41   C71   A    
C67   H48   S    
Cr4   O13   S    
C29   O2    A    
C19   C75   A    
C36   H16   S    
C93   H23   S    
C30   O3    A    
C14   O9    A    
C49   C55   A    
C91   C94   S    
C99   O26   S    
C81   C94   S    
C61   C68   A    
C61   C71   A    
C79   H36   S    
Cr3   O4    S    
C80   H33   S    
C83   C96   S    
Cr1   O2    S    
C66   C90   S    
Cr5   O10   S    
Cr2   O6    S    
C51   C68   A    
C92   C95   S    
Cr6   O19   S    
C80   C90   S    
Cr3   O23   S    
C23   O12   A    
C16   O29   A    
C83   H43   S    
C5    C87   S    
C28   O4    A    
C62   C72   A    
Cr5   O18   S    
C4    C86   T    
C62   C69   A    
C81   H41   S    
Cr1   O8    S    
C46   C75   A    
C3    C95   S    
C26   C69   A    
C64   C91   S    
Cr6   O16   S    
C89   C90   S    
C28   C75   S    
C79   H32   S    
Cr2   O12   S    
C14   O15   A    
C44   C48   A    
C64   H34   S    
