data_mof_unit_44226.cif
_audit_creation_date              2012-12-10T17:43:39-0500
_audit_creation_method            fapswitch 2.2
_symmetry_space_group_name_H-M    P1
_symmetry_Int_Tables_number       1
_space_group_crystal_system       triclinic
_cell_length_a                    14.95661
_cell_length_b                    10.547915
_cell_length_c                    9.953853
_cell_angle_alpha                 91.2859
_cell_angle_beta                  89.150912
_cell_angle_gamma                 92.467681
_cell_volume                      1568.32813561

loop_
_atom_site_label
_atom_site_type_symbol
_atom_type_description
_atom_site_fract_x
_atom_site_fract_y
_atom_site_fract_z
_atom_type_partial_charge
C1    C     C_R   0.515453 0.263249 0.499223 0.907231
C2    C     C_R   0.181209 0.409818 0.571282 0.398711
C3    C     C_R   0.230964 0.502506 0.500268 -0.279950
C4    C     C_R   0.326989 0.500622 0.500467 1.083422
C5    C     C_R   0.189704 0.594332 0.425095 0.381499
C6    C     C_R   0.613980 0.143567 0.723636 -0.316233
C7    C     C_R   0.645704 0.080979 0.836262 0.596151
C8    C     C_R   0.645512 0.948964 0.832738 -0.199144
C9    C     C_R   0.611262 0.879570 0.723156 -0.271842
C10   C     C_R   0.573276 0.940667 0.614219 0.112652
C11   C     C_R   0.575599 0.074422 0.613687 0.062552
C12   C     C_R   0.909189 0.593204 0.422518 0.129213
C13   C     C_R   0.544178 0.133845 0.497938 -0.126417
C14   C     C_R   0.537278 0.065327 0.377609 -0.208482
C15   C     C_R   0.529390 0.936065 0.379432 -0.195130
C16   C     C_R   0.511151 0.740078 0.501003 0.887831
C17   C     C_R   0.537118 0.873720 0.500821 -0.117855
C18   C     C_R   0.357303 0.373230 0.136167 0.041744
C19   C     C_R   0.276285 0.357400 0.068639 -0.321650
C20   C     C_R   0.279068 0.347809 0.929612 -0.171244
C21   C     C_R   0.359150 0.376399 0.861232 -0.074576
C22   C     C_R   0.430246 0.440156 0.927823 0.125939
C23   C     C_R   0.945318 0.343025 0.672448 -0.231054
C24   C     C_R   0.429739 0.439875 0.071624 0.055812
C25   C     C_R   0.566790 0.558592 0.071414 -0.122899
C26   C     C_R   0.566786 0.558467 0.928593 -0.132990
C27   C     C_R   0.672783 0.501192 0.499303 0.848028
C28   C     C_R   0.816473 0.587888 0.417942 -0.271201
C29   C     C_R   0.768039 0.502812 0.499047 -0.045168
C30   C     C_R   0.810102 0.423007 0.585470 -0.267419
C31   C     C_R   0.902504 0.424262 0.588043 0.126310
C32   C     C_R   0.952635 0.508759 0.505253 0.122926
C33   C     C_3   0.643461 0.255902 0.982179 -0.276050
C34   C     C_R   0.037898 0.340784 0.670364 -0.172541
C35   C     C_2   0.375301 0.255444 0.203289 0.975359
C36   C     C_3   0.204642 0.195442 0.563717 -0.275569
C37   C     C_3   0.247451 0.663053 0.222159 -0.250716
C38   C     C_R   0.088579 0.418678 0.582474 0.004093
C39   C     C_R   0.045962 0.507992 0.504464 -0.086081
C40   C     C_R   0.096181 0.596228 0.425641 0.005669
C41   C     C_R   0.051798 0.685302 0.350770 -0.159537
C42   C     C_R   0.958930 0.681890 0.346981 -0.240118
H1    H     H_    0.781840 0.651436 0.354269 0.145439
H2    H     H_    0.770731 0.358698 0.648783 0.148204
H3    H     H_    0.621874 0.605438 0.875489 0.138097
H4    H     H_    0.907212 0.280538 0.739092 0.161708
H5    H     H_    0.069368 0.278775 0.738800 0.167356
H6    H     H_    0.088222 0.756753 0.293111 0.177410
H7    H     H_    0.926021 0.749032 0.285650 0.150295
H8    H     H_    0.531527 0.111218 0.283239 0.229564
H9    H     H_    0.569204 0.244485 0.976779 0.189783
H10   H     H_    0.669206 0.335596 0.919524 0.160962
H11   H     H_    0.659986 0.280895 0.088057 0.201425
H12   H     H_    0.625214 0.244975 0.719051 0.169809
H13   H     H_    0.345399 0.136996 0.354086 0.328402
H14   H     H_    0.184347 0.204567 0.457121 0.191064
H15   H     H_    0.151346 0.141015 0.618840 0.157985
H16   H     H_    0.264957 0.137971 0.564885 0.201949
H17   H     H_    0.202008 0.583879 0.184394 0.145048
H18   H     H_    0.317374 0.641724 0.194621 0.210583
H19   H     H_    0.231290 0.749876 0.168203 0.168975
H20   H     H_    0.674368 0.899420 0.914670 0.154847
H21   H     H_    0.620239 0.778788 0.722443 0.181482
H22   H     H_    0.512788 0.886144 0.286176 0.191043
H23   H     H_    0.621515 0.606360 0.124653 0.144461
H24   H     H_    0.217408 0.317752 0.120040 0.169113
H25   H     H_    0.221665 0.306585 0.877509 0.204266
H26   H     H_    0.365952 0.343358 0.759611 0.238565
N1    N     N_R   0.499150 0.498800 0.142780 -0.132009
N2    N     N_R   0.499120 0.498720 0.857170 -0.123275
O1    O     O_R   0.500000 0.316780 0.614690 -0.643832
O2    O     O_2   0.420931 0.177741 0.144695 -0.684526
O3    O     O_R   0.330977 0.224587 0.323027 -0.830423
O4    O     O_3   0.224918 0.312737 0.630540 -0.647354
O5    O     O_3   0.241522 0.688607 0.362213 -0.609026
O6    O     O_R   0.499990 0.316750 0.385360 -0.614703
O7    O     O_R   0.367850 0.499980 0.614680 -0.623439
O8    O     O_R   0.367840 0.499960 0.385350 -0.608362
O9    O     O_R   0.500010 0.683250 0.614640 -0.618257
O10   O     O_R   0.500000 0.683220 0.385310 -0.618550
O11   O     O_R   0.632160 0.500040 0.614650 -0.651219
O12   O     O_R   0.632150 0.500020 0.385320 -0.634009
O13   O     O_3   0.686427 0.143598 0.945175 -0.625066
Zn1   Zn    Zn3+2 0.500010 0.500020 0.653130 0.932706
Zn2   Zn    Zn3+2 0.499990 0.499980 0.346870 0.952230

loop_
_geom_bond_atom_site_label_1
_geom_bond_atom_site_label_2
_ccdc_geom_bond_type
C7    O13   S    
C27   C29   S    
C41   C42   A    
C20   H25   S    
C19   C20   A    
C7    C8    A    
C14   H8    S    
C33   H10   S    
C29   C30   A    
C12   C28   A    
C18   C24   A    
C28   C29   A    
C36   H16   S    
O9    Zn1   S    
C10   C17   A    
C19   H24   S    
C18   C19   A    
C32   C39   A    
C12   C42   A    
C26   H3    S    
C8    C9    A    
C15   H22   S    
N2    Zn1   S    
C18   C35   S    
C2    O4    S    
C37   O5    S    
C23   H4    S    
C34   C38   A    
C13   C14   A    
C12   C32   A    
C30   H2    S    
C6    H12   S    
C24   N1    A    
C33   H11   S    
C38   C39   A    
C27   O11   A    
C25   H23   S    
C36   H15   S    
C6    C11   A    
C16   C17   S    
O7    Zn1   S    
C25   C26   A    
C16   O10   A    
C23   C31   A    
C5    O5    S    
C4    O8    A    
O10   Zn2   S    
C36   H14   S    
C2    C38   A    
C31   C32   A    
C23   C34   A    
C1    O1    A    
C33   O13   S    
C37   H17   S    
C36   O4    S    
O8    Zn2   S    
C40   C41   A    
C35   O2    D    
C21   H26   S    
C26   N2    A    
C22   C24   A    
C1    C13   S    
C3    C4    S    
C39   C40   A    
O11   Zn1   S    
N1    Zn2   S    
O1    Zn1   S    
C9    C10   A    
C15   C17   A    
C35   O3    S    
C9    H21   S    
C1    O6    A    
C27   O12   A    
C3    C5    A    
C37   H19   S    
C6    C7    A    
C33   H9    S    
O12   Zn2   S    
C28   H1    S    
C16   O9    A    
C2    C3    A    
C4    O7    A    
C11   C13   A    
C30   C31   A    
C41   H6    S    
C37   H18   S    
C10   C11   A    
C42   H7    S    
H13   O3    S    
C25   N1    A    
C20   C21   A    
C5    C40   A    
C14   C15   A    
C34   H5    S    
C21   C22   A    
O6    Zn2   S    
C22   N2    A    
C8    H20   S    
