data_mof_unit_51139.cif
_audit_creation_date              2012-12-10T18:27:20-0500
_audit_creation_method            fapswitch 2.2
_symmetry_space_group_name_H-M    P1
_symmetry_Int_Tables_number       1
_space_group_crystal_system       triclinic
_cell_length_a                    15.014594
_cell_length_b                    13.981156
_cell_length_c                    27.661594
_cell_angle_alpha                 90.087004
_cell_angle_beta                  89.991954
_cell_angle_gamma                 89.999647
_cell_volume                      5806.75326072

loop_
_atom_site_label
_atom_site_type_symbol
_atom_type_description
_atom_site_fract_x
_atom_site_fract_y
_atom_site_fract_z
_atom_type_partial_charge
C1    C     C_R   0.326415 0.500001 0.500070 0.903354
C2    C     C_R   0.673585 0.500000 0.499929 0.903435
C3    C     C_R   0.493663 0.519545 0.101106 -0.063191
C4    C     C_R   0.495026 0.522148 0.898880 -0.061540
C5    C     C_R   0.413967 0.531081 0.127058 -0.046116
C6    C     C_R   0.573790 0.540508 0.873118 -0.043832
C7    C     C_R   0.335656 0.555490 0.102588 -0.185371
C8    C     C_R   0.650067 0.570835 0.897831 -0.186839
C9    C     C_R   0.573555 0.499136 0.125722 -0.007352
C10   C     C_R   0.416873 0.495851 0.874020 -0.007758
C11   C     C_R   0.499453 0.500407 0.353060 -0.091061
C12   C     C_R   0.497744 0.501393 0.646929 -0.099431
C13   C     C_R   0.413145 0.519204 0.975069 0.044259
C14   C     C_R   0.575285 0.525075 0.024903 0.044389
C15   C     C_R   0.575350 0.544209 0.974766 0.008849
C16   C     C_R   0.411776 0.536813 0.025394 0.008946
C17   C     C_R   0.494489 0.529122 0.949603 0.038611
C18   C     C_R   0.493529 0.527674 0.050439 0.039069
C19   C     C_R   0.338156 0.484862 0.950032 -0.216406
C20   C     C_R   0.652536 0.496207 0.049619 -0.216049
C21   C     C_R   0.339440 0.474765 0.900054 -0.152070
C22   C     C_R   0.652132 0.484839 0.099502 -0.153018
C23   C     C_R   0.500050 0.499983 0.405866 0.896514
C24   C     C_R   0.499539 0.500178 0.594127 0.896345
C25   C     C_R   0.333861 0.562905 0.052031 0.077901
C26   C     C_R   0.651196 0.577310 0.948427 0.078100
C27   C     C_R   0.815224 0.587135 0.499827 -0.254699
C28   C     C_R   0.184776 0.412870 0.500150 -0.254516
C29   C     C_R   0.769452 0.500001 0.499836 -0.078076
C30   C     C_R   0.230548 0.500003 0.500155 -0.077724
C31   C     C_R   0.815226 0.412868 0.499802 -0.255165
C32   C     C_R   0.184775 0.587137 0.500195 -0.254243
C33   C     C_R   0.907345 0.412217 0.499864 0.118297
C34   C     C_R   0.092656 0.587789 0.500121 0.118242
C35   C     C_R   0.953669 0.500003 0.499933 0.062862
C36   C     C_R   0.046331 0.500003 0.500046 0.062818
C37   C     C_R   0.907344 0.587788 0.499895 0.118174
C38   C     C_R   0.092656 0.412218 0.500081 0.118305
C39   C     C_R   0.953736 0.325371 0.499898 -0.214200
C40   C     C_R   0.046265 0.674635 0.500085 -0.213669
C41   C     C_R   0.046268 0.325372 0.500011 -0.213947
C42   C     C_R   0.953733 0.674634 0.499964 -0.213911
C43   C     C_R   0.544828 0.797934 0.464574 -0.064181
C44   C     C_R   0.455291 0.202066 0.535479 -0.067088
C45   C     C_R   0.455356 0.798128 0.535508 -0.065708
C46   C     C_R   0.544823 0.201848 0.464573 -0.067422
C47   C     C_R   0.415714 0.522857 0.177435 0.483414
C48   C     C_R   0.572953 0.532554 0.822724 0.484541
C49   C     C_R   0.454504 0.898842 0.536469 0.016482
C50   C     C_R   0.545825 0.101132 0.463684 0.016061
C51   C     C_R   0.545835 0.898637 0.463688 0.016020
C52   C     C_R   0.454449 0.101350 0.536445 0.015850
C53   C     C_R   0.500157 0.949353 0.500075 0.085812
C54   C     C_R   0.500144 0.050628 0.500069 0.086133
C55   C     C_R   0.409340 0.949969 0.572747 -0.209274
C56   C     C_R   0.591179 0.049999 0.427483 -0.208074
C57   C     C_R   0.591184 0.949551 0.427484 -0.208264
C58   C     C_R   0.409283 0.050426 0.572722 -0.207122
C59   C     C_R   0.572253 0.491904 0.176064 0.495492
C60   C     C_R   0.418920 0.489495 0.823627 0.485698
C61   C     C_R   0.508670 0.588969 0.277862 0.126911
C62   C     C_R   0.479977 0.590969 0.721851 0.127671
C63   C     C_R   0.510254 0.586717 0.328205 -0.248423
C64   C     C_R   0.481332 0.587459 0.671293 -0.220849
C65   C     C_R   0.487170 0.415118 0.327370 -0.253235
C66   C     C_R   0.512405 0.417291 0.672961 -0.254370
C67   C     C_R   0.485065 0.415218 0.276914 0.129004
C68   C     C_R   0.511611 0.418223 0.723376 0.136889
C69   C     C_R   0.495444 0.502789 0.252154 0.280547
C70   C     C_R   0.495838 0.505518 0.747711 0.262143
H1    H     H_    0.478169 0.348255 0.346543 0.163664
H2    H     H_    0.525664 0.350807 0.654077 0.163643
H3    H     H_    0.779362 0.345520 0.499764 0.163786
H4    H     H_    0.220640 0.654484 0.500243 0.163902
H5    H     H_    0.918503 0.257712 0.499846 0.147602
H6    H     H_    0.081499 0.742294 0.500140 0.147702
H7    H     H_    0.081502 0.257713 0.500036 0.147622
H8    H     H_    0.918498 0.742293 0.499936 0.147690
H9    H     H_    0.579745 0.757492 0.437064 0.128949
H10   H     H_    0.420362 0.242514 0.562980 0.133128
H11   H     H_    0.420472 0.757838 0.563026 0.127408
H12   H     H_    0.579736 0.242127 0.437064 0.132328
H13   H     H_    0.374097 0.912301 0.601111 0.140060
H14   H     H_    0.626585 0.087657 0.399182 0.140641
H15   H     H_    0.626593 0.911721 0.399183 0.140579
H16   H     H_    0.373963 0.088253 0.601055 0.140445
H17   H     H_    0.276154 0.572163 0.123114 0.185388
H18   H     H_    0.708282 0.592716 0.877497 0.185384
H19   H     H_    0.469377 0.651306 0.650350 0.153552
H20   H     H_    0.519926 0.652950 0.347943 0.160658
H21   H     H_    0.279966 0.449244 0.882011 0.186670
H22   H     H_    0.713302 0.463833 0.117325 0.186078
H23   H     H_    0.280286 0.459045 0.968987 0.145760
H24   H     H_    0.712002 0.475670 0.030429 0.145653
H25   H     H_    0.779358 0.654483 0.499810 0.163898
H26   H     H_    0.220640 0.345522 0.500162 0.163788
N1    N     N_R   0.494208 0.504429 0.200612 -0.357110
N2    N     N_R   0.496110 0.508187 0.799290 -0.358225
N3    N     N_R   0.500000 0.750030 0.500000 -0.102240
N4    N     N_R   0.500000 0.249970 0.500000 -0.103157
O1    O     O_R   0.367850 0.580280 0.500010 -0.624905
O2    O     O_R   0.632150 0.419720 0.499990 -0.625027
O3    O     O_R   0.632150 0.580280 0.499990 -0.624754
O4    O     O_R   0.367850 0.419720 0.500010 -0.625013
O5    O     O_R   0.500010 0.580260 0.428760 -0.627122
O6    O     O_R   0.499990 0.419740 0.571240 -0.626844
O7    O     O_R   0.499990 0.580260 0.571240 -0.628057
O8    O     O_R   0.500010 0.419740 0.428760 -0.627930
O9    O     O_2   0.340139 0.534151 0.203249 -0.566612
O10   O     O_2   0.647859 0.549578 0.797154 -0.568809
O11   O     O_2   0.344514 0.465854 0.798990 -0.582629
O12   O     O_2   0.648182 0.473522 0.200448 -0.592988
Zn1   Zn    Zn3+2 0.500000 0.607200 0.500000 0.948387
Zn2   Zn    Zn3+2 0.500000 0.392800 0.500000 0.947404
C71   C     C_3   0.470499 0.321445 0.250616 -0.406676
C72   C     C_3   0.553048 0.257199 0.254193 -0.334428
C73   C     C_3   0.539072 0.163083 0.227239 -0.880333
H27   H     H_    0.481711 0.123493 0.242801 0.262228
H28   H     H_    0.526506 0.176803 0.188285 0.266458
H29   H     H_    0.599654 0.118028 0.230614 0.251704
H30   H     H_    0.611479 0.294645 0.238408 0.263836
H31   H     H_    0.567843 0.241096 0.292706 0.214749
H32   H     H_    0.412113 0.284408 0.266765 0.203451
H33   H     H_    0.454471 0.333121 0.211902 0.210610
C74   C     C_3   0.529450 0.325713 0.750117 -0.404577
C75   C     C_3   0.450833 0.256309 0.745041 -0.334283
C76   C     C_3   0.468409 0.163105 0.772053 -0.880825
H34   H     H_    0.528579 0.127152 0.757326 0.263675
H35   H     H_    0.478160 0.177429 0.811210 0.266987
H36   H     H_    0.410551 0.114386 0.767658 0.251959
H37   H     H_    0.389566 0.289930 0.759881 0.264202
H38   H     H_    0.439135 0.239405 0.706278 0.214431
H39   H     H_    0.590780 0.292279 0.735165 0.203133
H40   H     H_    0.542244 0.338628 0.789101 0.210035
C77   C     C_3   0.462097 0.683452 0.749596 -0.398975
C78   C     C_3   0.444529 0.772831 0.718658 -0.372909
C79   C     C_3   0.427664 0.860550 0.750299 -0.868089
H41   H     H_    0.368419 0.848958 0.773623 0.264077
H42   H     H_    0.486547 0.875473 0.773424 0.265194
H43   H     H_    0.415257 0.923792 0.727002 0.248543
H44   H     H_    0.503245 0.787662 0.695348 0.230245
H45   H     H_    0.385032 0.761054 0.695474 0.222479
H46   H     H_    0.403337 0.671867 0.773336 0.214994
H47   H     H_    0.520456 0.698420 0.773122 0.220750
C80   C     C_3   0.520926 0.684233 0.252692 -0.413170
C81   C     C_3   0.618186 0.717209 0.255438 -0.337243
C82   C     C_3   0.631218 0.812439 0.229498 -0.881717
H48   H     H_    0.613508 0.805346 0.190662 0.265117
H49   H     H_    0.589072 0.868683 0.246328 0.261171
H50   H     H_    0.702052 0.834618 0.232212 0.253444
H51   H     H_    0.638603 0.725744 0.293832 0.216356
H52   H     H_    0.661929 0.662635 0.238353 0.260409
H53   H     H_    0.500590 0.680644 0.214185 0.208992
H54   H     H_    0.477055 0.738302 0.270138 0.204167
C83   C     C_3   0.254269 0.614787 0.029880 -0.416367
C84   C     C_3   0.282854 0.706957 0.003997 -0.322710
C85   C     C_3   0.202445 0.761419 0.984523 -0.877080
H55   H     H_    0.165403 0.716538 0.958146 0.264935
H56   H     H_    0.157218 0.782030 0.014568 0.261130
H57   H     H_    0.225237 0.827409 0.965974 0.250983
H58   H     H_    0.319572 0.753786 0.029692 0.222093
H59   H     H_    0.327665 0.690191 0.973218 0.232704
H60   H     H_    0.214834 0.568917 0.005511 0.195332
H61   H     H_    0.206329 0.635538 0.058718 0.197631
C86   C     C_3   0.726769 0.635090 0.971075 -0.415900
C87   C     C_3   0.691571 0.723871 0.997720 -0.323196
C88   C     C_3   0.767762 0.784201 0.017849 -0.877534
H62   H     H_    0.807752 0.741732 0.043910 0.264762
H63   H     H_    0.811543 0.809332 0.988090 0.261511
H64   H     H_    0.740239 0.847576 0.036931 0.250744
H65   H     H_    0.651737 0.768288 0.972371 0.222035
H66   H     H_    0.647948 0.702580 0.028257 0.232433
H67   H     H_    0.769371 0.591985 0.995098 0.195357
H68   H     H_    0.773071 0.660568 0.942453 0.197674

loop_
_geom_bond_atom_site_label_1
_geom_bond_atom_site_label_2
_ccdc_geom_bond_type
C74   H40   S    
C66   C68   A    
C26   C86   S    
C87   H66   S    
C85   H55   S    
C25   C83   S    
O1    Zn1   S    
C14   C18   A    
C9    C59   A    
C27   H25   S    
C35   C36   A    
O3    Zn1   S    
C80   C81   S    
C77   C78   S    
C39   C41   A    
C53   C54   A    
C72   C73   S    
C79   H42   S    
C86   C87   S    
C72   H31   S    
O6    Zn2   S    
C2    C29   S    
C34   C40   A    
C75   H37   S    
O5    Zn1   S    
C84   C85   S    
C82   H49   S    
C43   N3    A    
C60   N2    A    
C73   H28   S    
C41   H7    S    
C12   C64   A    
C9    C22   A    
C31   H3    S    
C27   C29   A    
C2    O2    A    
C43   H9    S    
C71   C72   S    
C23   O5    A    
C8    C26   A    
C56   C57   A    
C62   C70   A    
C3    C18   A    
O8    Zn2   S    
C37   C42   A    
C61   C63   A    
C61   C80   S    
O7    Zn1   S    
C78   H45   S    
C46   H12   S    
C66   H2    S    
C82   H48   S    
C65   H1    S    
C65   C67   A    
C62   C64   A    
C31   C33   A    
C51   C57   A    
C28   C38   A    
C19   H23   S    
C80   H53   S    
C44   C52   A    
C40   C42   A    
C84   H59   S    
C87   H65   S    
C85   H56   S    
C88   H63   S    
C64   H19   S    
C58   H16   S    
C52   C54   A    
C46   C50   A    
C56   H14   S    
C88   H64   S    
C10   C21   A    
C79   H43   S    
C7    H17   S    
C71   H32   S    
C72   H30   S    
C13   C19   A    
C14   C20   A    
C44   H10   S    
C82   H50   S    
N4    Zn2   S    
C38   C41   A    
C4    C6    A    
C45   N3    A    
C73   H29   S    
C88   H62   S    
C5    C7    A    
C15   C26   A    
C6    C8    A    
C83   H60   S    
C86   H68   S    
C47   O9    S    
C20   H24   S    
C12   C66   A    
C50   C56   A    
C40   H6    S    
C67   C69   A    
C32   C34   A    
C62   C77   S    
C10   C60   A    
C76   H35   S    
C78   H44   S    
O2    Zn2   S    
C5    C47   A    
C45   C49   A    
C29   C31   A    
C59   O12   S    
C24   O7    A    
C33   C39   A    
C3    C9    A    
C1    O4    A    
C6    C48   A    
C52   C58   A    
C81   H52   S    
C80   H54   S    
C16   C18   A    
C77   H47   S    
C20   C22   A    
C84   H58   S    
C42   H8    S    
C85   H57   S    
C39   H5    S    
C74   C75   S    
C59   N1    A    
O4    Zn2   S    
C13   C16   A    
C24   O6    A    
C4    C17   A    
C55   H13   S    
C76   H34   S    
C1    O1    A    
C81   C82   S    
C21   H21   S    
C74   H39   S    
C16   C25   A    
C15   C17   A    
C46   N4    A    
C32   H4    S    
C71   H33   S    
C35   C37   A    
C45   H11   S    
C11   C23   S    
C78   C79   S    
C3    C5    A    
C47   N1    A    
N3    Zn1   S    
C83   H61   S    
C48   N2    A    
C79   H41   S    
C12   C24   S    
C11   C63   A    
C7    C25   A    
C13   C17   A    
C28   H26   S    
C61   C69   A    
C28   C30   A    
C76   H36   S    
C50   C54   A    
C60   O11   S    
C49   C55   A    
C73   H27   S    
C36   C38   A    
C30   C32   A    
C44   N4    A    
C43   C51   A    
C87   C88   S    
C2    O3    A    
C27   C37   A    
C75   C76   S    
C49   C53   A    
C23   O8    A    
C63   H20   S    
C77   H46   S    
C1    C30   S    
C33   C35   A    
C57   H15   S    
C34   C36   A    
C67   C71   S    
C75   H38   S    
C51   C53   A    
C81   H51   S    
C11   C65   A    
C68   C70   A    
C55   C58   A    
C83   C84   S    
C22   H22   S    
C14   C15   A    
C8    H18   S    
C48   O10   S    
C86   H67   S    
C4    C10   A    
C68   C74   S    
C70   N2    S    
C19   C21   A    
C69   N1    S    
