data_mof_unit_17877.cif
_audit_creation_date              2012-12-10T17:58:55-0500
_audit_creation_method            fapswitch 2.2
_symmetry_space_group_name_H-M    P1
_symmetry_Int_Tables_number       1
_space_group_crystal_system       triclinic
_cell_length_a                    9.606754
_cell_length_b                    10.858568
_cell_length_c                    13.863958
_cell_angle_alpha                 91.596824
_cell_angle_beta                  86.283959
_cell_angle_gamma                 91.362166
_cell_volume                      1442.27604158

loop_
_atom_site_label
_atom_site_type_symbol
_atom_type_description
_atom_site_fract_x
_atom_site_fract_y
_atom_site_fract_z
_atom_type_partial_charge
C1    C     C_R   0.501196 0.737365 0.496003 0.787724
C2    C     C_R   0.498803 0.262635 0.503998 0.787726
C3    C     C_R   0.498252 0.128555 0.507293 -0.080118
C4    C     C_R   0.501742 0.871446 0.492713 -0.080118
C5    C     C_R   0.478751 0.500828 0.682659 0.816901
C6    C     C_R   0.521249 0.499173 0.317341 0.816902
C7    C     C_R   0.924385 0.562334 0.571144 0.100165
C8    C     C_R   0.075615 0.437665 0.428857 0.100170
C9    C     C_R   0.071873 0.561978 0.569936 -0.058844
C10   C     C_R   0.928128 0.438022 0.430065 -0.058839
C11   C     C_1   0.531969 0.492991 0.214489 -0.173244
C12   C     C_1   0.468031 0.507011 0.785511 -0.173238
C13   C     C_2   0.549584 0.475973 0.024591 -0.182527
C14   C     C_2   0.450414 0.524031 0.975410 -0.182530
C15   C     C_1   0.458884 0.514375 0.872128 -0.004978
C16   C     C_1   0.541115 0.485628 0.127872 -0.004983
C17   C     C_R   0.610812 0.937288 0.533100 -0.252096
C18   C     C_R   0.389182 0.062713 0.466906 -0.252093
C19   C     C_R   0.609904 0.064823 0.542647 0.006708
C20   C     C_R   0.390087 0.935178 0.457362 0.006714
Cu1   Cu    Cu3+1 0.359340 0.499980 0.500000 0.957035
Cu2   Cu    Cu3+1 0.640660 0.500020 0.500000 0.957036
H1    H     H_    0.125783 0.612083 0.625531 0.140466
H2    H     H_    0.874218 0.387916 0.374469 0.140467
H3    H     H_    0.363149 0.571555 0.012328 0.145047
H4    H     H_    0.636849 0.428450 0.987673 0.145049
H5    H     H_    0.694332 0.888938 0.561231 0.161534
H6    H     H_    0.305669 0.111065 0.438765 0.161539
N1    N     N_R   0.147930 0.499970 0.499980 -0.178434
N2    N     N_R   0.852070 0.500030 0.500020 -0.178435
O1    O     O_R   0.381260 0.680340 0.500000 -0.569153
O2    O     O_R   0.618740 0.319660 0.500000 -0.569154
O3    O     O_R   0.618830 0.680370 0.500010 -0.583958
O4    O     O_R   0.381170 0.319630 0.499990 -0.583958
O5    O     O_R   0.364420 0.499960 0.637840 -0.587438
O6    O     O_R   0.635580 0.500040 0.362160 -0.587436
O7    O     O_R   0.601990 0.499990 0.637850 -0.566036
O8    O     O_R   0.398010 0.500010 0.362150 -0.566043
C21   C     C_R   0.857289 0.634052 0.652279 0.161977
C22   C     C_R   0.825866 0.578200 0.741463 -0.130788
C23   C     C_R   0.785612 0.649317 0.823743 -0.147564
C24   C     C_R   0.781454 0.777366 0.818573 -0.106161
C25   C     C_R   0.821813 0.834368 0.731864 -0.154010
C26   C     C_R   0.862650 0.763004 0.649780 -0.186719
H7    H     H_    0.834245 0.479930 0.747387 0.130653
H8    H     H_    0.760125 0.605344 0.891851 0.135639
H9    H     H_    0.750928 0.832510 0.882339 0.126532
H10   H     H_    0.824529 0.933827 0.728825 0.154711
H11   H     H_    0.902497 0.808219 0.584872 0.113678
C27   C     C_R   0.142711 0.365941 0.347723 0.161980
C28   C     C_R   0.137329 0.236987 0.350220 -0.186743
C29   C     C_R   0.178140 0.165619 0.268133 -0.154012
C30   C     C_R   0.218512 0.222618 0.181425 -0.106156
C31   C     C_R   0.214387 0.350671 0.176257 -0.147571
C32   C     C_R   0.174147 0.421793 0.258538 -0.130787
H12   H     H_    0.097481 0.191771 0.415128 0.113685
H13   H     H_    0.175395 0.066157 0.271170 0.154714
H14   H     H_    0.249021 0.167468 0.117657 0.126530
H15   H     H_    0.239884 0.394643 0.108150 0.135643
H16   H     H_    0.165794 0.520067 0.252617 0.130665
C33   C     C_R   0.720941 0.125895 0.597003 0.141244
C34   C     C_R   0.861406 0.118299 0.562742 -0.172487
C35   C     C_R   0.966638 0.169686 0.617383 -0.141230
C36   C     C_R   0.932366 0.227181 0.706915 -0.120152
C37   C     C_R   0.792836 0.233577 0.741888 -0.160581
C38   C     C_R   0.687221 0.184242 0.686816 -0.119574
H17   H     H_    0.889022 0.072203 0.494140 0.117796
H18   H     H_    0.074841 0.163839 0.590948 0.130439
H19   H     H_    0.013931 0.266290 0.749401 0.125251
H20   H     H_    0.766416 0.276879 0.811740 0.118671
H21   H     H_    0.579572 0.189236 0.714906 0.103915
C39   C     C_R   0.279059 0.874105 0.402994 0.141234
C40   C     C_R   0.312799 0.815759 0.313183 -0.119563
C41   C     C_R   0.207197 0.766409 0.258103 -0.160573
C42   C     C_R   0.067662 0.772791 0.293067 -0.120171
C43   C     C_R   0.033371 0.830285 0.382597 -0.141227
C44   C     C_R   0.138589 0.881687 0.437246 -0.172485
H22   H     H_    0.420452 0.810771 0.285103 0.103911
H23   H     H_    0.233632 0.723105 0.188255 0.118669
H24   H     H_    0.986107 0.733671 0.250574 0.125248
H25   H     H_    0.925166 0.836117 0.409027 0.130446
H26   H     H_    0.110959 0.927779 0.505847 0.117794

loop_
_geom_bond_atom_site_label_1
_geom_bond_atom_site_label_2
_ccdc_geom_bond_type
C26   H11   S    
C5    O7    A    
C40   C41   A    
C42   C43   A    
C1    O3    A    
C30   C31   A    
Cu1   O1    S    
C34   C35   A    
Cu2   O2    S    
C34   H17   S    
C8    N1    A    
C37   H20   S    
C1    O1    A    
C3    C18   A    
C2    O2    A    
C28   H12   S    
C23   C24   A    
C35   H18   S    
C33   C38   A    
Cu1   O8    S    
C23   H8    S    
C6    O8    A    
C3    C19   A    
C13   C14   D    
C25   H10   S    
C9    N1    A    
C2    O4    A    
C7    N2    A    
C32   H16   S    
C31   H15   S    
C22   H7    S    
C41   C42   A    
C28   C29   A    
C17   H5    S    
C18   H6    S    
C43   C44   A    
C5    C12   S    
C21   C22   A    
C9    H1    S    
Cu1   O4    S    
C10   H2    S    
Cu2   O7    S    
Cu1   N1    S    
C25   C26   A    
C39   C44   A    
C11   C16   T    
C10   N2    A    
C38   H21   S    
C12   C15   T    
C40   H22   S    
C27   C28   A    
C36   H19   S    
C4    C17   A    
C22   C23   A    
C41   H23   S    
C13   H4    S    
C24   C25   A    
C8    C27   S    
C6    C11   S    
C29   C30   A    
C42   H24   S    
C7    C9    A    
Cu2   O3    S    
C31   C32   A    
Cu2   N2    S    
C39   C40   A    
C43   H25   S    
C30   H14   S    
C21   C26   A    
Cu1   O5    S    
Cu2   O6    S    
C27   C32   A    
C1    C4    S    
C36   C37   A    
C2    C3    S    
C44   H26   S    
C19   C33   S    
C5    O5    A    
C17   C19   A    
C6    O6    A    
C18   C20   A    
C24   H9    S    
C14   H3    S    
C33   C34   A    
C29   H13   S    
C35   C36   A    
C4    C20   A    
C8    C10   A    
C37   C38   A    
C13   C16   S    
C7    C21   S    
C14   C15   S    
C20   C39   S    
Cu1   Cu2   S    
