data_mof_unit_50608.cif
_audit_creation_date              2012-12-10T17:32:14-0500
_audit_creation_method            fapswitch 2.2
_symmetry_space_group_name_H-M    P1
_symmetry_Int_Tables_number       1
_space_group_crystal_system       triclinic
_cell_length_a                    12.307818
_cell_length_b                    13.054301
_cell_length_c                    15.062834
_cell_angle_alpha                 77.294845
_cell_angle_beta                  101.177779
_cell_angle_gamma                 116.328746
_cell_volume                      2103.10177395

loop_
_atom_site_label
_atom_site_type_symbol
_atom_type_description
_atom_site_fract_x
_atom_site_fract_y
_atom_site_fract_z
_atom_type_partial_charge
C1    C     C_R   0.855661 0.286118 0.502680 0.820241
C2    C     C_R   0.091467 0.484005 0.110342 0.118404
C3    C     C_R   0.798194 0.509882 0.012006 0.088323
C4    C     C_R   0.800794 0.510225 0.919303 -0.241967
C5    C     C_R   0.897709 0.502556 0.890100 0.080276
C6    C     C_R   0.994047 0.492989 0.953968 0.059458
C7    C     C_R   0.091499 0.484313 0.924649 0.119229
C8    C     C_R   0.187143 0.474601 0.988179 -0.210720
C9    C     C_R   0.187127 0.474416 0.080571 -0.211126
C10   C     C_R   0.899785 0.504541 0.797503 -0.232146
C11   C     C_R   0.996936 0.496811 0.768258 -0.069063
C12   C     C_R   0.998985 0.499077 0.671281 0.812312
C13   C     C_R   0.092116 0.486079 0.832037 -0.240147
C14   C     C_R   0.269031 0.033003 0.395085 -0.173841
C15   C     C_R   0.226782 0.837504 0.470712 -0.061453
C16   C     C_R   0.818741 0.073609 0.521485 0.449865
C17   C     C_R   0.735361 0.958225 0.535199 -0.186662
C18   C     C_R   0.611271 0.927487 0.520949 -0.288985
C19   C     C_R   0.564702 0.011182 0.485572 0.088799
C20   C     C_R   0.648116 0.127929 0.463170 0.034417
C21   C     C_R   0.437409 0.981092 0.467503 0.096301
C22   C     C_R   0.394748 0.063713 0.416706 0.152903
C23   C     C_R   0.144874 0.714270 0.487148 0.802505
C24   C     C_R   0.478058 0.174463 0.385197 -0.239014
C25   C     C_R   0.602513 0.205603 0.406800 -0.159949
C26   C     C_R   0.351044 0.870368 0.497892 -0.250374
C27   C     C_R   0.185384 0.919794 0.420686 -0.189256
C28   C     C_R   0.774988 0.162027 0.494007 -0.256642
C29   C     C_R   0.354277 0.338524 0.653822 -0.288682
C30   C     C_R   0.757807 0.644036 0.374007 0.085470
C31   C     C_R   0.659756 0.674024 0.345483 -0.249929
C32   C     C_R   0.556545 0.619060 0.392345 -0.201892
C33   C     C_R   0.550212 0.532954 0.468950 -0.003890
C34   C     C_R   0.000056 0.499523 0.328835 0.802753
C35   C     C_R   0.653209 0.505108 0.495659 0.290280
C36   C     C_R   0.446751 0.474544 0.520666 -0.038002
C37   C     C_R   0.450492 0.392625 0.599107 0.164395
C38   C     C_R   0.550648 0.365750 0.623199 -0.281136
C39   C     C_R   0.648961 0.419763 0.572177 -0.187456
C40   C     C_R   0.339264 0.493888 0.498883 0.023145
C41   C     C_R   0.253572 0.364389 0.630392 0.166137
C42   C     C_R   0.092748 0.485567 0.202552 -0.226727
C43   C     C_R   0.998399 0.496903 0.232206 -0.068534
C44   C     C_R   0.901293 0.505321 0.169603 -0.264145
C45   C     C_R   0.896440 0.502432 0.076504 0.077963
C46   C     C_R   0.993640 0.492853 0.046978 0.034476
Cu1   Cu    Cu3+1 0.098270 0.475420 0.521130 0.990052
Cu2   Cu    Cu3+1 0.901730 0.524580 0.478870 0.928476
H1    H     H_    0.167915 0.479076 0.251021 0.155818
H2    H     H_    0.447030 0.237052 0.342662 0.146802
H3    H     H_    0.235716 0.095506 0.355764 0.157181
H4    H     H_    0.378198 0.807127 0.542588 0.152331
H5    H     H_    0.554430 0.835977 0.532415 0.156082
H6    H     H_    0.766223 0.889933 0.557973 0.204067
H7    H     H_    0.661811 0.289379 0.374113 0.177284
H8    H     H_    0.181107 0.326077 0.674141 0.154387
H9    H     H_    0.553323 0.302084 0.682518 0.154980
H10   H     H_    0.357627 0.277636 0.715001 0.143789
H11   H     H_    0.829669 0.513888 0.194577 0.167380
H12   H     H_    0.327816 0.553357 0.439769 0.118080
H13   H     H_    0.837409 0.687109 0.337115 0.125838
H14   H     H_    0.483726 0.646244 0.367674 0.136196
H15   H     H_    0.663822 0.740218 0.286869 0.149042
H16   H     H_    0.720178 0.391960 0.596037 0.207381
H17   H     H_    0.726596 0.516328 0.869451 0.142868
H18   H     H_    0.825620 0.511968 0.748335 0.159724
H19   H     H_    0.167344 0.479869 0.809715 0.151400
H20   H     H_    0.262138 0.467669 0.966284 0.137911
H21   H     H_    0.262226 0.467371 0.128722 0.146530
H22   H     H_    0.089152 0.896019 0.399269 0.176518
N1    N     N_R   0.246280 0.438190 0.553160 -0.177535
N2    N     N_R   0.754320 0.561190 0.447410 -0.207967
O1    O     O_R   0.972510 0.318130 0.526570 -0.489222
O2    O     O_R   0.806530 0.359650 0.490890 -0.618856
O3    O     O_R   0.082980 0.479210 0.647590 -0.598118
O4    O     O_R   0.917000 0.520730 0.611900 -0.600155
O5    O     O_R   0.193470 0.640350 0.509110 -0.596735
O6    O     O_R   0.027490 0.681870 0.473430 -0.576900
O7    O     O_R   0.083000 0.479270 0.388100 -0.574571
O8    O     O_R   0.917020 0.520790 0.352410 -0.610085
S1    S     S_3+6 0.974369 0.097488 0.535872 -0.011909
O9    O     O_2   0.041782 0.189138 0.461625 -0.284895
O10   O     O_2   0.030593 0.133724 0.627962 -0.328668
O11   O     O_3   0.985879 0.974868 0.531902 -0.559668
H23   H     H_    0.073882 0.993212 0.547348 0.376914
C47   C     C_3   0.690161 0.518438 0.038935 -0.407750
C48   C     C_3   0.601786 0.400940 0.084900 -0.332841
C49   C     C_3   0.501644 0.412621 0.122144 -0.866409
H24   H     H_    0.541916 0.469878 0.175629 0.255437
H25   H     H_    0.449667 0.449065 0.066061 0.251029
H26   H     H_    0.437780 0.326198 0.153186 0.243185
H27   H     H_    0.559178 0.340203 0.033923 0.221754
H28   H     H_    0.650728 0.362789 0.142288 0.221300
H29   H     H_    0.722560 0.585557 0.083989 0.193360
H30   H     H_    0.638901 0.548083 0.977453 0.193273

loop_
_geom_bond_atom_site_label_1
_geom_bond_atom_site_label_2
_ccdc_geom_bond_type
C16   C28   A    
C48   C49   S    
C40   H12   S    
C40   N1    A    
Cu2   O4    S    
C19   C20   A    
Cu1   O7    S    
C21   C26   A    
S1    O9    D    
C7    C8    A    
C45   C46   A    
C2    C46   A    
C39   H16   S    
C1    O2    A    
C29   H10   S    
C36   C37   A    
C19   C21   A    
C9    H21   S    
C5    C6    A    
C20   C25   A    
C44   H11   S    
C33   C36   A    
C18   C19   A    
Cu2   O6    S    
C4    H17   S    
C47   H29   S    
C18   H5    S    
C34   O8    A    
Cu1   Cu2   S    
C8    C9    A    
C1    C28   S    
C14   C27   A    
C41   N1    A    
C15   C23   S    
C21   C22   A    
C3    C47   S    
Cu2   N2    S    
S1    O10   D    
C10   H18   S    
C24   H2    S    
C38   C39   A    
Cu2   O2    S    
C36   C40   A    
C24   C25   A    
Cu1   O1    S    
C47   H30   S    
C47   C48   S    
C16   C17   A    
C15   C26   A    
C20   C28   A    
C3    C45   A    
C23   O5    A    
C35   C39   A    
C43   C44   A    
C41   H8    S    
C37   C38   A    
C26   H4    S    
C34   O7    A    
C38   H9    S    
C15   C27   A    
C14   H3    S    
C49   H26   S    
C17   C18   A    
O11   H23   S    
Cu1   N1    S    
C27   H22   S    
C49   H25   S    
C35   N2    A    
C8    H20   S    
C12   O4    A    
C22   C24   A    
C30   H13   S    
C42   C43   A    
Cu1   O5    S    
C3    C4    A    
S1    O11   S    
C44   C45   A    
C13   H19   S    
C6    C46   A    
C29   C41   A    
C31   C32   A    
C34   C43   S    
C25   H7    S    
C4    C5    A    
C30   N2    A    
C11   C12   S    
C6    C7    A    
C31   H15   S    
C1    O1    A    
C32   C33   A    
Cu2   O8    S    
Cu1   O3    S    
C5    C10   A    
C11   C13   A    
C14   C22   A    
C30   C31   A    
C2    C42   A    
C48   H28   S    
C16   S1    S    
C33   C35   A    
C23   O6    A    
C10   C11   A    
C42   H1    S    
C32   H14   S    
C7    C13   A    
C49   H24   S    
C12   O3    A    
C29   C37   A    
C48   H27   S    
C2    C9    A    
C17   H6    S    
