data_mof_unit_64260.cif
_audit_creation_date              2012-10-26T20:13:34-0400
_audit_creation_method            fapswitch 2.2
_symmetry_space_group_name_H-M    P1
_symmetry_Int_Tables_number       1
_space_group_crystal_system       triclinic
_cell_length_a                    19.459009
_cell_length_b                    18.160946
_cell_length_c                    11.719327
_cell_angle_alpha                 89.999928
_cell_angle_beta                  90.202461
_cell_angle_gamma                 89.998631
_cell_volume                      4141.51412488

loop_
_atom_site_label
_atom_site_type_symbol
_atom_type_description
_atom_site_fract_x
_atom_site_fract_y
_atom_site_fract_z
_atom_type_partial_charge
C1    C     C_R   0.367541 0.500001 0.499822 0.544821
C2    C     C_R   0.545335 0.201713 0.570270 -0.144463
C3    C     C_R   0.545334 0.798285 0.570271 -0.144454
C4    C     C_R   0.454666 0.201715 0.429729 -0.144454
C5    C     C_R   0.500000 0.838444 0.500000 0.018779
C6    C     C_R   0.500000 0.161556 0.500000 0.018779
C7    C     C_R   0.511710 0.961316 0.601207 -0.113045
C8    C     C_R   0.488289 0.038684 0.398793 -0.113045
C9    C     C_R   0.488289 0.961317 0.398793 -0.113020
C10   C     C_R   0.511711 0.038683 0.601206 -0.113020
C11   C     C_R   0.500000 0.078713 0.500000 0.032798
C12   C     C_R   0.632459 0.499999 0.500178 0.544821
C13   C     C_R   0.500000 0.921287 0.500000 0.032798
C14   C     C_R   0.499972 0.500000 0.283754 0.552454
C15   C     C_R   0.500028 0.500000 0.716246 0.552454
C16   C     C_1   0.499975 0.500000 0.162188 -0.024961
C17   C     C_1   0.500025 0.500000 0.837812 -0.024961
C18   C     C_1   0.499989 0.500000 0.059828 -0.043387
C19   C     C_1   0.500011 0.500000 0.940172 -0.043387
C20   C     C_R   0.744338 0.433227 0.500645 -0.130621
C21   C     C_R   0.255662 0.566773 0.499351 -0.130621
C22   C     C_R   0.255658 0.433241 0.499609 -0.130718
C23   C     C_R   0.072106 0.500020 0.499731 0.030263
C24   C     C_R   0.744342 0.566758 0.500396 -0.130718
C25   C     C_R   0.815901 0.433246 0.500622 -0.120975
C26   C     C_R   0.184099 0.566754 0.499374 -0.120975
C27   C     C_R   0.184094 0.433270 0.499545 -0.120883
C28   C     C_R   0.815906 0.566729 0.500459 -0.120882
C29   C     C_R   0.852227 0.499985 0.500487 0.031580
C30   C     C_R   0.147773 0.500015 0.499514 0.031580
C31   C     C_R   0.707957 0.499995 0.500414 0.013239
C32   C     C_R   0.292043 0.500005 0.499586 0.013239
C33   C     C_R   0.964451 0.548697 0.570880 -0.115306
C34   C     C_R   0.927894 0.499979 0.500269 0.030263
C35   C     C_R   0.035549 0.451303 0.429120 -0.115306
C36   C     C_R   0.036011 0.548716 0.570614 -0.114866
C37   C     C_R   0.963989 0.451284 0.429386 -0.114866
C38   C     C_R   0.455497 0.720969 0.431074 0.047865
C39   C     C_R   0.544503 0.279031 0.568926 0.047866
C40   C     C_R   0.544502 0.720967 0.568926 0.047858
C41   C     C_R   0.455498 0.279033 0.431074 0.047858
C42   C     C_R   0.454665 0.798287 0.429729 -0.144463
Cu1   Cu    Cu3+1 0.500000 0.573360 0.500000 0.938158
Cu2   Cu    Cu3+1 0.500000 0.426640 0.500000 0.938158
H1    H     H_    0.717590 0.380929 0.501067 0.124707
H2    H     H_    0.480265 0.067155 0.318706 0.101456
H3    H     H_    0.480265 0.932847 0.318707 0.101490
H4    H     H_    0.519735 0.067153 0.681293 0.101490
H5    H     H_    0.842877 0.381088 0.502072 0.104565
H6    H     H_    0.157123 0.618912 0.497922 0.104565
H7    H     H_    0.157122 0.381115 0.500993 0.104734
H8    H     H_    0.842877 0.618884 0.499014 0.104734
H9    H     H_    0.937671 0.586007 0.627470 0.103069
H10   H     H_    0.062329 0.413992 0.372530 0.103070
H11   H     H_    0.063161 0.586036 0.627018 0.103928
H12   H     H_    0.282410 0.619072 0.498926 0.124707
H13   H     H_    0.936839 0.413965 0.372982 0.103928
H14   H     H_    0.418039 0.826278 0.375207 0.088845
H15   H     H_    0.581961 0.173722 0.624793 0.088845
H16   H     H_    0.581961 0.826274 0.624794 0.088725
H17   H     H_    0.418039 0.173726 0.375206 0.088725
H18   H     H_    0.282404 0.380939 0.499991 0.124814
H19   H     H_    0.717596 0.619060 0.500016 0.124814
H20   H     H_    0.420277 0.690753 0.376949 0.119771
H21   H     H_    0.579723 0.309247 0.623050 0.119771
H22   H     H_    0.579723 0.690749 0.623051 0.119620
H23   H     H_    0.420277 0.309251 0.376949 0.119620
H24   H     H_    0.519735 0.932845 0.681294 0.101456
N1    N     N_R   0.500000 0.683620 0.500000 -0.218737
N2    N     N_R   0.500000 0.316380 0.500000 -0.218737
O1    O     O_R   0.400190 0.561980 0.499980 -0.508171
O2    O     O_R   0.599810 0.438020 0.500020 -0.508170
O3    O     O_R   0.599810 0.561980 0.500020 -0.508146
O4    O     O_R   0.400190 0.438020 0.499980 -0.508147
O5    O     O_R   0.500010 0.561950 0.337200 -0.495841
O6    O     O_R   0.499990 0.438050 0.662800 -0.495842
O7    O     O_R   0.499990 0.561950 0.662800 -0.495943
O8    O     O_R   0.500010 0.438050 0.337200 -0.495943

loop_
_geom_bond_atom_site_label_1
_geom_bond_atom_site_label_2
_ccdc_geom_bond_type
Cu1   O3    S    
C7    C10   A    
C21   C26   A    
C34   C37   A    
C5    C42   A    
C42   H14   S    
C41   H23   S    
C1    O1    A    
C22   C32   A    
C1    O4    A    
C28   C29   A    
C35   C37   A    
C38   C42   A    
C26   H6    S    
C4    C41   A    
C33   C36   A    
C18   C19   S    
Cu2   O6    S    
C9    C13   A    
C7    H24   S    
C2    C39   A    
C8    C9    A    
C25   H5    S    
Cu2   N2    S    
C5    C13   S    
C20   H1    S    
C3    H16   S    
C15   O6    A    
C12   O2    A    
C38   N1    A    
Cu1   N1    S    
C40   H22   S    
C12   O3    A    
C35   H10   S    
C33   H9    S    
C39   H21   S    
C2    C6    A    
C27   H7    S    
C38   H20   S    
C25   C29   A    
C21   C32   A    
C40   N1    A    
C23   C30   S    
C4    C6    A    
C6    C11   S    
C2    H15   S    
C29   C34   S    
C1    C32   S    
Cu1   Cu2   S    
C22   H18   S    
C33   C34   A    
Cu2   O4    S    
C3    C40   A    
C9    H3    S    
C24   H19   S    
C23   C35   A    
C22   C27   A    
C12   C31   S    
C10   H4    S    
C14   C16   S    
Cu1   O5    S    
C15   C17   S    
Cu1   O1    S    
C24   C28   A    
C3    C5    A    
C21   H12   S    
C26   C30   A    
Cu1   O7    S    
C14   O5    A    
Cu2   O8    S    
C24   C31   A    
C36   H11   S    
C28   H8    S    
C15   O7    A    
C8    C11   A    
C4    H17   S    
C17   C19   T    
C39   N2    A    
Cu2   O2    S    
C14   O8    A    
C8    H2    S    
C10   C11   A    
C7    C13   A    
C16   C18   T    
C23   C36   A    
C20   C25   A    
C37   H13   S    
C41   N2    A    
C27   C30   A    
C20   C31   A    
