data_mof_unit_52386.cif
_audit_creation_date              2013-03-05T16:18:24-0500
_audit_creation_method            fapswitch 2.2
_symmetry_space_group_name_H-M    P1
_symmetry_Int_Tables_number       1
_space_group_crystal_system       triclinic
_cell_length_a                    10.733698
_cell_length_b                    9.7899
_cell_length_c                    10.562812
_cell_angle_alpha                 89.876596
_cell_angle_beta                  89.249959
_cell_angle_gamma                 90.460647
_cell_volume                      1109.82580975

loop_
_atom_site_label
_atom_site_type_symbol
_atom_site_description
_atom_site_fract_x
_atom_site_fract_y
_atom_site_fract_z
_atom_type_partial_charge
O1    O     O_R   0.314910 0.616040 0.499970 -0.636085
O2    O     O_R   0.314910 0.383960 0.499970 -0.595830
C1    C     C_R   0.258000 0.500046 0.502873 1.011608
O3    O     O_R   0.500080 0.616020 0.313900 -0.566735
O4    O     O_R   0.500080 0.383980 0.313900 -0.580352
C2    C     C_R   0.506447 0.500662 0.257188 1.018483
Zn1   Zn    Zn3+2 0.500150 0.654960 0.499940 0.994081
Zn2   Zn    Zn3+2 0.500150 0.345040 0.499940 1.026150
O5    O     O_R   0.685320 0.616040 0.499930 -0.592325
O6    O     O_R   0.685320 0.383960 0.499930 -0.575770
O7    O     O_R   0.500150 0.616060 0.686000 -0.659077
O8    O     O_R   0.500150 0.383940 0.686000 -0.610873
C3    C     C_R   0.742283 0.500236 0.502661 0.961002
C4    C     C_R   0.492228 0.499554 0.741762 0.926509
C5    C     C_3   0.386877 0.534412 0.049524 -0.218829
C6    C     C_3   0.531768 0.375144 0.039826 -0.173547
C7    C     C_3   0.413696 0.409421 0.966485 0.350070
H1    H     H_    0.295597 0.560585 0.093255 0.246479
H2    H     H_    0.561602 0.273075 0.072781 0.238177
C8    C     C_3   0.490051 0.498475 0.875873 -0.172217
C9    C     C_3   0.464770 0.625442 0.956657 -0.233393
C10   C     C_3   0.609594 0.466259 0.947228 -0.276573
C11   C     C_3   0.583098 0.591856 0.029264 0.397083
C12   C     C_3   0.507211 0.502671 0.121579 -0.148126
H3    H     H_    0.438213 0.727703 0.920718 0.204716
H4    H     H_    0.700339 0.439240 0.902529 0.198552
C13   C     C_3   0.072288 0.642522 0.544967 -0.564344
C14   C     C_3   0.069996 0.393340 0.596206 -0.461739
H5    H     H_    0.116466 0.728559 0.491983 0.263898
H6    H     H_    0.095871 0.288601 0.565845 0.279243
H7    H     H_    0.096342 0.659047 0.646110 0.185946
H8    H     H_    0.111992 0.409587 0.690741 0.204336
C15   C     C_3   0.930557 0.647560 0.530473 0.150161
C16   C     C_3   0.927681 0.407408 0.609572 0.170176
H9    H     H_    0.889208 0.680849 0.622970 0.134619
H10   H     H_    0.906523 0.459765 0.701229 0.118103
C17   C     C_3   0.076584 0.469510 0.362536 0.647674
C18   C     C_3   0.121625 0.500903 0.500631 -0.085434
C19   C     C_3   0.879030 0.500213 0.498687 -0.151960
C20   C     C_3   0.929782 0.447632 0.363938 0.342481
C21   C     C_3   0.380696 0.078193 0.446623 0.178284
C22   C     C_3   0.382827 0.916518 0.443500 0.190337
H11   H     H_    0.304651 0.106880 0.514365 0.089907
H12   H     H_    0.304340 0.881849 0.506229 0.073147
H13   H     H_    0.610740 0.117713 0.326596 0.247677
H14   H     H_    0.618780 0.877692 0.332715 0.267872
C23   C     C_3   0.607674 0.081101 0.425395 -0.208516
C24   C     C_3   0.609518 0.920419 0.428659 -0.207608
C25   C     C_3   0.510687 0.080916 0.627658 -0.332218
C26   C     C_3   0.507455 0.918737 0.627997 -0.358454
N1    N     N_3   0.499750 0.138610 0.497240 -0.131794
N2    N     N_3   0.499750 0.861390 0.497240 -0.132075
H15   H     H_    0.598482 0.117780 0.671477 0.208548
H16   H     H_    0.591955 0.879574 0.675561 0.205079
H17   H     H_    0.433954 0.119403 0.689123 0.222859
H18   H     H_    0.426955 0.882017 0.686561 0.180391
H19   H     H_    0.695815 0.119869 0.466778 0.231458
H20   H     H_    0.695877 0.887803 0.476468 0.191294
N3    N     N_R   0.318511 0.309386 0.932813 0.217831
O9    O     O_R   0.259938 0.241419 0.021410 -0.279308
O10   O     O_R   0.287475 0.291523 0.815512 -0.450175
N4    N     N_R   0.877630 0.522831 0.255072 0.213045
O11   O     O_R   0.785834 0.607350 0.267526 -0.332163
O12   O     O_R   0.914482 0.491176 0.140938 -0.307570
N5    N     N_R   0.894875 0.301466 0.346004 0.235471
O13   O     O_R   0.804026 0.269324 0.270871 -0.372813
O14   O     O_R   0.956934 0.202092 0.396723 -0.302507
N6    N     N_R   0.341995 0.133837 0.324143 0.274047
O15   O     O_R   0.226586 0.113018 0.293019 -0.250603
O16   O     O_R   0.421814 0.152973 0.232427 -0.343627
N7    N     N_R   0.357021 0.860159 0.317370 0.264006
O17   O     O_R   0.246791 0.811458 0.294909 -0.335560
O18   O     O_R   0.431775 0.881198 0.221544 -0.307758
N8    N     N_R   0.677677 0.695824 0.052960 0.262035
O19   O     O_R   0.785573 0.688144 0.996058 -0.322886
O20   O     O_R   0.646691 0.809551 0.107270 -0.319821
O21   O     O_3   0.899489 0.744800 0.438371 -0.681966
H21   H     H_    0.917078 0.836216 0.474974 0.359385
O22   O     O_3   0.870394 0.277817 0.614903 -0.703122
H22   H     H_    0.893269 0.236071 0.697122 0.355637
O23   O     O_3   0.115177 0.577316 0.281271 -0.715141
H23   H     H_    0.061616 0.657633 0.295144 0.410036
O24   O     O_3   0.136178 0.352208 0.317643 -0.662432
H24   H     H_    0.117094 0.343986 0.226162 0.413431

loop_
_geom_bond_atom_site_label_1
_geom_bond_atom_site_label_2
_geom_bond_distance
_ccdc_geom_bond_type
C5    H1    1.109807 S    
C13   H5    1.110009 S    
C21   C22   1.583542 S    
O23   H23   0.987829 S    
O21   H21   0.993362 S    
C13   C15   1.532150 S    
Zn1   O7    2.001069 S    
N4    O11   1.297297 A    
N8    O20   1.297317 A    
Zn1   N2    2.021110 S    
C17   C20   1.588390 S    
O4    C2    1.289619 A    
O7    C4    1.284260 A    
C13   C18   1.558870 S    
C7    C8    1.520609 S    
C20   N4    1.482403 S    
Zn1   O5    2.026755 S    
O5    C3    1.292843 A    
N4    O12   1.302688 A    
O24   H24   0.993690 S    
C1    C18   1.464407 S    
N6    O15   1.300400 A    
C25   N1    1.494151 S    
C26   N2    1.495064 S    
C11   C12   1.529956 S    
C14   C16   1.539538 S    
N3    O9    1.299617 A    
C6    C12   1.542031 S    
C21   H11   1.116417 S    
C17   O23   1.414939 S    
C22   H12   1.115251 S    
O3    Zn1   2.002556 S    
C21   N6    1.468915 S    
H13   C23   1.102702 S    
H14   C24   1.100797 S    
N3    O10   1.299055 A    
N8    O19   1.300595 A    
C13   H7    1.114237 S    
C16   C19   1.577673 S    
C4    C8    1.416491 S    
C14   H8    1.112172 S    
O3    C2    1.281408 A    
C19   C20   1.604667 S    
N7    O18   1.298441 A    
C6    C7    1.533086 S    
C23   N1    1.491358 S    
N5    O14   1.301810 A    
C25   H17   1.110806 S    
C26   H18   1.112900 S    
O1    C1    1.285224 A    
C17   C18   1.572868 S    
C16   O22   1.406090 S    
C23   H19   1.111737 S    
C23   C24   1.573650 S    
C14   C18   1.551306 S    
Zn2   O8    2.002680 S    
C2    C12   1.432412 S    
C15   C19   1.579110 S    
Zn2   N1    2.021163 S    
C7    N3    1.457514 S    
Zn2   O6    2.020738 S    
C5    C12   1.541206 S    
O8    C4    1.279976 A    
N5    O13   1.302365 A    
C20   N5    1.489394 S    
C9    C11   1.529886 S    
C11   N8    1.456153 S    
C5    C7    1.534027 S    
C9    H3    1.110592 S    
C6    C10   1.553393 S    
O1    Zn1   2.021474 S    
O2    Zn2   2.027491 S    
C8    C10   1.531276 S    
O6    C3    1.288360 A    
O4    Zn2   2.000946 S    
C24   H20   1.110196 S    
C14   H6    1.111334 S    
O2    C1    1.294786 A    
N7    O17   1.297013 A    
C26   H16   1.112993 S    
C15   O21   1.404815 S    
C6    H2    1.108504 S    
C25   H15   1.113189 S    
C22   N7    1.471916 S    
C15   H9    1.118078 S    
C16   H10   1.117977 S    
C3    C19   1.467857 S    
O22   H22   0.993587 S    
C5    C9    1.555068 S    
C8    C9    1.533213 S    
N6    O16   1.297134 A    
C25   C26   1.587811 S    
C10   H4    1.110975 S    
C10   C11   1.532122 S    
C17   O24   1.399645 S    
C24   N2    1.487224 S    
C21   N1    1.508577 S    
C22   N2    1.488884 S    
