data_mof_unit_20974.cif
_audit_creation_date              2012-12-10T17:20:36-0500
_audit_creation_method            fapswitch 2.2
_symmetry_space_group_name_H-M    P1
_symmetry_Int_Tables_number       1
_space_group_crystal_system       triclinic
_cell_length_a                    10.247234
_cell_length_b                    10.83205
_cell_length_c                    13.615811
_cell_angle_alpha                 93.393295
_cell_angle_beta                  74.20647
_cell_angle_gamma                 97.017028
_cell_volume                      1442.8552425

loop_
_atom_site_label
_atom_site_type_symbol
_atom_type_description
_atom_site_fract_x
_atom_site_fract_y
_atom_site_fract_z
_atom_type_partial_charge
C1    C     C_R   0.558774 0.732418 0.491619 0.911018
C2    C     C_2   0.071431 0.485003 0.494018 -0.042254
C3    C     C_1   0.448474 0.515066 0.882549 -0.054853
C4    C     C_1   0.551519 0.484913 0.117451 -0.054854
C5    C     C_2   0.595832 0.864214 0.474603 0.031281
C6    C     C_2   0.404168 0.135787 0.525397 0.031284
C7    C     C_2   0.496342 0.936538 0.514723 -0.161447
C8    C     C_2   0.503658 0.063462 0.485277 -0.161448
C9    C     C_R   0.325838 0.566061 0.061117 0.147776
C10   C     C_R   0.342221 0.669232 0.126214 -0.139627
C11   C     C_R   0.228118 0.716266 0.192517 -0.156517
C12   C     C_R   0.441226 0.267582 0.508381 0.911016
C13   C     C_R   0.096840 0.661759 0.193703 -0.132392
C14   C     C_R   0.079420 0.560260 0.128432 -0.147762
C15   C     C_R   0.193216 0.512839 0.062129 -0.175974
C16   C     C_R   0.674150 0.433905 0.938885 0.147770
C17   C     C_R   0.657764 0.330739 0.873783 -0.139626
C18   C     C_R   0.771865 0.283701 0.807481 -0.156518
C19   C     C_R   0.903145 0.338198 0.806302 -0.132394
C20   C     C_R   0.920568 0.439691 0.871577 -0.147758
C21   C     C_R   0.806774 0.487116 0.937879 -0.175972
C22   C     C_3   0.269085 0.089582 0.598083 -0.940314
C23   C     C_R   0.476235 0.504321 0.688065 0.904399
C24   C     C_3   0.730916 0.910419 0.401920 -0.940320
C25   C     C_R   0.118038 0.375923 0.429236 0.209180
C26   C     C_R   0.085803 0.256431 0.469833 -0.146028
C27   C     C_R   0.117082 0.151686 0.406379 -0.147867
C28   C     C_R   0.178883 0.165465 0.302087 -0.124509
C29   C     C_R   0.206869 0.283800 0.260634 -0.163690
C30   C     C_R   0.174104 0.388362 0.323677 -0.127084
C31   C     C_R   0.881954 0.624066 0.570777 0.209176
C32   C     C_R   0.825897 0.611615 0.676336 -0.127088
C33   C     C_R   0.793126 0.716171 0.739386 -0.163681
C34   C     C_R   0.523764 0.495678 0.311935 0.904398
C35   C     C_R   0.821097 0.834510 0.697940 -0.124519
C36   C     C_R   0.882889 0.848300 0.593648 -0.147870
C37   C     C_R   0.914175 0.743561 0.530187 -0.146017
C38   C     C_1   0.541346 0.489507 0.206342 -0.193340
C39   C     C_1   0.458651 0.510482 0.793659 -0.193334
C40   C     C_2   0.553893 0.481935 0.012963 -0.033652
C41   C     C_2   0.446096 0.518035 0.987039 -0.033655
C42   C     C_2   0.928566 0.514993 0.505986 -0.042254
H1    H     H_    0.118408 0.626794 0.585175 0.168296
H2    H     H_    0.556897 0.285902 0.875139 0.127916
H3    H     H_    0.758523 0.204684 0.757261 0.130662
H4    H     H_    0.991302 0.301805 0.754866 0.128069
H5    H     H_    0.022277 0.481635 0.870841 0.143657
H6    H     H_    0.821971 0.565623 0.988185 0.130521
H7    H     H_    0.202548 0.165210 0.623246 0.245533
H8    H     H_    0.214635 0.014396 0.560483 0.246042
H9    H     H_    0.286394 0.053625 0.667662 0.240300
H10   H     H_    0.797453 0.834790 0.376756 0.245531
H11   H     H_    0.713610 0.946377 0.332341 0.240303
H12   H     H_    0.881596 0.373212 0.414818 0.168296
H13   H     H_    0.785366 0.985603 0.439522 0.246041
H14   H     H_    0.035034 0.244578 0.550113 0.110854
H15   H     H_    0.092442 0.059693 0.437680 0.124497
H16   H     H_    0.203246 0.084321 0.253216 0.128023
H17   H     H_    0.252631 0.294449 0.179567 0.144334
H18   H     H_    0.193260 0.479181 0.290586 0.165664
H19   H     H_    0.806752 0.520794 0.709421 0.165660
H20   H     H_    0.747371 0.705514 0.820453 0.144334
H21   H     H_    0.796728 0.915648 0.746816 0.128026
H22   H     H_    0.907516 0.940296 0.562352 0.124500
H23   H     H_    0.596794 0.102024 0.431487 0.170908
H24   H     H_    0.964938 0.755422 0.449906 0.110855
H25   H     H_    0.403206 0.897976 0.568513 0.170907
H26   H     H_    0.443086 0.714077 0.124854 0.127916
H27   H     H_    0.241458 0.795287 0.242734 0.130661
H28   H     H_    0.008681 0.698148 0.245141 0.128074
H29   H     H_    0.977712 0.518307 0.129173 0.143658
H30   H     H_    0.178021 0.434329 0.011827 0.130519
N1    N     N_2   0.847200 0.448220 0.460120 -0.216226
N2    N     N_2   0.152800 0.551780 0.539880 -0.216225
O1    O     O_R   0.430150 0.692610 0.508030 -0.631203
O2    O     O_R   0.569850 0.307390 0.491970 -0.631202
O3    O     O_R   0.653100 0.659360 0.482430 -0.595839
O4    O     O_R   0.346900 0.340640 0.517570 -0.595836
O5    O     O_R   0.372470 0.518990 0.654990 -0.612033
O6    O     O_R   0.627530 0.481010 0.345010 -0.612035
O7    O     O_R   0.595430 0.485740 0.629390 -0.601786
O8    O     O_R   0.404570 0.514260 0.370610 -0.601792
Zn1   Zn    Zn3+2 0.351130 0.522200 0.517090 0.935473
Zn2   Zn    Zn3+2 0.648870 0.477800 0.482910 0.935471

loop_
_geom_bond_atom_site_label_1
_geom_bond_atom_site_label_2
_ccdc_geom_bond_type
C24   H10   S    
C16   C21   A    
C31   C42   S    
C1    O3    A    
C14   H29   S    
C19   C20   A    
N2    Zn1   S    
O6    Zn2   S    
O2    Zn2   S    
C19   H4    S    
C7    C8    S    
C24   H13   S    
C15   H30   S    
C26   C27   A    
C1    C5    S    
C28   C29   A    
C32   H19   S    
C6    C12   S    
C13   H28   S    
C6    C22   S    
C18   C19   A    
C34   O6    A    
O4    Zn1   S    
C3    C41   S    
C29   H17   S    
C16   C17   A    
C30   H18   S    
C9    C10   A    
N1    Zn2   S    
C2    N2    D    
C22   H8    S    
C21   H6    S    
H1    N2    S    
C3    C39   T    
C8    H23   S    
C13   C14   A    
C1    O1    A    
C4    C40   S    
C27   H15   S    
C5    C7    D    
C33   H20   S    
C6    C8    D    
O3    Zn2   S    
C25   C26   A    
C31   C37   A    
C12   O4    A    
C35   C36   A    
C29   C30   A    
H12   N1    S    
C31   C32   A    
C37   H24   S    
C17   C18   A    
C16   C40   S    
C22   H7    S    
C40   C41   D    
C4    C38   T    
C10   H26   S    
C12   O2    A    
C18   H3    S    
O7    Zn2   S    
C25   C30   A    
C36   C37   A    
C42   N1    D    
C23   O7    A    
C34   C38   S    
C26   H14   S    
C11   H27   S    
C28   H16   S    
C9    C41   S    
C32   C33   A    
C24   H11   S    
C17   H2    S    
O5    Zn1   S    
C11   C13   A    
O1    Zn1   S    
C5    C24   S    
C2    C42   S    
C23   C39   S    
C33   C35   A    
C2    C25   S    
C9    C15   A    
C20   H5    S    
C10   C11   A    
C7    H25   S    
C20   C21   A    
O8    Zn1   S    
C27   C28   A    
C14   C15   A    
C35   H21   S    
C34   O8    A    
C23   O5    A    
C36   H22   S    
C22   H9    S    
