data_mof_unit_34408.cif
_audit_creation_date              2012-12-10T17:17:50-0500
_audit_creation_method            fapswitch 2.2
_symmetry_space_group_name_H-M    P1
_symmetry_Int_Tables_number       1
_space_group_crystal_system       triclinic
_cell_length_a                    14.758008
_cell_length_b                    15.739783
_cell_length_c                    9.637883
_cell_angle_alpha                 90.063925
_cell_angle_beta                  90.049528
_cell_angle_gamma                 89.728428
_cell_volume                      2238.73568978

loop_
_atom_site_label
_atom_site_type_symbol
_atom_type_description
_atom_site_fract_x
_atom_site_fract_y
_atom_site_fract_z
_atom_type_partial_charge
C1    C     C_R   0.378000 0.884425 0.500097 0.789282
C2    C     C_R   0.381300 0.118477 0.499704 0.829920
C3    C     C_R   0.877998 0.384427 0.500097 0.789260
C4    C     C_R   0.881300 0.618478 0.499703 0.829914
C5    C     C_R   0.338573 0.268190 0.499031 0.585653
C6    C     C_R   0.311545 0.754911 0.405074 0.585591
C7    C     C_R   0.838574 0.768190 0.498945 0.585652
C8    C     C_R   0.811522 0.254929 0.405045 0.585573
C9    C     C_R   0.774011 0.832141 0.499874 -0.180900
C10   C     C_R   0.747900 0.191183 0.406254 -0.247157
C11   C     C_R   0.274010 0.332140 0.499962 -0.180886
C12   C     C_R   0.247921 0.691165 0.406282 -0.247150
C13   C     C_R   0.682209 0.811812 0.500394 -0.189754
C14   C     C_R   0.676730 0.193007 0.501256 -0.169452
C15   C     C_R   0.182207 0.311810 0.500394 -0.189774
C16   C     C_R   0.176735 0.693003 0.501254 -0.169450
C17   C     C_R   0.665121 0.998845 0.149227 -0.366960
C18   C     C_R   0.165121 0.498842 0.149227 -0.366945
C19   C     C_R   0.747889 0.997825 0.083455 0.440575
C20   C     C_R   0.247889 0.497818 0.083455 0.440583
C21   C     C_R   0.751341 0.997820 0.941662 0.512748
C22   C     C_R   0.251341 0.497813 0.941662 0.512737
C23   C     C_R   0.672087 0.998895 0.863472 0.431084
C24   C     C_R   0.172087 0.498891 0.863472 0.431083
C25   C     C_R   0.583211 0.999420 0.926506 0.001517
C26   C     C_R   0.083211 0.499418 0.926506 0.001529
C27   C     C_R   0.581846 0.999405 0.076264 0.087642
C28   C     C_R   0.081846 0.499403 0.076264 0.087635
C29   C     C_R   0.422252 0.000754 0.073497 0.018011
C30   C     C_R   0.922252 0.500757 0.073497 0.018034
C31   C     C_R   0.615393 0.121304 0.500317 0.887830
C32   C     C_R   0.618153 0.881124 0.500042 0.867646
C33   C     C_R   0.115395 0.621302 0.500317 0.887821
C34   C     C_R   0.118152 0.381123 0.500042 0.867622
C35   C     C_R   0.422275 0.000877 0.926073 -0.022213
C36   C     C_R   0.922275 0.500881 0.926073 -0.022209
C37   C     C_R   0.190547 0.075925 0.481753 -0.171345
C38   C     C_R   0.218624 0.898467 0.682959 -0.170328
C39   C     C_R   0.690542 0.575924 0.481887 -0.171331
C40   C     C_R   0.718646 0.398446 0.683021 -0.170318
C41   C     C_R   0.098580 0.055776 0.481604 -0.103423
C42   C     C_R   0.144124 0.903587 0.771123 -0.131197
C43   C     C_R   0.598576 0.555775 0.481807 -0.103415
C44   C     C_R   0.644162 0.403553 0.771217 -0.131228
C45   C     C_R   0.533718 0.620021 0.491848 -0.038625
C46   C     C_R   0.579912 0.339522 0.771157 -0.078250
C47   C     C_R   0.033718 0.120020 0.491631 -0.038624
C48   C     C_R   0.079874 0.839555 0.771062 -0.078253
C49   C     C_R   0.560532 0.704784 0.499422 -0.086657
C50   C     C_R   0.589879 0.269965 0.683042 -0.064469
C51   C     C_R   0.060530 0.204782 0.499266 -0.086694
C52   C     C_R   0.089855 0.769986 0.682976 -0.064500
C53   C     C_R   0.653228 0.726493 0.497965 0.060520
C54   C     C_R   0.665821 0.262394 0.593881 0.097421
C55   C     C_R   0.153227 0.226491 0.497885 0.060511
C56   C     C_R   0.165812 0.762403 0.593848 0.097421
C57   C     C_R   0.219059 0.161157 0.492962 0.016039
C58   C     C_R   0.231354 0.827846 0.593612 0.029398
C59   C     C_R   0.719058 0.661157 0.493036 0.016038
C60   C     C_R   0.731364 0.327837 0.593644 0.029411
C61   C     C_R   0.311673 0.183160 0.497959 -0.203715
C62   C     C_R   0.305681 0.821986 0.500352 -0.232572
C63   C     C_R   0.811673 0.683160 0.497957 -0.203723
C64   C     C_R   0.805676 0.321990 0.500352 -0.232567
Cu1   Cu    Cu3+1 0.499990 0.000000 0.640660 0.998507
Cu2   Cu    Cu3+1 0.999990 0.500000 0.640660 0.998507
Cu3   Cu    Cu3+1 0.500010 0.000000 0.359340 1.000825
Cu4   Cu    Cu3+1 0.000010 0.500000 0.359340 1.000840
H1    H     H_    0.358330 0.001890 0.871424 0.118014
H2    H     H_    0.858330 0.501898 0.871425 0.118001
H3    H     H_    0.238968 0.024608 0.471302 0.113997
H4    H     H_    0.263776 0.952007 0.683561 0.146095
H5    H     H_    0.738961 0.524606 0.471421 0.113982
H6    H     H_    0.763794 0.451988 0.683623 0.146107
H7    H     H_    0.077618 0.990113 0.473795 0.182020
H8    H     H_    0.135416 0.958332 0.837986 0.163123
H9    H     H_    0.577612 0.490111 0.474040 0.182021
H10   H     H_    0.635464 0.458290 0.838101 0.163115
H11   H     H_    0.462397 0.604215 0.492601 0.177984
H12   H     H_    0.521216 0.344398 0.838056 0.180975
H13   H     H_    0.962397 0.104214 0.492331 0.178011
H14   H     H_    0.021166 0.844441 0.837937 0.180988
H15   H     H_    0.508460 0.752988 0.506634 0.145812
H16   H     H_    0.535767 0.224192 0.683733 0.177634
H17   H     H_    0.008457 0.252985 0.506470 0.145844
H18   H     H_    0.035745 0.724211 0.683663 0.177595
H19   H     H_    0.795571 0.897910 0.499978 0.203273
H20   H     H_    0.755687 0.138660 0.334378 0.205270
H21   H     H_    0.295570 0.397909 0.500133 0.203304
H22   H     H_    0.255720 0.638631 0.334430 0.205274
H23   H     H_    0.358248 0.001383 0.128142 0.127594
H24   H     H_    0.858248 0.501388 0.128143 0.127597
H25   H     H_    0.671273 0.999287 0.258319 0.252393
H26   H     H_    0.171273 0.499287 0.258319 0.252394
N1    N     N_R   0.501200 0.000000 0.147910 -0.155357
N2    N     N_R   0.001200 0.500000 0.147910 -0.155357
N3    N     N_R   0.501270 1.000000 0.852040 -0.164016
N4    N     N_R   0.001270 0.500000 0.852040 -0.164012
O1    O     O_R   0.409820 0.909830 0.618810 -0.600473
O2    O     O_R   0.409820 0.090170 0.618810 -0.607111
O3    O     O_R   0.909820 0.409830 0.618810 -0.600467
O4    O     O_R   0.909820 0.590170 0.618810 -0.607128
O5    O     O_R   0.409840 0.909830 0.381240 -0.529476
O6    O     O_R   0.409840 0.090170 0.381240 -0.575512
O7    O     O_R   0.909840 0.409830 0.381240 -0.529462
O8    O     O_R   0.909840 0.590170 0.381240 -0.575488
O9    O     O_R   0.590170 0.090170 0.618760 -0.526882
O10   O     O_R   0.590170 0.909830 0.618760 -0.504868
O11   O     O_R   0.090170 0.590170 0.618760 -0.526873
O12   O     O_R   0.090170 0.409830 0.618760 -0.504860
O13   O     O_R   0.590190 0.090180 0.381190 -0.603652
O14   O     O_R   0.590190 0.909820 0.381190 -0.587634
O15   O     O_R   0.090190 0.590180 0.381190 -0.603635
O16   O     O_R   0.090190 0.409820 0.381190 -0.587644
F1    F     F_    0.427579 0.289267 0.496143 -0.682510
F2    F     F_    0.380991 0.749292 0.313012 -0.642220
F3    F     F_    0.927580 0.789266 0.495980 -0.682486
F4    F     F_    0.880950 0.249324 0.312948 -0.642235
F5    F     F_    0.833308 0.997058 0.877609 -0.583246
F6    F     F_    0.333308 0.497048 0.877609 -0.583246
F7    F     F_    0.690502 0.999737 0.727982 -0.612903
F8    F     F_    0.190502 0.499738 0.727982 -0.612920
F9    F     F_    0.825637 0.997080 0.158826 -0.601528
F10   F     F_    0.325637 0.497072 0.158826 -0.601510

loop_
_geom_bond_atom_site_label_1
_geom_bond_atom_site_label_2
_ccdc_geom_bond_type
C7    C63   A    
C58   C62   A    
Cu2   Cu4   S    
C15   C34   S    
Cu2   N4    S    
C40   C60   A    
Cu2   O4    S    
C13   C32   S    
C27   N1    A    
C14   C31   S    
C1    C62   S    
C1    O1    A    
C53   C59   A    
Cu3   O5    S    
C23   F7    S    
C37   H3    S    
C54   C60   A    
C3    C64   S    
C3    O7    A    
C22   F6    S    
C4    C63   S    
C10   H20   S    
Cu4   N2    S    
C17   H25   S    
C12   H22   S    
C19   C21   A    
C24   C26   A    
C38   C42   A    
C40   H6    S    
C6    C12   A    
C39   C59   A    
C31   O9    A    
C9    C13   A    
C30   N2    A    
C38   C58   A    
C11   C15   A    
C12   C16   A    
C56   C58   A    
Cu1   Cu3   S    
C4    O4    A    
C45   C49   A    
C1    O5    A    
Cu1   O10   S    
C18   C20   A    
C2    C61   S    
Cu4   O15   S    
C3    O3    A    
C39   H5    S    
C2    O2    A    
C5    F1    S    
Cu3   N1    S    
Cu2   O3    S    
C51   H17   S    
Cu4   O8    S    
C26   C28   A    
C36   H2    S    
Cu3   O6    S    
C13   C53   A    
C34   O16   A    
C38   H4    S    
C8    F4    S    
C17   C27   A    
C18   C28   A    
Cu1   O1    S    
C30   H24   S    
C10   C14   A    
C29   N1    A    
C39   C43   A    
C44   C46   A    
C4    O8    A    
C60   C64   A    
C15   C55   A    
C44   H10   S    
C16   C56   A    
C16   C33   S    
C41   H7    S    
C11   H21   S    
C2    O6    A    
C19   F9    S    
C24   F8    S    
C41   C47   A    
C5    C61   A    
C45   H11   S    
C42   C48   A    
Cu2   O12   S    
C57   C61   A    
C43   C45   A    
C6    F2    S    
C26   N4    A    
C25   N3    A    
C14   C54   A    
C8    C64   A    
C55   C57   A    
C18   H26   S    
C22   C24   A    
C59   C63   A    
C43   H9    S    
Cu4   O7    S    
C40   C44   A    
C29   H23   S    
Cu3   O13   S    
C7    C9    A    
C46   C50   A    
C32   O14   A    
C33   O15   A    
C8    C10   A    
Cu1   O2    S    
C20   C22   A    
C47   C51   A    
C5    C11   A    
C25   C27   A    
C29   C35   A    
C42   H8    S    
C7    F3    S    
C30   C36   A    
C28   N2    A    
C49   H15   S    
C21   C23   A    
Cu1   N3    S    
C50   C54   A    
C9    H19   S    
C46   H12   S    
C6    C62   A    
C49   C53   A    
C52   H18   S    
C17   C19   A    
C48   H14   S    
C50   H16   S    
C51   C55   A    
C47   H13   S    
Cu2   O11   S    
C37   C41   A    
C20   F10   S    
Cu3   O14   S    
C48   C52   A    
C23   C25   A    
C33   O11   A    
C35   H1    S    
C21   F5    S    
C32   O10   A    
C31   O13   A    
C36   N4    A    
C34   O12   A    
C35   N3    A    
Cu1   O9    S    
C37   C57   A    
C52   C56   A    
Cu4   O16   S    
