data_mof_unit_68172.cif
_audit_creation_date              2013-03-05T16:02:49-0500
_audit_creation_method            fapswitch 2.2
_symmetry_space_group_name_H-M    P1
_symmetry_Int_Tables_number       1
_space_group_crystal_system       triclinic
_cell_length_a                    7.01182
_cell_length_b                    14.889421
_cell_length_c                    16.29991
_cell_angle_alpha                 90.0
_cell_angle_beta                  91.263379
_cell_angle_gamma                 89.999973
_cell_volume                      1701.32854159

loop_
_atom_site_label
_atom_site_type_symbol
_atom_site_description
_atom_site_fract_x
_atom_site_fract_y
_atom_site_fract_z
_atom_type_partial_charge
O1    O     O_R   0.611670 0.415650 0.164070 -0.534359
O2    O     O_R   0.388330 0.915650 0.835930 -0.534358
O3    O     O_R   0.940950 0.405490 0.337780 -0.540581
O4    O     O_R   0.059050 0.905490 0.662220 -0.540582
O5    O     O_R   0.111350 0.584350 0.338470 -0.574522
O6    O     O_R   0.888650 0.084350 0.661530 -0.574523
C1    C     C_R   0.771828 0.384709 0.368934 1.280658
C2    C     C_R   0.228172 0.884709 0.631066 1.280659
O7    O     O_R   0.941380 0.404630 0.164680 -0.560407
O8    O     O_R   0.058620 0.904630 0.835320 -0.560406
O9    O     O_R   0.111780 0.583470 0.164130 -0.601778
O10   O     O_R   0.888220 0.083470 0.835870 -0.601779
C3    C     C_R   0.771333 0.385191 0.132946 1.107401
C4    C     C_R   0.228667 0.885191 0.867054 1.107401
O11   O     O_R   0.611240 0.416530 0.338400 -0.607711
O12   O     O_R   0.388760 0.916530 0.661600 -0.607711
O13   O     O_3   0.778020 0.558680 0.251290 -0.261791
O14   O     O_3   0.221980 0.058680 0.748710 -0.261792
V1    V     V_3+5 0.052840 0.489110 0.251260 1.386622
V2    V     V_3+5 0.947160 0.989110 0.748740 1.386621
O15   O     O_R   0.441500 0.594510 0.164760 -0.555187
O16   O     O_R   0.558500 0.094510 0.835240 -0.555187
C5    C     C_R   0.271263 0.616957 0.137341 1.201733
C6    C     C_R   0.728737 0.116957 0.862659 1.201733
O17   O     O_R   0.441080 0.595370 0.337860 -0.567215
O18   O     O_R   0.558920 0.095370 0.662140 -0.567215
C7    C     C_R   0.274203 0.617012 0.367363 1.200270
C8    C     C_R   0.725797 0.117012 0.632636 1.200270
V3    V     V_3+5 0.552850 0.510890 0.251270 1.386705
V4    V     V_3+5 0.447150 0.010890 0.748730 1.386705
O19   O     O_3   0.277800 0.441320 0.251250 -0.255698
O20   O     O_3   0.722200 0.941320 0.748750 -0.255697
C9    C     C_3   0.063082 0.691707 0.477135 0.891629
C10   C     C_3   0.936918 0.191707 0.522865 0.891628
C11   C     C_3   0.063059 0.756059 0.551645 0.450431
C12   C     C_3   0.936942 0.256059 0.448355 0.450428
H1    H     H_    0.063175 0.715464 0.607501 0.153705
H2    H     H_    0.936826 0.215464 0.392499 0.153704
C13   C     C_3   0.310476 0.783300 0.404484 0.430083
C14   C     C_3   0.689524 0.283300 0.595516 0.430060
C15   C     C_3   0.426700 0.674449 0.506244 0.619006
C16   C     C_3   0.573300 0.174448 0.493755 0.619006
C17   C     C_3   0.267144 0.687557 0.437944 -0.820174
C18   C     C_3   0.732856 0.187557 0.562055 -0.820157
H3    H     H_    0.568331 0.681911 0.477716 0.174181
H4    H     H_    0.431669 0.181911 0.522283 0.174181
C19   C     C_3   0.244759 0.814112 0.559025 -0.652010
C20   C     C_3   0.755241 0.314112 0.440975 -0.651998
C21   C     C_3   0.281674 0.856436 0.472515 1.277594
C22   C     C_3   0.718325 0.356435 0.527485 1.277584
C23   C     C_3   0.412847 0.746893 0.575295 -0.735752
C24   C     C_3   0.587154 0.246892 0.424705 -0.735754
H5    H     H_    0.396458 0.712164 0.634692 0.310094
H6    H     H_    0.603543 0.212163 0.365307 0.310093
H7    H     H_    0.549408 0.784470 0.580029 0.281351
H8    H     H_    0.450593 0.284469 0.419970 0.281351
H9    H     H_    0.460502 0.786107 0.383873 0.129133
H10   H     H_    0.539498 0.286106 0.616127 0.129120
C25   C     C_R   0.507492 0.899768 0.013428 0.612278
C26   C     C_R   0.492509 0.399769 0.986572 0.612270
C27   C     C_R   0.624387 0.910432 0.083064 0.622783
C28   C     C_R   0.375615 0.410434 0.916937 0.622787
C29   C     C_R   0.608626 0.854710 0.149844 0.003112
C30   C     C_R   0.391375 0.354713 0.850156 0.003142
C31   C     C_R   0.473399 0.786998 0.147754 0.535172
C32   C     C_R   0.526600 0.286999 0.852246 0.535159
C33   C     C_R   0.369974 0.765501 0.074237 -0.218442
C34   C     C_R   0.630025 0.265501 0.925763 -0.218439
C35   C     C_R   0.375252 0.826663 0.005852 -0.182835
C36   C     C_R   0.624748 0.326663 0.994148 -0.182835
C37   C     C_R   0.258184 0.686190 0.070334 -0.041686
C38   C     C_R   0.741815 0.186190 0.929665 -0.041685
C39   C     C_R   0.131899 0.673090 0.002910 -0.202879
C40   C     C_R   0.868101 0.173090 0.997089 -0.202882
C41   C     C_R   0.115935 0.738569 0.938267 -0.123923
C42   C     C_R   0.884065 0.238569 0.061733 -0.123924
C43   C     C_R   0.242547 0.815582 0.936846 0.054691
C44   C     C_R   0.757453 0.315582 0.063154 0.054693
C45   C     C_R   0.021199 0.593088 0.996121 0.591244
C46   C     C_R   0.978800 0.093087 0.003879 0.591247
C47   C     C_R   0.863970 0.590215 0.944782 0.589152
C48   C     C_R   0.136029 0.090214 0.055218 0.589147
C49   C     C_R   0.826002 0.661036 0.893357 0.135597
C50   C     C_R   0.173998 0.161036 0.106643 0.135605
C51   C     C_R   0.974395 0.720373 0.875990 0.291189
C52   C     C_R   0.025606 0.220372 0.124010 0.291187
F1    F     F_    0.936191 0.725955 0.418935 -0.552488
F2    F     F_    0.063809 0.225954 0.581065 -0.552489
F3    F     F_    0.439921 0.912056 0.476913 -0.622007
F4    F     F_    0.560076 0.412055 0.523086 -0.622020
S1    S     S_3+6 0.609692 0.663925 0.838508 0.083422
O21   O     O_2   0.617471 0.606358 0.762888 -0.171625
O22   O     O_2   0.452609 0.631300 0.891548 -0.171137
O23   O     O_3   0.574266 0.771800 0.814609 -0.514681
H11   H     H_    0.551728 0.773853 0.754717 0.383716
S2    S     S_3+6 0.390309 0.163924 0.161491 0.083416
O24   O     O_2   0.382531 0.106358 0.237111 -0.171645
O25   O     O_2   0.547391 0.131299 0.108450 -0.171141
O26   O     O_3   0.425735 0.271800 0.185390 -0.514681
H12   H     H_    0.448273 0.273853 0.245281 0.383717
F5    F     F_    0.514239 0.969040 0.960413 -0.631452
F6    F     F_    0.485764 0.469041 0.039587 -0.631454
F7    F     F_    0.740104 0.982395 0.089813 -0.560027
F8    F     F_    0.259900 0.482397 0.910188 -0.560025
S3    S     S_3+6 0.751734 0.873624 0.238772 0.219783
O27   O     O_2   0.773712 0.787843 0.286270 -0.132349
O28   O     O_2   0.945765 0.906312 0.215097 -0.089116
O29   O     O_3   0.649222 0.951767 0.297795 -0.299833
H13   H     H_    0.514832 0.932240 0.302418 0.389878
S4    S     S_3+6 0.248274 0.373632 0.761227 0.219782
O30   O     O_2   0.226303 0.287854 0.713721 -0.132361
O31   O     O_2   0.054238 0.406317 0.784902 -0.089118
O32   O     O_3   0.350791 0.451783 0.702213 -0.299788
H14   H     H_    0.485182 0.432223 0.697563 0.389858
F9    F     F_    0.431917 0.748391 0.220434 -0.655473
F10   F     F_    0.568080 0.248391 0.779566 -0.655476
F11   F     F_    0.068643 0.514618 0.033586 -0.635799
F12   F     F_    0.931355 0.014618 0.966413 -0.635797
F13   F     F_    0.761581 0.514031 0.938067 -0.628300
F14   F     F_    0.238418 0.014031 0.061932 -0.628301
S5    S     S_3+6 0.966053 0.584144 0.506022 0.090562
O33   O     O_2   0.866222 0.588688 0.586537 -0.166021
O34   O     O_2   0.819869 0.557049 0.442095 -0.285003
O35   O     O_3   0.137440 0.505308 0.513001 -0.323598
H15   H     H_    0.140536 0.475975 0.458705 0.378400
S6    S     S_3+6 0.033947 0.084143 0.493978 0.090562
O36   O     O_2   0.133775 0.088687 0.413462 -0.166019
O37   O     O_2   0.180132 0.057049 0.557904 -0.285005
O38   O     O_3   0.862560 0.005307 0.487000 -0.323597
H16   H     H_    0.859468 0.975973 0.541296 0.378401
S7    S     S_3+6 0.034293 0.712321 0.772268 0.036051
O39   O     O_2   0.226977 0.748638 0.756664 -0.372645
O40   O     O_2   0.032877 0.614992 0.747428 -0.133043
O41   O     O_3   0.872533 0.768917 0.715655 -0.507996
H17   H     H_    0.801677 0.723194 0.683247 0.379011
S8    S     S_3+6 0.965708 0.212321 0.227732 0.036050
O42   O     O_2   0.773024 0.248638 0.243336 -0.372647
O43   O     O_2   0.967125 0.114992 0.252572 -0.133046
O44   O     O_3   0.127468 0.268917 0.284344 -0.507996
H18   H     H_    0.198325 0.223194 0.316753 0.379011
F15   F     F_    0.899606 0.808380 0.548594 -0.630714
F16   F     F_    0.100394 0.308380 0.451407 -0.630713
F17   F     F_    0.197063 0.801971 0.335762 -0.517578
F18   F     F_    0.802937 0.301971 0.664238 -0.517583
F19   F     F_    0.127590 0.906568 0.447893 -0.514258
F20   F     F_    0.872407 0.406568 0.552106 -0.514259
F21   F     F_    0.427618 0.589998 0.540683 -0.524520
F22   F     F_    0.572382 0.089997 0.459317 -0.524518

loop_
_geom_bond_atom_site_label_1
_geom_bond_atom_site_label_2
_geom_bond_distance
_ccdc_geom_bond_type
C32   C34   1.423371 A    
C29   C31   1.383932 A    
S6    O36   1.502487 D    
C36   C44   1.453289 A    
O13   V3    1.731784 S    
C35   C43   1.453289 A    
C48   F14   1.345606 S    
O4    C2    1.336568 A    
S7    O41   1.673911 S    
C11   C19   1.542094 S    
C19   C21   1.571180 S    
S3    O28   1.503304 D    
O9    V1    2.046367 S    
C22   F4    1.385170 S    
C40   C42   1.438084 A    
C11   H1    1.092814 S    
C42   C44   1.450682 A    
O32   H14   0.990793 S    
O3    C1    1.336569 A    
C16   H4    1.111381 S    
C33   C37   1.418024 A    
O12   V4    2.032958 S    
C13   H9    1.112119 S    
S2    O26   1.670055 S    
O29   H13   0.990609 S    
C26   C28   1.394396 A    
O7    V1    2.033712 S    
C50   S2    1.744080 S    
C4    C43   1.540440 S    
C27   C29   1.375040 A    
C12   F16   1.385782 S    
S4    O30   1.499767 D    
S5    O35   1.681944 S    
O7    C3    1.321290 A    
O13   V1    2.187768 S    
O5    C7    1.318527 A    
C41   C51   1.429830 A    
O6    C8    1.318528 A    
O8    V2    2.033712 S    
C31   C33   1.423370 A    
S2    O25   1.496180 D    
C28   C30   1.375040 A    
O3    V1    2.050201 S    
O14   V4    1.731783 S    
C29   S3    1.767245 S    
C14   C18   1.558623 S    
C23   H7    1.110234 S    
C10   S6    1.806574 S    
C22   F20   1.366159 S    
C20   C22   1.571181 S    
V1    O19   1.730451 S    
C2    O12   1.309727 A    
C40   C46   1.424739 A    
C9    S5    1.806574 S    
C15   C17   1.572970 S    
C16   C18   1.572969 S    
S8    O44   1.673912 S    
C26   F6    1.347077 S    
C47   C49   1.369526 A    
C24   H6    1.105827 S    
O11   V3    2.032958 S    
C28   F8    1.347065 S    
O17   V3    2.058460 S    
S3    O29   1.681210 S    
C46   F12   1.356362 S    
C25   C27   1.394399 A    
C14   H10   1.112118 S    
C25   F5    1.347079 S    
C5    C37   1.503168 S    
C10   C18   1.580983 S    
C38   C40   1.409622 A    
O8    C4    1.321290 A    
C21   F3    1.385168 S    
S1    O21   1.503310 D    
C37   C39   1.409622 A    
C13   C17   1.558623 S    
C1    O11   1.309727 A    
S6    O38   1.681942 S    
O15   V3    2.024746 S    
C8    C18   1.559430 S    
C33   C35   1.440486 A    
C9    C17   1.580984 S    
S1    O22   1.496178 D    
C30   S4    1.767244 S    
O26   H12   0.985965 S    
C15   F21   1.376996 S    
C26   C36   1.433456 A    
C34   C38   1.418026 A    
S2    O24   1.503309 D    
O10   V2    2.046366 S    
O1    V3    2.055994 S    
C39   C45   1.424739 A    
C21   F19   1.366158 S    
C10   F2    1.383607 S    
C41   C43   1.450682 A    
S4    O32   1.681227 S    
S5    O33   1.502487 D    
C32   F10   1.354140 S    
C11   F15   1.385782 S    
C46   C48   1.369976 A    
C49   C51   1.398685 A    
C25   C35   1.433456 A    
O18   V4    2.058460 S    
C48   C50   1.369525 A    
O15   C5    1.308733 A    
O16   C6    1.308731 A    
O1    C3    1.319631 A    
C39   C41   1.438086 A    
S7    O39   1.482441 D    
C42   C52   1.429832 A    
C49   S1    1.744079 S    
C6    C38   1.503170 S    
S8    O43   1.504641 D    
C45   C47   1.369976 A    
O38   H16   0.987595 S    
V2    O20   1.730452 S    
C52   S8    1.755107 S    
O10   C6    1.308176 A    
C3    C44   1.540439 S    
S6    O37   1.500685 D    
O16   V4    2.024748 S    
C27   F7    1.347063 S    
C13   F17   1.387500 S    
S8    O42   1.482441 D    
S7    O40   1.504642 D    
C19   C23   1.564405 S    
O44   H18   0.988840 S    
C13   C21   1.570386 S    
O41   H17   0.988839 S    
O5    V1    2.043092 S    
O17   C7    1.314947 A    
O6    V2    2.043092 S    
S3    O27   1.499754 D    
C47   F13   1.345605 S    
O18   C8    1.314947 A    
O2    V4    2.055997 S    
C1    C20   1.582198 S    
C14   F18   1.387501 S    
C31   F9    1.354141 S    
C2    C19   1.582198 S    
V3    O19   2.189173 S    
C51   S7    1.755105 S    
C12   H2    1.092816 S    
V4    O20   2.189173 S    
C14   C22   1.570385 S    
C45   F11   1.356363 S    
O9    C5    1.308176 A    
C9    C11   1.546972 S    
C10   C12   1.546974 S    
C12   C20   1.542095 S    
O14   V2    2.187768 S    
C9    F1    1.383608 S    
O23   H11   0.985965 S    
O2    C4    1.319630 A    
S4    O31   1.503318 D    
S5    O34   1.500684 D    
C16   F22   1.376995 S    
O4    V2    2.050200 S    
C7    C17   1.559430 S    
C20   C24   1.564403 S    
C34   C36   1.440488 A    
C16   C24   1.563497 S    
C15   H3    1.111381 S    
C50   C52   1.398685 A    
C23   H5    1.105826 S    
C15   C23   1.563497 S    
C24   H8    1.110235 S    
C30   C32   1.383934 A    
O35   H15   0.987596 S    
S1    O23   1.670056 S    
