data_mof_unit_15884.cif
_audit_creation_date              2012-12-11T16:08:32-0500
_audit_creation_method            fapswitch 2.2
_symmetry_space_group_name_H-M    P1
_symmetry_Int_Tables_number       1
_space_group_crystal_system       triclinic
_cell_length_a                    12.96411
_cell_length_b                    13.301573
_cell_length_c                    27.697476
_cell_angle_alpha                 95.177508
_cell_angle_beta                  90.206309
_cell_angle_gamma                 119.11279
_cell_volume                      4149.60057039

loop_
_atom_site_label
_atom_site_type_symbol
_atom_type_description
_atom_site_fract_x
_atom_site_fract_y
_atom_site_fract_z
_atom_type_partial_charge
C1    C     C_R   0.628112 0.894162 0.427949 0.548463
C2    C     C_R   0.592071 0.351094 0.230225 -0.123882
C3    C     C_R   0.584754 0.337541 0.279674 -0.158382
C4    C     C_R   0.671303 0.325087 0.304706 0.055871
C5    C     C_R   0.684590 0.349719 0.204925 0.000052
C6    C     C_1   0.694722 0.370359 0.154480 -0.058108
C7    C     C_1   0.654596 0.300195 0.354708 -0.003298
C8    C     C_1   0.704143 0.396353 0.113447 -0.023213
C9    C     C_R   0.205829 0.760028 0.346261 -0.128947
C10   C     C_R   0.198124 0.757501 0.296308 0.015033
C11   C     C_R   0.187697 0.754738 0.195740 0.001305
C12   C     C_R   0.600922 0.221777 0.440514 0.543742
C13   C     C_R   0.201712 0.669926 0.216618 -0.118783
C14   C     C_R   0.205046 0.670323 0.266711 -0.135735
C15   C     C_R   0.169400 0.745686 0.145963 -0.178252
C16   C     C_R   0.135665 0.818318 0.125384 -0.013448
C17   C     C_R   0.203277 0.942309 0.356191 -0.133429
C18   C     C_R   0.188540 0.937422 0.305824 0.017309
C19   C     C_R   0.189574 0.846421 0.275784 0.067876
C20   C     C_R   0.178515 0.024411 0.284827 -0.151023
C21   C     C_R   0.166994 0.019839 0.234430 -0.122524
C22   C     C_R   0.167130 0.929070 0.204137 0.032368
C23   C     C_R   0.269995 0.876362 0.425274 0.546239
C24   C     C_R   0.182393 0.844073 0.225182 0.019971
C25   C     C_R   0.146278 0.917901 0.153562 0.252831
C26   C     C_R   0.216753 0.855908 0.376284 -0.003265
C27   C     C_R   0.760962 0.918191 0.361704 -0.124373
C28   C     C_R   0.771237 0.904606 0.312066 0.019609
C29   C     C_R   0.779349 0.896952 0.211479 0.010630
C30   C     C_R   0.876376 0.981077 0.240955 -0.124766
C31   C     C_R   0.873397 0.983110 0.291108 -0.118104
C32   C     C_R   0.783177 0.894069 0.161594 -0.119678
C33   C     C_R   0.693636 0.801462 0.131515 -0.006698
C34   C     C_R   0.627017 0.899390 0.565187 0.544516
C35   C     C_R   0.560693 0.755452 0.353438 -0.134051
C36   C     C_R   0.570918 0.738540 0.303621 0.013818
C37   C     C_R   0.674304 0.817373 0.282613 0.062631
C38   C     C_R   0.476850 0.649844 0.274008 -0.128506
C39   C     C_R   0.483722 0.641840 0.223563 -0.130597
C40   C     C_R   0.583831 0.723914 0.202231 0.015665
C41   C     C_R   0.679256 0.812252 0.232079 0.062728
C42   C     C_R   0.592460 0.717805 0.151785 -0.137428
C43   C     C_R   0.652601 0.850675 0.381666 -0.005662
C44   C     C_R   0.742052 0.299825 0.651388 -0.137072
C45   C     C_R   0.603572 0.228006 0.578255 0.546733
C46   C     C_R   0.755623 0.322533 0.701946 0.010587
C47   C     C_R   0.769664 0.349198 0.803957 0.012323
C48   C     C_R   0.859401 0.341926 0.778347 -0.141269
C49   C     C_R   0.851675 0.327177 0.727592 -0.146811
C50   C     C_R   0.777753 0.367808 0.854678 -0.137066
C51   C     C_R   0.688105 0.377758 0.879322 -0.006314
C52   C     C_R   0.563061 0.316036 0.652116 -0.131214
C53   C     C_R   0.571933 0.332752 0.702327 0.010445
C54   C     C_R   0.667224 0.333777 0.727513 0.063519
C55   C     C_R   0.482391 0.340398 0.727654 -0.141087
C56   C     C_R   0.272263 0.879854 0.563533 0.545881
C57   C     C_R   0.485336 0.345841 0.777961 -0.139722
C58   C     C_R   0.579733 0.347270 0.803317 0.010058
C59   C     C_R   0.672234 0.343208 0.778274 0.062508
C60   C     C_R   0.585781 0.358820 0.853520 -0.129134
C61   C     C_R   0.641889 0.289826 0.626842 -0.005045
C62   C     C_1   0.225187 0.864074 0.610724 0.002119
C63   C     C_R   0.208832 0.769511 0.726949 0.290636
C64   C     C_R   0.198522 0.766843 0.777523 -0.094354
C65   C     C_R   0.122767 0.901463 0.779529 -0.120992
C66   C     C_R   0.135963 0.907457 0.729611 -0.158873
C67   C     C_1   0.634153 0.270767 0.395156 -0.001475
C68   C     C_R   0.179045 0.842003 0.703279 0.049119
C69   C     C_R   0.154549 0.831573 0.803591 -0.004121
C70   C     C_1   0.132010 0.817654 0.854075 -0.054742
C71   C     C_1   0.198976 0.853423 0.652401 -0.010479
C72   C     C_1   0.104349 0.798746 0.895149 -0.012566
C73   C     C_1   0.641150 0.868247 0.612035 -0.008110
C74   C     C_R   0.679005 0.929980 0.738888 -0.097345
C75   C     C_R   0.679275 0.917306 0.788431 -0.103695
C76   C     C_R   0.616182 0.713455 0.769244 -0.112103
C77   C     C_R   0.616017 0.726181 0.719604 -0.106847
C78   C     C_R   0.767766 0.327752 0.280261 0.294859
C79   C     C_R   0.648551 0.834818 0.704334 0.045985
C80   C     C_R   0.648305 0.809165 0.803771 0.033654
C81   C     C_1   0.661562 0.798979 0.854459 -0.061490
C82   C     C_1   0.646423 0.849483 0.653514 -0.049140
C83   C     C_1   0.680964 0.789845 0.895995 -0.015344
C84   C     C_R   0.066847 0.774176 0.078746 0.551037
C85   C     C_R   0.717224 0.441681 0.067359 0.543807
C86   C     C_R   0.722181 0.782039 0.081756 0.546175
C87   C     C_R   0.056785 0.766136 0.941395 0.539269
C88   C     C_R   0.710055 0.433719 0.929009 0.545212
C89   C     C_R   0.771402 0.336976 0.229567 -0.100025
C90   C     C_R   0.715968 0.775958 0.943030 0.546073
Cr1   Cr    Cr6+3 0.416430 0.829200 0.492370 1.025817
Cr2   Cr    Cr6+3 0.674630 0.087020 0.504170 1.027794
Cr3   Cr    Cr6+3 0.408920 0.083740 0.503490 1.019173
Cr4   Cr    Cr6+3 0.914010 0.832750 0.013970 1.033491
Cr5   Cr    Cr6+3 0.922310 0.578600 0.003000 1.017237
Cr6   Cr    Cr6+3 0.656280 0.574630 0.003870 1.012506
H1    H     H_    0.157043 0.087108 0.219396 0.135813
H2    H     H_    0.178688 0.095480 0.307349 0.100208
H3    H     H_    0.211322 0.016308 0.379308 0.122740
H4    H     H_    0.861858 0.959503 0.146536 0.163179
H5    H     H_    0.833114 0.989504 0.383798 0.132902
H6    H     H_    0.954302 0.045214 0.225160 0.111520
H7    H     H_    0.948994 0.048474 0.313573 0.098094
H8    H     H_    0.523460 0.646065 0.128676 0.117977
H9    H     H_    0.410141 0.572905 0.201272 0.099403
H10   H     H_    0.397538 0.587898 0.289830 0.094653
H11   H     H_    0.841028 0.334312 0.209039 0.101189
H12   H     H_    0.477626 0.701018 0.369184 0.123914
H13   H     H_    0.856471 0.381483 0.874574 0.124803
H14   H     H_    0.804292 0.281591 0.631751 0.125104
H15   H     H_    0.934890 0.346781 0.797559 0.103012
H16   H     H_    0.920379 0.318973 0.708435 0.102552
H17   H     H_    0.515164 0.364508 0.872242 0.134780
H18   H     H_    0.414744 0.350472 0.797087 0.102809
H19   H     H_    0.408592 0.338939 0.708475 0.105238
H20   H     H_    0.487116 0.311241 0.633213 0.132701
H21   H     H_    0.525230 0.362360 0.211707 0.115976
H22   H     H_    0.223578 0.713538 0.796429 0.107781
H23   H     H_    0.087250 0.950815 0.799301 0.124655
H24   H     H_    0.112897 0.963334 0.711565 0.115636
H25   H     H_    0.703264 0.014211 0.727509 0.118350
H26   H     H_    0.705664 0.992173 0.814704 0.112732
H27   H     H_    0.593358 0.629614 0.780667 0.118340
H28   H     H_    0.591175 0.651746 0.693265 0.107782
H29   H     H_    0.510602 0.335555 0.298381 0.113516
H30   H     H_    0.167569 0.672963 0.124027 0.139710
H31   H     H_    0.214904 0.692105 0.361378 0.127410
H32   H     H_    0.206462 0.601475 0.194131 0.098144
H33   H     H_    0.213956 0.603161 0.282405 0.091971
O1    O     O_R   0.296680 0.802170 0.437540 -0.524320
O2    O     O_R   0.662610 0.183990 0.557860 -0.502897
O3    O     O_R   0.500730 0.201280 0.562180 -0.519896
O4    O     O_R   0.312500 0.978850 0.548170 -0.498965
O5    O     O_3   0.499990 0.999990 0.500010 -0.243433
O6    O     O_R   0.820790 0.857990 0.068830 -0.508490
O7    O     O_R   0.016700 0.827330 0.062850 -0.459227
O8    O     O_R   0.041970 0.673520 0.060040 -0.528505
O9    O     O_R   0.817980 0.483660 0.048840 -0.491046
O10   O     O_R   0.637200 0.461990 0.052510 -0.517605
O11   O     O_R   0.664790 0.681920 0.057970 -0.501759
O12   O     O_R   0.525380 0.838530 0.443500 -0.506123
O13   O     O_R   0.815840 0.852920 0.961840 -0.509792
O14   O     O_R   0.012100 0.822630 0.963670 -0.502826
O15   O     O_R   0.037010 0.668460 0.953040 -0.512604
O16   O     O_R   0.813390 0.478970 0.949660 -0.500656
O17   O     O_R   0.632250 0.456930 0.945520 -0.522601
O18   O     O_R   0.660200 0.677230 0.958780 -0.496248
O19   O     O_3   0.830870 0.661990 0.006950 -0.244164
O20   O     O_R   0.702130 0.995190 0.446810 -0.513571
O21   O     O_R   0.661770 0.181390 0.458760 -0.485590
O22   O     O_R   0.499820 0.198480 0.455280 -0.516104
O23   O     O_R   0.311660 0.976250 0.449080 -0.501106
O24   O     O_R   0.297580 0.804960 0.544440 -0.498786
O25   O     O_R   0.526220 0.841130 0.542590 -0.490790
O26   O     O_R   0.703030 0.997990 0.553710 -0.514850
O27   O     O_3   0.849034 0.310509 0.306365 -0.566628
C91   C     C_3   0.966657 0.374236 0.291971 0.007157
H34   H     H_    0.024791 0.417528 0.325426 0.148208
H35   H     H_    0.982091 0.445381 0.269603 0.121541
C92   C     C_3   0.003965 0.290978 0.266430 -0.261573
H36   H     H_    0.001606 0.231581 0.292530 0.168221
H37   H     H_    0.941081 0.238499 0.235184 0.166435
C93   C     C_3   0.128543 0.354296 0.248468 -0.499391
H38   H     H_    0.132717 0.411706 0.221002 0.143934
H39   H     H_    0.152574 0.290295 0.231330 0.135798
H40   H     H_    0.193253 0.406100 0.279264 0.136086
O28   O     O_3   0.257196 0.709997 0.700752 -0.561911
C94   C     C_3   0.194009 0.589893 0.705790 0.006607
H41   H     H_    0.162957 0.542908 0.668880 0.152144
H42   H     H_    0.113163 0.562100 0.727056 0.116300
C95   C     C_3   0.276871 0.553202 0.728319 -0.256719
H43   H     H_    0.350679 0.570430 0.704147 0.176782
H44   H     H_    0.315195 0.604579 0.763980 0.168176
C96   C     C_3   0.211753 0.424889 0.735588 -0.495453
H45   H     H_    0.138488 0.405978 0.760197 0.143468
H46   H     H_    0.273970 0.401328 0.752229 0.141204
H47   H     H_    0.175377 0.371439 0.700187 0.144325
O29   O     O_3   0.118694 0.994284 0.133523 -0.570874
C97   C     C_3   0.211259 0.066081 0.104951 0.023557
H48   H     H_    0.170306 0.084576 0.074096 0.155105
H49   H     H_    0.261929 0.024766 0.088586 0.109990
C98   C     C_3   0.295457 0.180743 0.134782 -0.295033
H50   H     H_    0.243978 0.220450 0.151325 0.158984
H51   H     H_    0.341718 0.164409 0.164394 0.160065
C99   C     C_3   0.387285 0.265342 0.103259 -0.460015
H52   H     H_    0.442040 0.228793 0.087357 0.158893
H53   H     H_    0.445889 0.347932 0.125726 0.156161
H54   H     H_    0.343288 0.283878 0.073541 0.147723

loop_
_geom_bond_atom_site_label_1
_geom_bond_atom_site_label_2
_ccdc_geom_bond_type
C66   C68   A    
C23   O23   A    
C91   H34   S    
C16   C25   A    
C75   H26   S    
C35   C36   A    
Cr5   O16   S    
C95   H43   S    
Cr6   O10   S    
O29   C97   S    
C57   C58   A    
Cr1   O1    S    
C53   C54   A    
C95   H44   S    
C46   C49   A    
C90   O18   A    
C33   C42   A    
O27   C91   S    
C93   H39   S    
Cr1   O24   S    
C29   C32   A    
Cr3   O4    S    
C52   C61   A    
Cr4   O14   S    
C5    C6    S    
C65   C69   A    
C99   H53   S    
C58   C60   A    
C15   C16   A    
C11   C24   A    
C16   C84   S    
C64   H22   S    
C17   C18   A    
C8    C85   S    
C23   C26   S    
C45   C61   S    
C83   C90   S    
C96   H45   S    
C35   H12   S    
C81   C83   T    
C98   H50   S    
C13   H32   S    
C11   C15   A    
C1    C43   S    
C94   C95   S    
C84   O7    A    
C93   H38   S    
C15   H30   S    
C74   H25   S    
Cr4   O7    S    
C88   O16   A    
C1    O20   A    
C87   O15   A    
Cr3   O3    S    
C35   C43   A    
C75   C80   A    
C85   O10   A    
C18   C20   A    
C86   O11   A    
C97   C98   S    
C94   H42   S    
Cr5   O15   S    
C91   H35   S    
C66   H24   S    
C21   C22   A    
C97   H49   S    
C12   O22   A    
C46   C54   A    
C60   H17   S    
C4    C7    S    
C95   C96   S    
C2    H21   S    
C44   C46   A    
C9    C26   A    
C56   O4    A    
C47   C50   A    
C98   H51   S    
C54   C59   A    
C53   C55   A    
C78   C89   A    
Cr4   O19   S    
C38   C39   A    
Cr6   O19   S    
C12   C67   S    
Cr5   O8    S    
C74   C75   A    
C63   C64   A    
Cr4   O13   S    
C92   C93   S    
C12   O21   A    
C93   H40   S    
C76   C77   A    
Cr1   O25   S    
Cr3   O5    S    
C10   C14   A    
O28   C94   S    
C25   O29   S    
C18   C19   A    
C99   H54   S    
C6    C8    T    
C50   C51   A    
C58   C59   A    
C34   O26   A    
C47   C59   A    
C22   C25   A    
C50   H13   S    
C32   H4    S    
C23   O1    A    
C98   C99   S    
C92   H37   S    
C38   H10   S    
C33   C86   S    
C4    C78   A    
C29   C30   A    
C21   H1    S    
C40   C42   A    
C47   C48   A    
C10   C19   A    
C89   H11   S    
Cr4   O6    S    
C65   H23   S    
C77   C79   A    
C9    H31   S    
C64   C69   A    
C17   H3    S    
C96   H47   S    
C90   O13   A    
C30   H6    S    
C49   H16   S    
C56   O24   A    
C94   H41   S    
C84   O8    A    
C45   O2    A    
C34   O25   A    
C74   C79   A    
C55   C57   A    
Cr2   O21   S    
C56   C62   S    
Cr3   O22   S    
C2    C5    A    
C17   C26   A    
C3    C4    A    
C73   C82   T    
C39   C40   A    
C72   C87   S    
C52   C53   A    
C9    C10   A    
C52   H20   S    
C39   H9    S    
Cr6   O18   S    
C63   C68   A    
C40   C41   A    
Cr5   O9    S    
C29   C41   A    
C76   H27   S    
C28   C31   A    
Cr2   O5    S    
Cr5   O19   S    
C76   C80   A    
C80   C81   S    
C42   H8    S    
C51   C88   S    
Cr6   O11   S    
C79   C82   S    
C3    H29   S    
C57   H18   S    
Cr1   O12   S    
C44   C61   A    
C91   C92   S    
Cr6   O17   S    
C32   C33   A    
Cr2   O2    S    
C36   C38   A    
C2    C3    A    
C77   H28   S    
C92   H36   S    
C11   C13   A    
C78   O27   S    
C99   H52   S    
C30   C31   A    
Cr1   O5    S    
C55   H19   S    
C28   C37   A    
C68   C71   S    
C48   C49   A    
C63   O28   S    
C27   H5    S    
C62   C71   T    
C19   C24   A    
Cr2   O26   S    
C22   C24   A    
C37   C41   A    
C69   C70   S    
C96   H46   S    
C1    O12   A    
C34   C73   S    
C7    C67   T    
C97   H48   S    
C27   C43   A    
C86   O6    A    
C48   H15   S    
C20   H2    S    
C20   C21   A    
C45   O3    A    
C36   C37   A    
C65   C66   A    
Cr2   O20   S    
C88   O17   A    
Cr3   O23   S    
C70   C72   T    
C51   C60   A    
C87   O14   A    
C13   C14   A    
C85   O9    A    
C5    C89   A    
C31   H7    S    
C27   C28   A    
C14   H33   S    
C44   H14   S    
