data_mof_unit_19972.cif
_audit_creation_date              2012-12-10T20:34:56-0500
_audit_creation_method            fapswitch 2.2
_symmetry_space_group_name_H-M    P1
_symmetry_Int_Tables_number       1
_space_group_crystal_system       triclinic
_cell_length_a                    10.637996
_cell_length_b                    10.712316
_cell_length_c                    9.902375
_cell_angle_alpha                 90.604077
_cell_angle_beta                  90.329152
_cell_angle_gamma                 90.721922
_cell_volume                      1128.27885835

loop_
_atom_site_label
_atom_site_type_symbol
_atom_type_description
_atom_site_fract_x
_atom_site_fract_y
_atom_site_fract_z
_atom_type_partial_charge
C1    C     C_R   0.501852 0.260283 0.499254 0.959407
C2    C     C_R   0.454888 0.937020 0.611272 0.111809
C3    C     C_3   0.500425 0.933079 0.754238 -0.452309
C4    C     C_R   0.257759 0.502686 0.500034 0.870479
C5    C     C_3   0.500207 0.074392 0.753105 -0.397433
C6    C     C_R   0.420963 0.422066 0.069540 0.236588
C7    C     C_R   0.588040 0.564901 0.075061 -0.157178
C8    C     C_R   0.589801 0.565939 0.930454 0.254717
C9    C     C_R   0.419845 0.423632 0.927297 0.141150
C10   C     C_3   0.280162 0.424705 0.919720 -0.560422
C11   C     C_3   0.280218 0.420487 0.073116 -0.020615
C12   C     C_3   0.878040 0.505267 0.500851 0.028376
C13   C     C_R   0.501020 0.739633 0.500333 0.909902
C14   C     C_R   0.741950 0.502821 0.500393 0.917365
C15   C     C_3   0.069368 0.378362 0.446142 -0.461584
C16   C     C_3   0.924958 0.374815 0.454504 0.418359
C17   C     C_3   0.072473 0.525218 0.646539 -0.414241
C18   C     C_3   0.073891 0.614525 0.412591 -0.467087
C19   C     C_3   0.121165 0.505324 0.500694 0.078451
C20   C     C_3   0.854453 0.798314 0.517418 -0.753743
C21   C     C_3   0.772339 0.715121 0.936246 -0.910569
C22   C     C_3   0.282144 0.186612 0.099868 -0.708741
C23   C     C_3   0.930096 0.530055 0.646305 -0.344932
C24   C     C_3   0.930114 0.603298 0.397396 -0.000198
C25   C     C_R   0.454972 0.064700 0.610039 0.030838
C26   C     C_R   0.497367 0.128106 0.496538 -0.230332
C27   C     C_R   0.529123 0.062222 0.378434 0.602537
C28   C     C_R   0.527330 0.933846 0.379514 -0.304017
C29   C     C_R   0.496590 0.871390 0.498658 -0.185787
F1    F     F_    0.571801 0.120520 0.266192 -0.672261
F2    F     F_    0.886407 0.282937 0.543568 -0.669220
H1    H     H_    0.109582 0.299878 0.504473 0.206495
H2    H     H_    0.097620 0.365726 0.339545 0.152211
H3    H     H_    0.244874 0.514770 0.881035 0.189615
H4    H     H_    0.240989 0.340208 0.868074 0.211927
H5    H     H_    0.240770 0.505691 0.120978 0.134859
H6    H     H_    0.885550 0.349589 0.353252 0.094015
H7    H     H_    0.101648 0.446095 0.710737 0.200077
H8    H     H_    0.893863 0.458256 0.717285 0.237272
H9    H     H_    0.102464 0.705240 0.459669 0.189325
H10   H     H_    0.116897 0.611565 0.310433 0.161490
H11   H     H_    0.912868 0.562100 0.294873 0.106699
H12   H     H_    0.111815 0.613267 0.691394 0.172091
H13   H     H_    0.893363 0.777418 0.312887 0.234240
H14   H     H_    0.822959 0.893551 0.491065 0.251871
H15   H     H_    0.944849 0.807361 0.573249 0.235857
H16   H     H_    0.780166 0.757191 0.581607 0.221692
H17   H     H_    0.657160 0.673718 0.772137 0.271212
H18   H     H_    0.720742 0.788053 0.993219 0.257414
H19   H     H_    0.837098 0.762690 0.865240 0.244904
H20   H     H_    0.830353 0.658502 0.005605 0.252769
H21   H     H_    0.127944 0.303055 0.114670 0.224337
H22   H     H_    0.235294 0.113983 0.161744 0.226171
H23   H     H_    0.900111 0.620596 0.688129 0.184378
H24   H     H_    0.383058 0.188856 0.128077 0.293474
H25   H     H_    0.271092 0.159881 0.991914 0.212119
H26   H     H_    0.557020 0.884027 0.289584 0.196326
H27   H     H_    0.429093 0.892169 0.823033 0.201034
H28   H     H_    0.596376 0.894061 0.763666 0.208686
H29   H     H_    0.428535 0.115587 0.820765 0.196284
H30   H     H_    0.595852 0.116923 0.762375 0.227354
H31   H     H_    0.655257 0.618313 0.134705 0.173227
N1    N     N_R   0.499150 0.499140 0.142800 -0.149697
N2    N     N_R   0.499150 0.499180 0.857150 -0.148067
N3    N     N_2   0.868239 0.724553 0.395205 -0.296537
N4    N     N_2   0.684890 0.635550 0.861294 -0.289084
N5    N     N_2   0.224313 0.306248 0.126549 -0.289476
O1    O     O_R   0.500020 0.316790 0.614690 -0.617299
O2    O     O_R   0.500000 0.316760 0.385350 -0.552245
O3    O     O_R   0.314800 0.500000 0.614670 -0.630927
O4    O     O_R   0.314790 0.499960 0.385330 -0.626543
O5    O     O_R   0.500000 0.683240 0.614650 -0.654476
O6    O     O_R   0.499980 0.683210 0.385310 -0.624085
O7    O     O_R   0.685210 0.500040 0.614670 -0.623173
O8    O     O_R   0.685200 0.500000 0.385330 -0.634818
Zn1   Zn    Zn3+2 0.500010 0.500020 0.653130 0.942176
Zn2   Zn    Zn3+2 0.499990 0.499980 0.346870 0.975515

loop_
_geom_bond_atom_site_label_1
_geom_bond_atom_site_label_2
_ccdc_geom_bond_type
C8    N4    S    
C21   N4    S    
C9    N2    A    
C24   H11   S    
O2    Zn2   S    
O4    Zn2   S    
O5    Zn1   S    
C6    C9    A    
C4    O3    A    
C15   H1    S    
C28   H26   S    
C16   F2    S    
C15   C19   S    
C12   C23   S    
C26   C27   A    
C17   C23   S    
O7    Zn1   S    
C2    C29   A    
C18   C24   S    
C14   O7    A    
C13   C29   S    
C11   H5    S    
C15   C16   S    
C1    O1    A    
C18   C19   S    
C18   H9    S    
C4    C19   S    
C12   C16   S    
C10   H4    S    
C9    C10   S    
C20   H14   S    
C16   H6    S    
C27   F1    S    
H13   N3    S    
C21   H18   S    
C21   H19   S    
C11   N5    S    
C22   H22   S    
C20   N3    S    
C7    C8    A    
C18   H10   S    
C6    C11   S    
C22   H25   S    
C25   C26   A    
C1    O2    A    
C6    N1    A    
C17   H12   S    
C7    H31   S    
N2    Zn1   S    
C5    H30   S    
C10   H3    S    
O8    Zn2   S    
C7    N1    A    
H21   N5    S    
C24   N3    S    
C8    N2    A    
C5    C25   S    
C13   O6    A    
O3    Zn1   S    
C1    C26   S    
C21   H20   S    
C23   H23   S    
N1    Zn2   S    
C28   C29   A    
C5    H29   S    
C12   C14   S    
C3    C5    S    
C22   H24   S    
C13   O5    A    
O1    Zn1   S    
C12   C24   S    
C14   O8    A    
C2    C3    S    
C23   H8    S    
C17   C19   S    
C2    C25   A    
C17   H7    S    
C22   N5    S    
C20   H16   S    
C10   C11   S    
C3    H27   S    
C27   C28   A    
O6    Zn2   S    
H17   N4    S    
C15   H2    S    
C4    O4    A    
C20   H15   S    
C3    H28   S    
