data_mof_unit_42033.cif
_audit_creation_date              2013-03-05T15:52:07-0500
_audit_creation_method            fapswitch 2.2
_symmetry_space_group_name_H-M    P1
_symmetry_Int_Tables_number       1
_space_group_crystal_system       triclinic
_cell_length_a                    6.959713
_cell_length_b                    19.591426
_cell_length_c                    23.358606
_cell_angle_alpha                 95.990842
_cell_angle_beta                  91.170929
_cell_angle_gamma                 88.679029
_cell_volume                      3166.20547241

loop_
_atom_site_label
_atom_site_type_symbol
_atom_site_description
_atom_site_fract_x
_atom_site_fract_y
_atom_site_fract_z
_atom_type_partial_charge
O1    O     O_R   0.617180 0.809390 0.808140 -0.582121
O2    O     O_R   0.382820 0.190610 0.191860 -0.581894
O3    O     O_R   0.293300 0.672410 0.795490 -0.588614
O4    O     O_R   0.706700 0.327590 0.204510 -0.588756
O5    O     O_R   0.117220 0.690610 0.691850 -0.567907
O6    O     O_R   0.882780 0.309390 0.308150 -0.566258
C1    C     C_R   0.464783 0.647603 0.804921 1.044158
C2    C     C_R   0.535216 0.352395 0.195077 1.044692
O7    O     O_R   0.287840 0.807750 0.814460 -0.579720
O8    O     O_R   0.712160 0.192250 0.185540 -0.579893
O9    O     O_R   0.111720 0.826910 0.710960 -0.585814
O10   O     O_R   0.888280 0.173090 0.289040 -0.574250
C3    C     C_R   0.456509 0.830745 0.833179 0.942428
C4    C     C_R   0.543489 0.169255 0.166821 0.940799
O11   O     O_R   0.622680 0.673080 0.789040 -0.578201
O12   O     O_R   0.377320 0.326920 0.210960 -0.577493
O13   O     O_3   0.448820 0.756130 0.716020 -0.245151
O14   O     O_3   0.551180 0.243870 0.283980 -0.245401
V1    V     V_3+5 0.176220 0.748860 0.756300 1.215616
V2    V     V_3+5 0.823780 0.251140 0.243700 1.217109
O15   O     O_R   0.781670 0.827580 0.704500 -0.579703
O16   O     O_R   0.218330 0.172420 0.295500 -0.589867
C5    C     C_R   0.948294 0.851502 0.693541 1.036918
C6    C     C_R   0.052326 0.148248 0.306247 1.031074
O17   O     O_R   0.787130 0.692240 0.685530 -0.557160
O18   O     O_R   0.212870 0.307760 0.314470 -0.557969
C7    C     C_R   0.956089 0.669238 0.666792 1.007206
C8    C     C_R   0.043913 0.330741 0.333222 1.004431
V3    V     V_3+5 0.675510 0.751130 0.743690 1.237248
V4    V     V_3+5 0.324490 0.248870 0.256310 1.230502
O19   O     O_3   0.952780 0.743870 0.783980 -0.278172
O20   O     O_3   0.047220 0.256130 0.216020 -0.277423
C9    C     C_1   0.966601 0.617168 0.614742 -0.229848
C10   C     C_1   0.033412 0.382772 0.385298 -0.228227
C11   C     C_1   0.978177 0.573638 0.571936 0.118683
C12   C     C_1   0.021850 0.426272 0.428123 0.123701
C13   C     C_1   0.993431 0.521813 0.521347 0.043563
C14   C     C_1   0.006607 0.478079 0.478725 0.045475
C15   C     C_R   0.952343 0.914188 0.663246 -0.298321
C16   C     C_R   0.058143 0.085905 0.337263 -0.308577
C17   C     C_R   0.935262 0.038097 0.668577 -0.095115
C18   C     C_R   0.181721 0.969815 0.339890 -0.104478
C19   C     C_R   0.926568 0.977903 0.695131 -0.265615
C20   C     C_R   0.144545 0.026535 0.309999 -0.255931
C21   C     C_R   0.987084 0.911198 0.603679 0.773464
C22   C     C_R   0.008685 0.087832 0.395808 0.749922
C23   C     C_R   0.016228 0.972553 0.576837 -0.060829
C24   C     C_R   0.068619 0.033384 0.429204 -0.060076
C25   C     C_R   0.978808 0.036030 0.609984 0.059449
C26   C     C_R   0.146326 0.972800 0.399003 0.062296
C27   C     C_R   0.075755 0.973596 0.518229 -0.095990
C28   C     C_R   0.053658 0.035980 0.490914 -0.094515
C29   C     C_R   0.036177 0.098719 0.527342 0.442033
C30   C     C_R   0.172655 0.916968 0.487312 0.438884
C31   C     C_R   0.993222 0.097571 0.585428 -0.290038
C32   C     C_R   0.199718 0.916613 0.428233 -0.294809
H1    H     H_    0.979350 0.145769 0.612564 0.176568
H2    H     H_    0.273132 0.872970 0.405216 0.176491
H3    H     H_    0.184828 0.024308 0.265258 0.144209
H4    H     H_    0.898249 0.981012 0.740783 0.143592
H5    H     H_    0.911182 0.086738 0.694322 0.137159
H6    H     H_    0.246107 0.924195 0.317089 0.137016
C33   C     C_R   0.484947 0.585196 0.834761 -0.383351
C34   C     C_R   0.515049 0.414800 0.165234 -0.382856
C35   C     C_R   0.603040 0.468284 0.833891 -0.268241
C36   C     C_R   0.396935 0.531708 0.166099 -0.269385
C37   C     C_R   0.556335 0.524852 0.804710 0.775272
C38   C     C_R   0.443651 0.475143 0.195282 0.774020
C39   C     C_R   0.454613 0.587696 0.894212 -0.220758
C40   C     C_R   0.545381 0.412297 0.105782 -0.220727
C41   C     C_R   0.494019 0.529571 0.924855 0.174865
C42   C     C_R   0.505962 0.470419 0.075136 0.174761
C43   C     C_R   0.577975 0.470818 0.893521 -0.017537
C44   C     C_R   0.421999 0.529172 0.106469 -0.016668
C45   C     C_R   0.463786 0.528635 0.985595 -0.198337
C46   C     C_R   0.536190 0.471354 0.014396 -0.198470
C47   C     C_R   0.637697 0.417817 0.981342 0.766412
C48   C     C_R   0.362270 0.582170 0.018647 0.766426
C49   C     C_R   0.648209 0.416374 0.922050 -0.293788
C50   C     C_R   0.351756 0.583614 0.077939 -0.294445
H7    H     H_    0.722588 0.373391 0.898410 0.174622
H8    H     H_    0.277370 0.626595 0.101578 0.174477
H9    H     H_    0.584725 0.362775 0.084567 0.209891
H10   H     H_    0.415280 0.637218 0.915430 0.209843
H11   H     H_    0.665199 0.422970 0.810002 0.166884
H12   H     H_    0.334769 0.577022 0.189986 0.166026
C51   C     C_1   0.467223 0.882813 0.885236 -0.300971
C52   C     C_1   0.532768 0.117189 0.114763 -0.301586
C53   C     C_1   0.478653 0.926332 0.928060 0.070913
C54   C     C_1   0.521332 0.073671 0.071939 0.070754
C55   C     C_1   0.493563 0.978140 0.978677 0.005273
C56   C     C_1   0.506419 0.021863 0.021321 0.005252
F1    F     F_    0.740474 0.368146 0.005182 -0.719687
F2    F     F_    0.259482 0.631837 0.994805 -0.719761
F3    F     F_    0.896760 0.141185 0.418333 -0.672466
F4    F     F_    0.976142 0.849078 0.572231 -0.678165
N1    N     N_R   0.098021 0.162729 0.509705 0.266648
O21   O     O_R   0.256411 0.164776 0.481296 -0.369348
O22   O     O_R   0.014779 0.220200 0.529804 -0.334485
N2    N     N_R   0.277303 0.866078 0.516269 0.268481
O23   O     O_R   0.379783 0.884577 0.562291 -0.385551
O24   O     O_R   0.295596 0.803461 0.491939 -0.331662
F5    F     F_    0.411223 0.478231 0.252636 -0.702423
F6    F     F_    0.588760 0.521766 0.747356 -0.700698

loop_
_geom_bond_atom_site_label_1
_geom_bond_atom_site_label_2
_geom_bond_distance
_ccdc_geom_bond_type
C36   C38   1.389420 A    
O13   V3    1.697317 S    
C18   C26   1.402522 A    
C38   F5    1.358022 S    
C17   H5    1.083951 S    
C42   C46   1.440636 A    
V1    O19   1.705044 S    
N1    O21   1.301780 A    
C23   C25   1.416390 A    
C7    C9    1.505167 S    
C16   C22   1.413466 A    
O9    V1    1.987032 S    
C34   C38   1.396831 A    
C11   C13   1.479288 S    
C24   C26   1.417787 A    
O3    C1    1.301527 A    
C48   C50   1.385689 A    
C20   H3    1.083800 S    
O12   V4    1.993858 S    
C36   C44   1.402886 A    
C35   C43   1.402891 A    
C21   C23   1.432804 A    
C17   C25   1.404100 A    
C39   C41   1.425487 A    
O7    C3    1.316980 A    
C9    C11   1.247267 T    
O5    C7    1.311173 A    
O7    V1    1.857750 S    
O6    C8    1.311190 A    
C22   F3    1.356697 S    
C33   C39   1.404545 A    
O8    V2    1.857750 S    
C35   C37   1.389425 A    
O3    V1    1.986130 S    
O14   V4    1.697317 S    
C34   C40   1.404551 A    
C53   C55   1.479285 S    
C18   H6    1.084059 S    
C10   C12   1.247252 T    
O4    C2    1.301528 A    
C15   C21   1.412064 A    
C47   C49   1.385697 A    
C8    C10   1.505154 S    
C2    O12   1.294201 A    
C44   C50   1.389886 A    
C17   C19   1.391637 A    
O10   V2    1.987033 S    
C18   C20   1.389453 A    
O1    V3    1.838188 S    
N1    O22   1.301718 A    
C37   F6    1.358022 S    
O11   V3    1.993857 S    
C22   C24   1.435358 A    
C29   C31   1.397887 A    
O17   V3    1.858722 S    
C33   C37   1.396837 A    
C30   N2    1.438451 S    
C27   C28   1.440337 A    
V4    O20   2.137947 S    
C46   C47   1.419296 A    
C42   C44   1.418689 A    
O8    C4    1.316994 A    
C55   C56   1.247303 T    
C49   H7    1.084670 S    
C15   C19   1.395030 A    
C1    O11   1.294203 A    
C29   N1    1.437908 S    
C25   C31   1.394629 A    
O15   V3    1.998012 S    
C26   C32   1.394143 A    
C45   C46   1.443451 A    
C13   C14   1.247306 T    
C54   C56   1.479285 S    
C16   C20   1.396021 A    
C3    C51   1.505203 S    
N2    O24   1.301679 A    
C43   C49   1.389887 A    
C40   H9    1.074617 S    
C1    C33   1.471862 S    
C19   H4    1.083606 S    
C2    C34   1.471862 S    
C50   H8    1.084669 S    
C52   C54   1.247273 T    
O18   V4    1.858724 S    
C31   H1    1.084485 S    
O16   C6    1.297687 A    
O1    C3    1.312108 A    
C12   C14   1.479276 S    
C28   C29   1.424309 A    
C47   F1    1.354068 S    
C41   C43   1.418686 A    
V2    O20   1.705044 S    
C6    C16   1.483092 S    
O16   V4    1.998014 S    
C36   H12   1.084163 S    
C23   C27   1.440706 A    
C30   C32   1.395906 A    
C35   H11   1.084166 S    
O5    V1    1.837140 S    
O17   C7    1.316369 A    
O6    V2    1.837138 S    
O10   C6    1.303226 A    
O18   C8    1.316345 A    
O2    V4    1.838187 S    
C27   C30   1.423150 A    
O15   C5    1.300851 A    
C4    C52   1.505204 S    
V3    O19   2.137945 S    
C39   H10   1.074620 S    
C41   C45   1.440629 A    
C48   F2    1.354072 S    
C5    C15   1.481096 S    
O9    C5    1.299268 A    
N2    O23   1.301888 A    
O13   V1    2.149039 S    
C32   H2    1.084577 S    
O14   V2    2.149038 S    
O2    C4    1.312098 A    
C45   C48   1.419290 A    
O4    V2    1.986130 S    
C24   C28   1.442867 A    
C51   C53   1.247273 T    
C40   C42   1.425493 A    
C21   F4    1.357184 S    
