data_mof_unit_29672.cif
_audit_creation_date              2012-12-11T14:10:58-0500
_audit_creation_method            fapswitch 2.2
_symmetry_space_group_name_H-M    P1
_symmetry_Int_Tables_number       1
_space_group_crystal_system       triclinic
_cell_length_a                    20.05116
_cell_length_b                    17.276622
_cell_length_c                    15.474192
_cell_angle_alpha                 89.998709
_cell_angle_beta                  52.163634
_cell_angle_gamma                 89.999443
_cell_volume                      4233.5496598

loop_
_atom_site_label
_atom_site_type_symbol
_atom_type_description
_atom_site_fract_x
_atom_site_fract_y
_atom_site_fract_z
_atom_type_partial_charge
C1    C     C_R   0.376635 0.196512 0.994095 -0.024724
C2    C     C_3   0.787438 0.807313 0.414706 -0.328608
C3    C     C_3   0.700840 0.244624 0.434164 -0.334749
C4    C     C_3   0.297877 0.756270 0.566546 -0.335023
C5    C     C_3   0.798039 0.743833 0.566450 -0.334971
C6    C     C_3   0.202064 0.256229 0.433495 -0.335009
C7    C     C_3   0.287706 0.692536 0.414560 -0.328822
C8    C     C_3   0.714113 0.306495 0.584365 -0.329180
C9    C     C_2   0.200427 0.741369 0.072564 0.354234
C10   C     C_2   0.799539 0.258647 0.927480 0.354219
C11   C     C_2   0.757121 0.716934 0.982736 0.358063
C12   C     C_R   0.623365 0.803487 0.005905 -0.024871
C13   C     C_2   0.242849 0.283040 0.017308 0.358084
C14   C     C_2   0.742821 0.216973 0.017347 0.358105
C15   C     C_2   0.257151 0.783039 0.982694 0.358062
C16   C     C_2   0.299570 0.241371 0.927439 0.354251
C17   C     C_2   0.700408 0.758618 0.072590 0.354189
C18   C     C_R   0.387302 0.803877 0.214436 -0.129557
C19   C     C_R   0.612989 0.196025 0.785399 -0.130563
C20   C     C_R   0.650453 0.828465 0.779540 -0.153454
C21   C     C_R   0.349546 0.171534 0.220462 -0.153474
C22   C     C_R   0.849467 0.328560 0.220469 -0.154030
C23   C     C_R   0.647510 0.185661 0.973034 -0.040472
C24   C     C_R   0.150456 0.671532 0.779540 -0.153397
C25   C     C_R   0.112720 0.303885 0.785554 -0.129613
C26   C     C_R   0.887265 0.696110 0.214454 -0.129793
C27   C     C_R   0.343207 0.902870 0.929000 -0.174193
C28   C     C_R   0.656781 0.097134 0.071018 -0.174250
C29   C     C_R   0.635847 0.890662 0.100325 -0.163128
C30   C     C_R   0.364152 0.109337 0.899677 -0.163021
C31   C     C_R   0.864132 0.390674 0.899702 -0.163214
C32   C     C_R   0.135847 0.609335 0.100324 -0.163068
C33   C     C_R   0.156792 0.402869 0.071002 -0.174175
C34   C     C_R   0.352470 0.814350 0.026999 -0.040293
C35   C     C_R   0.843184 0.597112 0.929038 -0.174287
C36   C     C_R   0.356647 0.079370 0.316897 -0.104027
C37   C     C_R   0.643347 0.920617 0.683100 -0.104298
C38   C     C_R   0.603160 0.105759 0.689714 -0.066507
C39   C     C_R   0.397069 0.894148 0.310159 -0.066084
C40   C     C_R   0.897045 0.605840 0.310171 -0.066097
C41   C     C_R   0.102952 0.394159 0.689829 -0.066123
C42   C     C_R   0.143358 0.579370 0.683106 -0.104103
C43   C     C_R   0.856591 0.420710 0.316864 -0.103426
C44   C     C_R   0.345691 0.184053 0.937828 0.014437
C45   C     C_R   0.852448 0.685634 0.027031 -0.040412
C46   C     C_R   0.654307 0.815944 0.062177 0.014536
C47   C     C_R   0.690234 0.164846 0.012739 0.053199
C48   C     C_R   0.309744 0.835166 0.987298 0.053168
C49   C     C_R   0.809709 0.664808 0.987350 0.053208
C50   C     C_R   0.190254 0.335165 0.012707 0.053180
C51   C     C_R   0.154307 0.684053 0.062174 0.014485
C52   C     C_R   0.845658 0.315961 0.937870 0.014610
C53   C     C_R   0.371685 0.820021 0.312031 0.118607
C54   C     C_R   0.628811 0.179799 0.687686 0.118656
C55   C     C_R   0.692125 0.861395 0.677432 0.142761
C56   C     C_R   0.147528 0.314350 0.973006 -0.040277
C57   C     C_R   0.307874 0.138601 0.322570 0.142875
C58   C     C_R   0.807724 0.361576 0.322550 0.142597
C59   C     C_R   0.192130 0.638601 0.677435 0.142867
C60   C     C_R   0.128357 0.320039 0.687949 0.118631
C61   C     C_R   0.871623 0.679953 0.312063 0.118653
C62   C     C_3   0.174351 0.154473 0.534812 0.623864
C63   C     C_3   0.825550 0.845550 0.465150 0.623796
C64   C     C_3   0.739733 0.205809 0.482890 0.615450
C65   C     C_3   0.259625 0.793781 0.516237 0.616115
C66   C     C_3   0.759710 0.706138 0.516347 0.615889
C67   C     C_R   0.123365 0.696512 0.005903 -0.024801
C68   C     C_3   0.240351 0.293816 0.483714 0.616082
C69   C     C_3   0.325738 0.654479 0.465217 0.623944
C70   C     C_3   0.675425 0.345835 0.535338 0.622682
C71   C     C_3   0.711621 0.779113 0.529433 -0.314300
C72   C     C_3   0.288326 0.220772 0.470695 -0.314396
C73   C     C_3   0.374821 0.728703 0.450547 -0.319547
C74   C     C_3   0.625040 0.272426 0.550784 -0.318770
C75   C     C_3   0.125190 0.228647 0.549526 -0.319602
C76   C     C_3   0.874824 0.771446 0.450372 -0.319527
C77   C     C_3   0.788933 0.278106 0.469122 -0.313201
C78   C     C_R   0.876613 0.303494 0.994124 -0.024997
C79   C     C_3   0.211728 0.720690 0.529212 -0.314378
C80   C     C_3   0.750915 0.818459 0.578312 0.048055
C81   C     C_3   0.249074 0.181534 0.421695 0.048097
C82   C     C_3   0.334532 0.767311 0.402748 0.028386
C83   C     C_3   0.665947 0.232518 0.596962 0.028729
C84   C     C_3   0.165511 0.267331 0.597233 0.028456
C85   C     C_3   0.834462 0.732655 0.402784 0.028334
C86   C     C_3   0.749086 0.318568 0.421659 0.047821
C87   C     C_3   0.250946 0.681527 0.578304 0.048069
C88   C     C_3   0.212418 0.192604 0.585378 -0.328814
H1    H     H_    0.384145 0.251568 0.020592 0.105130
H2    H     H_    0.616411 0.251807 0.814113 0.092504
H3    H     H_    0.668791 0.777631 0.800930 0.131037
H4    H     H_    0.331207 0.222366 0.199071 0.131037
H5    H     H_    0.831103 0.277708 0.199142 0.131177
H6    H     H_    0.168797 0.722362 0.800931 0.131030
H7    H     H_    0.116090 0.248118 0.814348 0.092302
H8    H     H_    0.883891 0.751878 0.185666 0.092340
H9    H     H_    0.329849 0.931791 0.879129 0.109275
H10   H     H_    0.670137 0.068212 0.120891 0.109326
H11   H     H_    0.643415 0.917431 0.157022 0.102876
H12   H     H_    0.615848 0.748431 0.979415 0.105161
H13   H     H_    0.356580 0.082565 0.842985 0.102846
H14   H     H_    0.856557 0.417449 0.843013 0.102823
H15   H     H_    0.143416 0.582561 0.157019 0.102834
H16   H     H_    0.170151 0.431788 0.120871 0.109277
H17   H     H_    0.829819 0.568188 0.879177 0.109302
H18   H     H_    0.344663 0.045663 0.383943 0.133869
H19   H     H_    0.655322 0.954299 0.616042 0.134241
H20   H     H_    0.598219 0.079095 0.630600 0.103151
H21   H     H_    0.401986 0.920835 0.369283 0.101894
H22   H     H_    0.901970 0.579157 0.369292 0.102133
H23   H     H_    0.650475 0.239902 0.935978 0.116414
H24   H     H_    0.098035 0.420846 0.630705 0.101955
H25   H     H_    0.155347 0.545665 0.616058 0.133843
H26   H     H_    0.844626 0.454400 0.383908 0.134585
H27   H     H_    0.644063 0.781231 0.563942 0.157538
H28   H     H_    0.355857 0.218570 0.436287 0.157480
H29   H     H_    0.442615 0.731916 0.414560 0.160847
H30   H     H_    0.556954 0.270148 0.587989 0.161178
H31   H     H_    0.057386 0.231805 0.585573 0.160873
H32   H     H_    0.942655 0.768373 0.414227 0.160933
H33   H     H_    0.856755 0.279437 0.433524 0.157665
H34   H     H_    0.349488 0.760117 0.064086 0.116494
H35   H     H_    0.144208 0.718434 0.563556 0.157472
H36   H     H_    0.215423 0.166319 0.648366 0.154795
H37   H     H_    0.784331 0.833537 0.351771 0.154877
H38   H     H_    0.696996 0.219507 0.371301 0.162796
H39   H     H_    0.300506 0.782196 0.630040 0.162436
H40   H     H_    0.800834 0.718018 0.629859 0.162504
H41   H     H_    0.199364 0.282109 0.370042 0.162459
H42   H     H_    0.284776 0.666206 0.351528 0.154756
H43   H     H_    0.718336 0.332045 0.646685 0.155178
H44   H     H_    0.094250 0.078798 0.636498 0.309935
H45   H     H_    0.849463 0.739866 0.064116 0.116527
H46   H     H_    0.905501 0.921287 0.363385 0.310020
H47   H     H_    0.819260 0.130927 0.378051 0.310549
H48   H     H_    0.178423 0.868172 0.620025 0.310820
H49   H     H_    0.678744 0.631667 0.620263 0.310911
H50   H     H_    0.321458 0.368228 0.379873 0.310775
H51   H     H_    0.405909 0.578815 0.363576 0.309934
H52   H     H_    0.596899 0.421984 0.638029 0.309680
H53   H     H_    0.140735 0.718475 0.226700 0.314257
H54   H     H_    0.859211 0.281561 0.773351 0.314199
H55   H     H_    0.821914 0.700221 0.824883 0.316557
H56   H     H_    0.150508 0.260117 0.935923 0.116492
H57   H     H_    0.178071 0.299750 0.175157 0.316555
H58   H     H_    0.678032 0.200264 0.175197 0.316456
H59   H     H_    0.321927 0.799761 0.824846 0.316561
H60   H     H_    0.359243 0.218468 0.773311 0.314295
H61   H     H_    0.640714 0.781521 0.226720 0.314258
H62   H     H_    0.115855 0.751569 0.979405 0.105130
H63   H     H_    0.884116 0.248437 0.020631 0.105203
H64   H     H_    0.383937 0.748110 0.185639 0.092279
N1    N     N_R   0.408680 0.130810 0.995780 -0.047414
N2    N     N_R   0.578590 0.132790 0.846380 -0.044956
N3    N     N_R   0.578590 0.867210 0.846380 -0.052111
N4    N     N_R   0.421410 0.132790 0.153620 -0.052128
N5    N     N_R   0.921410 0.367210 0.153620 -0.052085
N6    N     N_R   0.078590 0.632790 0.846380 -0.052130
N7    N     N_R   0.078590 0.367210 0.846380 -0.044995
N8    N     N_R   0.921410 0.632790 0.153620 -0.045011
N9    N     N_R   0.403840 0.921910 0.935760 -0.038616
N10   N     N_R   0.596160 0.078090 0.064240 -0.038627
N11   N     N_R   0.596160 0.921910 0.064240 -0.035091
N12   N     N_R   0.591320 0.869190 0.004220 -0.047452
N13   N     N_R   0.403840 0.078090 0.935760 -0.035064
N14   N     N_R   0.903840 0.421910 0.935760 -0.035080
N15   N     N_R   0.096160 0.578090 0.064240 -0.035072
N16   N     N_R   0.096160 0.421910 0.064240 -0.038622
N17   N     N_R   0.903840 0.578090 0.935760 -0.038629
N18   N     N_R   0.426250 0.076100 0.213650 -0.056459
N19   N     N_R   0.573750 0.923900 0.786350 -0.056441
N20   N     N_R   0.573750 0.076100 0.786350 -0.050590
N21   N     N_R   0.426250 0.923900 0.213650 -0.050423
N22   N     N_R   0.926250 0.576100 0.213650 -0.050525
N23   N     N_R   0.591320 0.130810 0.004220 -0.053077
N24   N     N_R   0.073750 0.423900 0.786350 -0.050426
N25   N     N_R   0.073750 0.576100 0.786350 -0.056440
N26   N     N_R   0.926250 0.423900 0.213650 -0.056632
N27   N     N_R   0.408680 0.869190 0.995780 -0.053117
N28   N     N_R   0.908680 0.630810 0.995780 -0.053122
N29   N     N_R   0.091320 0.369190 0.004220 -0.053103
N30   N     N_R   0.091320 0.630810 0.004220 -0.047426
N31   N     N_R   0.908680 0.369190 0.995780 -0.047435
N32   N     N_R   0.421410 0.867210 0.153620 -0.045008
Ni1   Ni    Ni4+2 0.500000 0.131570 0.000000 0.212380
Ni2   Ni    Ni4+2 0.500000 0.868430 0.000000 0.212389
Ni3   Ni    Ni4+2 0.000000 0.631570 0.000000 0.212381
Ni4   Ni    Ni4+2 1.000000 0.368430 0.000000 0.212390
Ni5   Ni    Ni4+2 0.488900 1.000000 0.862310 0.214462
Ni6   Ni    Ni4+2 0.511100 1.000000 0.137690 0.214447
Ni7   Ni    Ni4+2 0.988900 0.500000 0.862310 0.214440
Ni8   Ni    Ni4+2 0.011100 0.500000 0.137690 0.214422
O1    O     O_3   0.141737 0.079400 0.557039 -0.720625
O2    O     O_3   0.812774 0.247070 0.829396 -0.780365
O3    O     O_3   0.772134 0.730457 0.883607 -0.797272
O4    O     O_3   0.227842 0.269505 0.116431 -0.797239
O5    O     O_3   0.727814 0.230497 0.116470 -0.797448
O6    O     O_3   0.272162 0.769505 0.883568 -0.797216
O7    O     O_3   0.312804 0.252955 0.829357 -0.780129
O8    O     O_3   0.687167 0.747046 0.170677 -0.780209
O9    O     O_3   0.858080 0.920661 0.442870 -0.720594
O10   O     O_3   0.772972 0.130809 0.457963 -0.736130
O11   O     O_3   0.225468 0.868395 0.540382 -0.735114
O12   O     O_3   0.725694 0.631465 0.540585 -0.734685
O13   O     O_3   0.274450 0.368449 0.459529 -0.735247
O14   O     O_3   0.358410 0.579426 0.443032 -0.720638
O15   O     O_3   0.643676 0.421274 0.558301 -0.720830
O16   O     O_3   0.187189 0.752950 0.170648 -0.780122

loop_
_geom_bond_atom_site_label_1
_geom_bond_atom_site_label_2
_ccdc_geom_bond_type
C27   C48   A    
C28   C47   A    
C65   C79   S    
C20   N3    A    
C36   N18   A    
C8    C83   S    
C64   C77   S    
C29   N11   A    
C62   C81   S    
N11   N12   A    
C9    C51   S    
N5    Ni4   S    
C74   C83   S    
C88   H36   S    
C10   C52   S    
N6    Ni3   S    
C66   C85   S    
C79   C87   S    
C3    H38   S    
C28   N10   A    
C6    C75   S    
C43   N26   A    
N27   Ni2   S    
C39   C53   A    
C3    C64   S    
N15   Ni8   S    
C69   O14   S    
C76   H32   S    
N1    Ni1   S    
C17   O8    S    
N25   Ni7   S    
H51   O14   S    
C26   C61   A    
C11   O3    S    
C37   H19   S    
N12   Ni2   S    
C10   O2    S    
C43   H26   S    
C4    C65   S    
C24   N6    A    
C75   C84   S    
N15   N30   A    
C20   C55   A    
C56   N29   A    
C42   N25   A    
C33   C50   A    
C33   H16   S    
N21   Ni6   S    
C26   N8    A    
N19   Ni5   S    
C2    C85   S    
N14   Ni7   S    
C3    C74   S    
C70   C74   S    
C71   C80   S    
H57   O4    S    
C11   C49   S    
C1    C44   A    
C18   C53   A    
N29   Ni4   S    
C11   C17   D    
N21   N32   A    
N32   Ni2   S    
C7    H42   S    
C41   H24   S    
C65   O11   S    
C35   C49   A    
N13   Ni5   S    
N3    Ni2   S    
C69   C73   S    
C25   C60   A    
C18   N32   A    
N9    N27   A    
C16   C44   S    
N17   N28   A    
C72   C81   S    
C45   N28   A    
C39   N21   A    
N5    N26   A    
C66   O12   S    
C6    C68   S    
C34   H34   S    
C6    C81   S    
C3    C86   S    
C30   C44   A    
C34   N27   A    
N8    N22   A    
C15   C48   S    
C6    H41   S    
C18   H64   S    
C58   C86   S    
C54   C83   S    
C72   C88   S    
H50   O13   S    
C78   H63   S    
H47   O10   S    
C63   C80   S    
C26   H8    S    
C74   H30   S    
N2    Ni1   S    
C73   H29   S    
C29   H11   S    
C36   H18   S    
C68   C84   S    
C31   H14   S    
C62   O1    S    
C23   C47   A    
C17   C46   S    
C30   N13   A    
N9    Ni5   S    
C36   C57   A    
C10   C14   D    
C4    C87   S    
C15   O6    S    
C25   N7    A    
N24   Ni7   S    
C40   H22   S    
N10   N23   A    
C70   O15   S    
N4    Ni1   S    
C62   C88   S    
C71   H27   S    
C50   C56   A    
C40   C61   A    
C12   H12   S    
C53   C82   S    
C56   H56   S    
N7    Ni4   S    
C64   C83   S    
C21   C57   A    
C35   H17   S    
N28   Ni3   S    
C24   H6    S    
C12   N12   A    
N26   Ni8   S    
C42   H25   S    
C66   C71   S    
C38   C54   A    
C31   N14   A    
C45   C49   A    
C68   C72   S    
H55   O3    S    
C8    H43   S    
H54   O2    S    
C32   H15   S    
N2    N20   A    
C51   C67   A    
C5    C80   S    
C1    N1    A    
C4    C73   S    
C16   O7    S    
C61   C85   S    
C19   C54   A    
C12   C46   A    
C22   N5    A    
C41   N24   A    
C77   C86   S    
C25   H7    S    
N7    N24   A    
C8    C77   S    
C52   C78   A    
C22   H5    S    
C57   C81   S    
C62   C75   S    
C13   C16   D    
C33   N16   A    
C34   C48   A    
N17   Ni7   S    
C2    C71   S    
C70   C86   S    
H52   O15   S    
C73   C82   S    
N10   Ni6   S    
C2    C63   S    
H46   O9    S    
C7    C79   S    
C32   C51   A    
C28   H10   S    
C64   O10   S    
C27   H9    S    
C1    H1    S    
C63   O9    S    
C4    H39   S    
N1    N13   A    
C72   H28   S    
C45   H45   S    
N6    N25   A    
N14   N31   A    
C84   C88   S    
C41   C60   A    
C5    C66   S    
C9    O16   S    
C69   C87   S    
C42   C59   A    
C22   C58   A    
H60   O7    S    
C38   N20   A    
C14   C47   S    
H49   O12   S    
N20   Ni5   S    
C23   H23   S    
N18   Ni6   S    
C8    C70   S    
N16   Ni8   S    
C31   C52   A    
C29   C46   A    
C13   O4    S    
H58   O5    S    
C7    C69   S    
C9    C15   D    
H53   O16   S    
C75   H31   S    
N31   Ni4   S    
C27   N9    A    
C40   N22   A    
C55   C80   S    
C60   C84   S    
C65   C82   S    
H44   O1    S    
C79   H35   S    
C5    C76   S    
C24   C59   A    
C35   N17   A    
C5    H40   S    
N4    N18   A    
C21   N4    A    
C30   H13   S    
N11   Ni6   S    
N30   Ni3   S    
C38   H20   S    
C14   O5    S    
C59   C87   S    
C37   N19   A    
C77   H33   S    
H61   O8    S    
C13   C50   S    
C37   C55   A    
C2    H37   S    
N3    N19   A    
C20   H3    S    
C39   H21   S    
C7    C82   S    
C23   N23   A    
N16   N29   A    
C63   C76   S    
C32   N15   A    
C68   O13   S    
C19   H2    S    
C19   N2    A    
C43   C58   A    
H59   O6    S    
N8    Ni3   S    
C76   C85   S    
C21   H4    S    
H48   O11   S    
C78   N31   A    
C67   N30   A    
N22   Ni8   S    
C67   H62   S    
N23   Ni1   S    
