data_mof_unit_14068.cif
_audit_creation_date              2012-12-10T17:15:17-0500
_audit_creation_method            fapswitch 2.2
_symmetry_space_group_name_H-M    P1
_symmetry_Int_Tables_number       1
_space_group_crystal_system       triclinic
_cell_length_a                    10.190399
_cell_length_b                    10.768586
_cell_length_c                    12.843424
_cell_angle_alpha                 91.777815
_cell_angle_beta                  92.000346
_cell_angle_gamma                 94.479269
_cell_volume                      1403.42153668

loop_
_atom_site_label
_atom_site_type_symbol
_atom_type_description
_atom_site_fract_x
_atom_site_fract_y
_atom_site_fract_z
_atom_type_partial_charge
C1    C     C_R   0.446030 0.267353 0.489522 0.919643
C2    C     C_R   0.635591 0.627395 0.053540 0.350431
C3    C     C_R   0.340533 0.447455 0.847858 0.315615
C4    C     C_R   0.637663 0.597420 0.158770 0.386248
C5    C     C_R   0.556291 0.563939 0.875006 0.329680
C6    C     C_R   0.446896 0.446372 0.124791 0.337899
C7    C     C_R   0.543373 0.560466 0.983173 -0.233042
C8    C     C_R   0.438111 0.483172 0.022044 -0.138396
C9    C     C_2   0.416707 0.135059 0.473195 -0.342257
C10   C     C_2   0.586750 0.864338 0.490431 -0.331936
C11   C     C_2   0.514938 0.064906 0.452401 -0.157705
C12   C     C_R   0.554904 0.732672 0.502897 0.957524
C13   C     C_2   0.492032 0.932207 0.454699 -0.143865
C14   C     C_3   0.882344 0.357938 0.615973 -0.234291
C15   C     C_3   0.777886 0.256092 0.643974 -0.306410
C16   C     C_3   0.832582 0.171035 0.725129 -0.914260
C17   C     C_3   0.115590 0.633477 0.377436 -0.241851
C18   C     C_3   0.212374 0.667229 0.292625 -0.309446
C19   C     C_3   0.158685 0.762993 0.220463 -0.923416
C20   C     C_2   0.076203 0.513555 0.524229 -0.101909
C21   C     C_2   0.928590 0.528722 0.510329 -0.085361
C22   C     C_R   0.474358 0.503605 0.698497 1.015723
C23   C     C_R   0.525722 0.497837 0.302042 0.939494
C24   C     C_R   0.543388 0.507328 0.192625 -0.293859
C25   C     C_R   0.455926 0.506082 0.809140 -0.232314
C26   C     C_R   0.329801 0.438784 0.955550 0.422608
H1    H     H_    0.392475 0.891795 0.436174 0.183127
H2    H     H_    0.169799 0.353687 0.816020 0.378558
H3    H     H_    0.195427 0.438079 0.057932 0.366448
H4    H     H_    0.668086 0.771891 0.969667 0.374878
H5    H     H_    0.918929 0.126210 0.695098 0.270062
H6    H     H_    0.862556 0.225131 0.798323 0.278875
H7    H     H_    0.755493 0.096831 0.742909 0.269508
H8    H     H_    0.691626 0.296295 0.677255 0.267320
H9    H     H_    0.748796 0.197541 0.573412 0.226982
H10   H     H_    0.961832 0.306753 0.581119 0.167490
H11   H     H_    0.921017 0.407916 0.689283 0.191607
H12   H     H_    0.614855 0.104788 0.442925 0.178067
H13   H     H_    0.063196 0.725945 0.182788 0.281153
H14   H     H_    0.144609 0.850826 0.264909 0.270603
H15   H     H_    0.229790 0.784105 0.158603 0.269462
H16   H     H_    0.307135 0.708639 0.327337 0.257389
H17   H     H_    0.225981 0.582666 0.243782 0.253143
H18   H     H_    0.026853 0.587641 0.334741 0.186681
H19   H     H_    0.089586 0.721630 0.416423 0.169590
H20   H     H_    0.685526 0.905815 0.510346 0.154553
H21   H     H_    0.316485 0.094578 0.480942 0.157446
H22   H     H_    0.895065 0.605311 0.466535 0.164132
H23   H     H_    0.112718 0.463990 0.589889 0.188612
H24   H     H_    0.403613 0.309934 0.218260 0.331150
H25   H     H_    0.745896 0.592739 0.873735 0.370804
H26   H     H_    0.790551 0.714201 0.196488 0.376964
N1    N     N_2   0.162330 0.550370 0.457540 -0.077326
N2    N     N_2   0.837670 0.449630 0.542460 -0.078322
O1    O     O_R   0.567930 0.307680 0.508550 -0.648410
O2    O     O_3   0.668995 0.615789 0.831211 -0.738000
O3    O     O_3   0.724539 0.659569 0.231727 -0.764637
O4    O     O_3   0.242717 0.395853 0.778295 -0.769333
O5    O     O_3   0.212346 0.389733 0.993469 -0.728363
O6    O     O_3   0.716341 0.728214 0.024002 -0.772900
O7    O     O_R   0.432070 0.692320 0.491450 -0.637505
O8    O     O_R   0.351090 0.340020 0.481290 -0.598986
O9    O     O_R   0.648910 0.659980 0.518710 -0.596486
O10   O     O_R   0.590490 0.486480 0.665020 -0.594780
O11   O     O_R   0.409510 0.513520 0.334980 -0.640934
O12   O     O_R   0.373660 0.518820 0.637760 -0.581528
O13   O     O_R   0.626340 0.481180 0.362240 -0.571482
O14   O     O_3   0.364190 0.347170 0.156129 -0.719162
Zn1   Zn    Zn3+2 0.644780 0.478400 0.518200 0.980206
Zn2   Zn    Zn3+2 0.355220 0.521600 0.481800 0.968798

loop_
_geom_bond_atom_site_label_1
_geom_bond_atom_site_label_2
_ccdc_geom_bond_type
C4    O3    S    
O7    Zn2   S    
C11   H12   S    
C2    C4    A    
C23   C24   S    
C10   H20   S    
C20   H23   S    
H2    O4    S    
C16   H7    S    
C16   H6    S    
C9    C11   D    
C26   O5    S    
C15   H8    S    
C2    C7    A    
C21   H22   S    
C6    C24   A    
C1    O8    A    
C23   O11   A    
C6    O14   S    
C17   C18   S    
C1    O1    A    
C17   H18   S    
C19   H15   S    
C7    C8    A    
O1    Zn1   S    
C18   H17   S    
C16   H5    S    
C12   O7    A    
C11   C13   S    
O12   Zn2   S    
N2    Zn1   S    
C10   C12   S    
C5    C25   A    
N1    Zn2   S    
C19   H13   S    
C15   H9    S    
C14   N2    S    
C17   H19   S    
C9    H21   S    
C18   H16   S    
C14   H10   S    
C21   N2    D    
C4    C24   A    
C2    O6    S    
H26   O3    S    
C8    C26   A    
C22   O10   A    
C15   C16   S    
C3    O4    S    
C17   N1    S    
C3    C25   A    
C1    C9    S    
C20   C21   S    
O8    Zn2   S    
C14   H11   S    
C18   C19   S    
C19   H14   S    
C23   O13   A    
C5    C7    A    
C12   O9    A    
H3    O5    S    
C14   C15   S    
C13   H1    S    
C6    C8    A    
C5    O2    S    
O11   Zn2   S    
O10   Zn1   S    
H24   O14   S    
C10   C13   D    
C3    C26   A    
C22   O12   A    
O9    Zn1   S    
H4    O6    S    
C20   N1    D    
O13   Zn1   S    
C22   C25   S    
H25   O2    S    
