data_mof_unit_5799.cif
_audit_creation_date              2012-12-11T14:52:30-0500
_audit_creation_method            fapswitch 2.2
_symmetry_space_group_name_H-M    P1
_symmetry_Int_Tables_number       1
_space_group_crystal_system       triclinic
_cell_length_a                    19.286821
_cell_length_b                    11.269133
_cell_length_c                    18.983433
_cell_angle_alpha                 90.769118
_cell_angle_beta                  90.869676
_cell_angle_gamma                 89.731869
_cell_volume                      4125.08018418

loop_
_atom_site_label
_atom_site_type_symbol
_atom_type_description
_atom_site_fract_x
_atom_site_fract_y
_atom_site_fract_z
_atom_type_partial_charge
C1    C     C_R   0.275103 0.039080 0.855360 0.542127
C2    C     C_R   0.722947 0.034774 0.143355 0.540039
C3    C     C_R   0.775103 0.539080 0.855360 0.542127
C4    C     C_R   0.222947 0.534774 0.143355 0.540039
C5    C     C_3   0.534733 0.736155 0.968125 0.017490
C6    C     C_3   0.477955 0.726768 0.026634 0.026364
C7    C     C_3   0.034733 0.236155 0.968125 0.017490
C8    C     C_3   0.977955 0.226768 0.026634 0.026364
C9    C     C_R   0.285875 0.526533 0.957143 0.225984
C10   C     C_R   0.716448 0.525927 0.041681 0.220310
C11   C     C_R   0.785875 0.026533 0.957143 0.225983
C12   C     C_R   0.216448 0.025927 0.041681 0.220310
C13   C     C_R   0.275906 0.502929 0.027448 -0.160115
C14   C     C_R   0.725428 0.502051 0.971270 -0.161535
C15   C     C_R   0.775906 0.002929 0.027448 -0.160115
C16   C     C_R   0.225428 0.002051 0.971270 -0.161535
C17   C     C_R   0.230122 0.568478 0.068305 -0.044437
C18   C     C_R   0.765053 0.575632 0.930144 -0.044251
C19   C     C_R   0.730122 0.068478 0.068306 -0.044437
C20   C     C_R   0.265053 0.075631 0.930144 -0.044251
C21   C     C_R   0.180985 0.647172 0.033851 0.020389
C22   C     C_R   0.809288 0.662196 0.964838 0.024222
C23   C     C_R   0.680986 0.147172 0.033851 0.020389
C24   C     C_R   0.309288 0.162196 0.964838 0.024222
C25   C     C_R   0.183413 0.659112 0.959628 -0.025184
C26   C     C_R   0.811785 0.672499 0.039084 -0.025774
C27   C     C_R   0.683413 0.159112 0.959628 -0.025184
C28   C     C_R   0.311785 0.172499 0.039084 -0.025774
C29   C     C_R   0.242051 0.605923 0.923578 0.028980
C30   C     C_R   0.757512 0.610074 0.075789 0.020529
C31   C     C_R   0.742051 0.105923 0.923578 0.028980
C32   C     C_R   0.257512 0.110074 0.075789 0.020529
C33   C     C_R   0.457833 0.719884 0.521111 0.281264
C34   C     C_R   0.463879 0.727217 0.447945 0.280520
C35   C     C_R   0.957833 0.219884 0.521111 0.281264
C36   C     C_R   0.963879 0.227217 0.447945 0.280520
C37   C     C_R   0.490196 0.832033 0.418488 -0.023039
C38   C     C_R   0.460955 0.823884 0.563530 -0.010949
C39   C     C_R   0.990196 0.332033 0.418488 -0.023039
C40   C     C_R   0.960955 0.323884 0.563530 -0.010949
C41   C     C_R   0.490817 0.936139 0.459588 -0.205225
C42   C     C_R   0.475034 0.932474 0.531279 -0.185465
C43   C     C_R   0.990817 0.436139 0.459588 -0.205225
C44   C     C_R   0.975034 0.432474 0.531279 -0.185465
C45   C     C_R   0.468656 0.821815 0.855899 0.541610
C46   C     C_R   0.534090 0.820656 0.143033 0.525545
C47   C     C_R   0.968656 0.321815 0.855899 0.541610
C48   C     C_R   0.034090 0.320656 0.143033 0.525545
C49   C     C_R   0.174041 0.580982 0.549445 0.279463
C50   C     C_R   0.796199 0.680503 0.475571 0.274828
C51   C     C_R   0.674041 0.080982 0.549445 0.279463
C52   C     C_R   0.296199 0.180503 0.475571 0.274828
C53   C     C_R   0.165173 0.555669 0.477617 -0.123111
C54   C     C_R   0.792575 0.673124 0.548258 -0.113997
C55   C     C_R   0.665173 0.055669 0.477617 -0.123111
C56   C     C_R   0.292575 0.173124 0.548258 -0.113997
C57   C     C_R   0.221250 0.519958 0.436975 -0.033106
C58   C     C_R   0.749954 0.589617 0.578718 -0.008794
C59   C     C_R   0.721250 0.019958 0.436975 -0.033106
C60   C     C_R   0.249954 0.089617 0.578718 -0.008794
C61   C     C_R   0.285242 0.496523 0.469778 -0.117138
C62   C     C_R   0.700285 0.529063 0.537748 -0.167068
C63   C     C_R   0.785242 0.996523 0.469778 -0.117138
C64   C     C_R   0.200285 0.029063 0.537748 -0.167068
C65   C     C_R   0.294032 0.516074 0.541582 -0.166413
C66   C     C_R   0.697491 0.545140 0.465471 -0.191667
C67   C     C_R   0.794032 0.016074 0.541582 -0.166413
C68   C     C_R   0.197491 0.045140 0.465471 -0.191667
C69   C     C_R   0.240870 0.568496 0.580342 0.029319
C70   C     C_R   0.746151 0.618363 0.433601 0.042520
C71   C     C_R   0.740870 0.068496 0.580342 0.029319
C72   C     C_R   0.246151 0.118362 0.433601 0.042520
C73   C     C_R   0.259869 0.641818 0.851954 0.573917
C74   C     C_R   0.740093 0.642298 0.148013 0.573573
C75   C     C_R   0.759869 0.141818 0.851954 0.573917
C76   C     C_R   0.240093 0.142298 0.148013 0.573573
C77   C     C_R   0.271121 0.045279 0.646977 0.549106
C78   C     C_R   0.710573 0.001357 0.361351 0.562934
C79   C     C_R   0.771121 0.545279 0.646977 0.549106
C80   C     C_R   0.210573 0.501357 0.361351 0.562934
C81   C     C_R   0.443855 0.819112 0.639436 0.585043
C82   C     C_R   0.528881 0.823928 0.351783 0.540195
C83   C     C_R   0.943855 0.319112 0.639436 0.585043
C84   C     C_R   0.028881 0.323928 0.351783 0.540195
C85   C     C_R   0.258492 0.633313 0.645643 0.568949
C86   C     C_R   0.738153 0.646606 0.359146 0.558909
C87   C     C_R   0.758492 0.133313 0.645643 0.568949
C88   C     C_R   0.238153 0.146606 0.359146 0.558909
C89   C     C_3   0.468661 0.919831 0.030961 -0.154692
C90   C     C_3   0.525171 0.930086 0.973467 -0.163431
C91   C     C_3   0.968661 0.419831 0.030961 -0.154692
C92   C     C_3   0.025171 0.430086 0.973467 -0.163431
C93   C     C_3   0.433761 0.819906 0.987308 -0.116746
C94   C     C_3   0.568945 0.837321 0.012436 -0.144093
C95   C     C_3   0.933761 0.319906 0.987308 -0.116745
C96   C     C_3   0.068945 0.337321 0.012436 -0.144093
C97   C     C_3   0.490691 0.829699 0.930979 0.050728
C98   C     C_3   0.512552 0.826914 0.068277 0.057383
C99   C     C_3   0.990691 0.329699 0.930979 0.050728
C100  C     C_3   0.012552 0.326914 0.068277 0.057383
Cr1   Cr    Cr6+3 0.229630 0.835900 0.747350 0.995108
Cr2   Cr    Cr6+3 0.770370 0.835900 0.252650 1.001497
Cr3   Cr    Cr6+3 0.729630 0.335900 0.747350 0.995108
Cr4   Cr    Cr6+3 0.270370 0.335900 0.252650 1.001497
Cr5   Cr    Cr6+3 0.387410 0.989850 0.750850 0.996406
Cr6   Cr    Cr6+3 0.612590 0.989850 0.249150 0.976293
Cr7   Cr    Cr6+3 0.887410 0.489850 0.750850 0.996406
Cr8   Cr    Cr6+3 0.112590 0.489850 0.249150 0.976293
Cr9   Cr    Cr6+3 0.385800 0.677120 0.749340 1.004237
Cr10  Cr    Cr6+3 0.614200 0.677120 0.250660 1.016551
Cr11  Cr    Cr6+3 0.885800 0.177120 0.749340 1.004237
Cr12  Cr    Cr6+3 0.114200 0.177120 0.250660 1.016551
H1    H     H_    0.377286 0.814105 0.975254 0.099326
H2    H     H_    0.625165 0.847223 0.024983 0.103994
H3    H     H_    0.877286 0.314105 0.975254 0.099326
H4    H     H_    0.125165 0.347223 0.024983 0.103994
H5    H     H_    0.115104 0.566571 0.452792 0.124857
H6    H     H_    0.827401 0.725768 0.581031 0.129851
H7    H     H_    0.615104 0.066571 0.452792 0.124857
H8    H     H_    0.327401 0.225768 0.581031 0.129851
H9    H     H_    0.329419 0.468046 0.439654 0.217563
H10   H     H_    0.665782 0.466034 0.561148 0.123373
H11   H     H_    0.829419 0.968046 0.439654 0.217563
H12   H     H_    0.165782 0.966034 0.561148 0.123373
H13   H     H_    0.343567 0.497024 0.565984 0.194867
H14   H     H_    0.658229 0.498857 0.434475 0.139645
H15   H     H_    0.843567 0.997024 0.565984 0.194867
H16   H     H_    0.158229 0.998857 0.434475 0.139645
H17   H     H_    0.439166 0.987772 0.060839 0.112081
H18   H     H_    0.550110 0.006809 0.949199 0.124138
H19   H     H_    0.939166 0.487773 0.060839 0.112081
H20   H     H_    0.050110 0.506809 0.949199 0.124138
H21   H     H_    0.302491 0.430341 0.049992 0.143033
H22   H     H_    0.698697 0.428377 0.948796 0.140748
H23   H     H_    0.802491 0.930341 0.049992 0.143033
H24   H     H_    0.198697 0.928377 0.948796 0.140748
H25   H     H_    0.505155 0.019464 0.436614 0.131877
H26   H     H_    0.476488 0.013771 0.562161 0.168628
H27   H     H_    0.005155 0.519464 0.436614 0.131877
H28   H     H_    0.976488 0.513771 0.562161 0.168628
O1    O     O_R   0.214270 0.709000 0.827470 -0.569952
O2    O     O_R   0.785730 0.709000 0.172530 -0.576234
O3    O     O_R   0.714270 0.209000 0.827470 -0.569952
O4    O     O_R   0.285730 0.209000 0.172530 -0.576234
O5    O     O_R   0.445950 0.919440 0.676520 -0.500319
O6    O     O_R   0.554050 0.919440 0.323480 -0.527088
O7    O     O_R   0.945950 0.419440 0.676520 -0.500319
O8    O     O_R   0.054050 0.419440 0.323480 -0.527088
O9    O     O_R   0.456730 0.717630 0.669840 -0.479229
O10   O     O_R   0.543270 0.717630 0.330160 -0.469632
O11   O     O_R   0.956730 0.217630 0.669840 -0.479229
O12   O     O_R   0.043270 0.217630 0.330160 -0.469632
O13   O     O_R   0.320620 0.625640 0.672920 -0.512041
O14   O     O_R   0.679380 0.625640 0.327080 -0.516216
O15   O     O_R   0.820620 0.125640 0.672920 -0.512041
O16   O     O_R   0.179380 0.125640 0.327080 -0.516216
O17   O     O_3   0.334280 0.834290 0.749180 -0.284629
O18   O     O_3   0.665720 0.834290 0.250820 -0.289798
O19   O     O_3   0.834280 0.334290 0.749180 -0.284629
O20   O     O_3   0.165720 0.334290 0.250820 -0.289798
O21   O     O_R   0.236160 0.958490 0.823130 -0.525464
O22   O     O_R   0.763840 0.958490 0.176870 -0.528607
O23   O     O_R   0.736160 0.458490 0.823130 -0.525464
O24   O     O_R   0.263840 0.458490 0.176870 -0.528607
O25   O     O_R   0.332080 0.075470 0.831280 -0.535373
O26   O     O_R   0.667920 0.075470 0.168720 -0.533457
O27   O     O_R   0.832080 0.575470 0.831280 -0.535373
O28   O     O_R   0.167920 0.575470 0.168720 -0.533457
O29   O     O_R   0.446300 0.918110 0.826620 -0.521550
O30   O     O_R   0.553700 0.918110 0.173380 -0.533262
O31   O     O_R   0.946300 0.418110 0.826620 -0.521550
O32   O     O_R   0.053700 0.418110 0.173380 -0.533262
O33   O     O_R   0.457110 0.716200 0.831760 -0.553023
O34   O     O_R   0.542890 0.716200 0.168240 -0.550055
O35   O     O_R   0.957110 0.216200 0.831760 -0.553023
O36   O     O_R   0.042890 0.216200 0.168240 -0.550055
O37   O     O_R   0.320980 0.624310 0.823030 -0.491850
O38   O     O_R   0.679020 0.624310 0.176970 -0.475041
O39   O     O_R   0.820980 0.124310 0.823030 -0.491850
O40   O     O_R   0.179020 0.124310 0.176970 -0.475042
O41   O     O_R   0.213890 0.710430 0.665540 -0.472621
O42   O     O_R   0.786110 0.710430 0.334460 -0.457668
O43   O     O_R   0.713890 0.210430 0.665540 -0.472621
O44   O     O_R   0.286110 0.210430 0.334460 -0.457668
O45   O     O_R   0.235810 0.959820 0.673020 -0.509056
O46   O     O_R   0.764190 0.959820 0.326980 -0.512806
O47   O     O_R   0.735810 0.459820 0.673020 -0.509056
O48   O     O_R   0.264190 0.459820 0.326980 -0.512806
O49   O     O_R   0.331700 0.076900 0.669350 -0.535008
O50   O     O_R   0.668300 0.076900 0.330650 -0.521678
O51   O     O_R   0.831700 0.576900 0.669350 -0.535008
O52   O     O_R   0.168300 0.576900 0.330650 -0.521678
O53   O     O_3   0.117952 0.612172 0.591021 -0.537623
C101  C     C_3   0.083248 0.712413 0.563558 -0.110881
H29   H     H_    0.047231 0.686117 0.520229 0.075988
H30   H     H_    0.119793 0.780777 0.544927 0.108206
H31   H     H_    0.051830 0.753428 0.605929 0.128397
O54   O     O_3   0.843525 0.756102 0.444630 -0.551704
C102  C     C_3   0.910352 0.749266 0.475553 -0.137201
H32   H     H_    0.923846 0.657882 0.491785 0.105083
H33   H     H_    0.914908 0.812049 0.520917 0.110312
H34   H     H_    0.948724 0.776492 0.436014 0.146918
O55   O     O_3   0.617952 0.112172 0.591021 -0.537623
C103  C     C_3   0.583248 0.212413 0.563558 -0.110881
H35   H     H_    0.547231 0.186117 0.520229 0.075988
H36   H     H_    0.619793 0.280777 0.544927 0.108206
H37   H     H_    0.551830 0.253428 0.605929 0.128397
O56   O     O_3   0.343525 0.256102 0.444630 -0.551704
C104  C     C_3   0.410352 0.249266 0.475553 -0.137201
H38   H     H_    0.423846 0.157882 0.491785 0.105084
H39   H     H_    0.414908 0.312049 0.520917 0.110312
H40   H     H_    0.448724 0.276492 0.436014 0.146918
C105  C     C_3   0.591498 0.672354 0.925738 -0.271363
C106  C     C_3   0.569975 0.565829 0.880859 -0.421538
H41   H     H_    0.528452 0.517955 0.906097 0.128747
H42   H     H_    0.554530 0.591808 0.826863 0.185293
H43   H     H_    0.614379 0.504924 0.874387 0.141037
H44   H     H_    0.616530 0.737159 0.890574 0.153583
H45   H     H_    0.631803 0.647404 0.963251 0.137541
C107  C     C_3   0.437278 0.634077 0.067208 -0.286459
C108  C     C_3   0.386304 0.686421 0.120878 -0.415010
H46   H     H_    0.411440 0.743559 0.161363 0.164316
H47   H     H_    0.345100 0.738741 0.093869 0.149908
H48   H     H_    0.361693 0.612710 0.149113 0.152150
H49   H     H_    0.404621 0.587597 0.029721 0.135252
H50   H     H_    0.472299 0.571104 0.093780 0.147049
C109  C     C_3   0.091498 0.172354 0.925738 -0.271363
C110  C     C_3   0.069975 0.065829 0.880859 -0.421538
H51   H     H_    0.028452 0.017955 0.906097 0.128747
H52   H     H_    0.054530 0.091808 0.826863 0.185293
H53   H     H_    0.114378 0.004924 0.874387 0.141038
H54   H     H_    0.116530 0.237159 0.890574 0.153583
H55   H     H_    0.131803 0.147404 0.963251 0.137541
C111  C     C_3   0.937278 0.134077 0.067208 -0.286459
C112  C     C_3   0.886303 0.186421 0.120878 -0.415010
H56   H     H_    0.911440 0.243560 0.161362 0.164316
H57   H     H_    0.845100 0.238739 0.093869 0.149907
H58   H     H_    0.861693 0.112710 0.149113 0.152150
H59   H     H_    0.904621 0.087597 0.029721 0.135252
H60   H     H_    0.972299 0.071104 0.093780 0.147049
O57   O     O_3   0.327337 0.452893 0.917131 -0.601715
C113  C     C_3   0.394724 0.499883 0.909424 -0.109954
H61   H     H_    0.397932 0.597300 0.917406 0.166845
H62   H     H_    0.412922 0.477385 0.855663 0.159234
H63   H     H_    0.432059 0.458607 0.945588 0.065317
O58   O     O_3   0.670193 0.460486 0.079066 -0.599809
C114  C     C_3   0.604170 0.514861 0.075615 -0.112527
H64   H     H_    0.606072 0.612929 0.077806 0.166462
H65   H     H_    0.573758 0.483012 0.120637 0.146243
H66   H     H_    0.576376 0.491988 0.026822 0.091349
O59   O     O_3   0.827337 0.952893 0.917131 -0.601715
C115  C     C_3   0.894724 0.999883 0.909423 -0.109954
H67   H     H_    0.897932 0.097300 0.917406 0.166845
H68   H     H_    0.912922 0.977385 0.855663 0.159234
H69   H     H_    0.932059 0.958606 0.945588 0.065317
O60   O     O_3   0.170193 0.960486 0.079066 -0.599809
C116  C     C_3   0.104169 0.014861 0.075615 -0.112527
H70   H     H_    0.106072 0.112929 0.077806 0.166462
H71   H     H_    0.073758 0.983012 0.120637 0.146243
H72   H     H_    0.076376 0.991988 0.026822 0.091349
C117  C     C_3   0.126657 0.716659 0.075866 -0.218104
C118  C     C_3   0.064670 0.640625 0.097347 -0.390270
H73   H     H_    0.016838 0.653737 0.069096 0.097114
H74   H     H_    0.077179 0.547683 0.085616 0.211901
H75   H     H_    0.052326 0.655394 0.153787 0.171779
H76   H     H_    0.151722 0.758717 0.122884 0.209823
H77   H     H_    0.107444 0.793155 0.049353 0.189140
C119  C     C_3   0.868184 0.713348 0.926360 -0.208784
C120  C     C_3   0.923939 0.618978 0.925925 -0.399579
H78   H     H_    0.947457 0.620573 0.977877 0.124449
H79   H     H_    0.902605 0.528412 0.923941 0.203536
H80   H     H_    0.959074 0.627644 0.880937 0.162717
H81   H     H_    0.854008 0.750856 0.874365 0.207004
H82   H     H_    0.887115 0.790089 0.951462 0.196803
C121  C     C_3   0.626657 0.216659 0.075866 -0.218104
C122  C     C_3   0.564670 0.140625 0.097347 -0.390270
H83   H     H_    0.516838 0.153737 0.069096 0.097114
H84   H     H_    0.577179 0.047683 0.085616 0.211901
H85   H     H_    0.552326 0.155394 0.153787 0.171779
H86   H     H_    0.651722 0.258717 0.122884 0.209823
H87   H     H_    0.607445 0.293155 0.049353 0.189140
C123  C     C_3   0.368184 0.213348 0.926360 -0.208784
C124  C     C_3   0.423939 0.118978 0.925925 -0.399579
H88   H     H_    0.447457 0.120573 0.977877 0.124449
H89   H     H_    0.402605 0.028412 0.923941 0.203536
H90   H     H_    0.459074 0.127644 0.880937 0.162717
H91   H     H_    0.354008 0.250856 0.874365 0.207004
H92   H     H_    0.387115 0.290089 0.951462 0.196803
C125  C     C_3   0.125482 0.720933 0.913963 -0.258332
C126  C     C_3   0.056991 0.765128 0.934436 -0.540961
H93   H     H_    0.039163 0.697116 0.967179 0.173617
H94   H     H_    0.058597 0.851909 0.959889 0.134836
H95   H     H_    0.023956 0.779561 0.886887 0.130408
H96   H     H_    0.144716 0.803844 0.891881 0.201191
H97   H     H_    0.111476 0.654629 0.871930 0.182336
C127  C     C_3   0.874243 0.734855 0.082366 -0.253087
C128  C     C_3   0.932319 0.821720 0.065052 -0.524300
H98   H     H_    0.966483 0.795560 0.023989 0.149899
H99   H     H_    0.911731 0.907396 0.050030 0.135633
H100  H     H_    0.965330 0.838041 0.112802 0.127966
H101  H     H_    0.851422 0.805931 0.114178 0.218860
H102  H     H_    0.897841 0.666399 0.116981 0.158357
C129  C     C_3   0.625482 0.220934 0.913963 -0.258331
C130  C     C_3   0.556991 0.265128 0.934436 -0.540961
H103  H     H_    0.539163 0.197116 0.967179 0.173617
H104  H     H_    0.558597 0.351909 0.959889 0.134836
H105  H     H_    0.523956 0.279561 0.886887 0.130408
H106  H     H_    0.644716 0.303843 0.891881 0.201191
H107  H     H_    0.611476 0.154629 0.871930 0.182335
C131  C     C_3   0.374243 0.234855 0.082366 -0.253088
C132  C     C_3   0.432319 0.321720 0.065052 -0.524300
H108  H     H_    0.466483 0.295560 0.023989 0.149899
H109  H     H_    0.411731 0.407396 0.050030 0.135633
H110  H     H_    0.465330 0.338041 0.112802 0.127967
H111  H     H_    0.351422 0.305931 0.114178 0.218860
H112  H     H_    0.397841 0.166399 0.116981 0.158357
O61   O     O_3   0.445055 0.610984 0.550549 -0.554464
C133  C     C_3   0.507810 0.546212 0.554559 -0.098596
H113  H     H_    0.549323 0.597332 0.582697 0.129280
H114  H     H_    0.525543 0.518270 0.501398 0.147472
H115  H     H_    0.498756 0.464575 0.584991 0.100647
O62   O     O_3   0.450573 0.626443 0.407407 -0.550135
C134  C     C_3   0.394170 0.649418 0.361161 -0.093126
H116  H     H_    0.406658 0.717446 0.321560 0.114133
H117  H     H_    0.347193 0.677282 0.390538 0.118367
H118  H     H_    0.382074 0.566641 0.331450 0.164595
O63   O     O_3   0.945055 0.110984 0.550549 -0.554464
C135  C     C_3   0.007810 0.046212 0.554559 -0.098596
H119  H     H_    0.049323 0.097332 0.582697 0.129280
H120  H     H_    0.025543 0.018270 0.501398 0.147472
H121  H     H_    0.998755 0.964575 0.584991 0.100647
O64   O     O_3   0.950573 0.126443 0.407407 -0.550135
C136  C     C_3   0.894170 0.149418 0.361161 -0.093126
H122  H     H_    0.906658 0.217446 0.321560 0.114133
H123  H     H_    0.847193 0.177282 0.390538 0.118367
H124  H     H_    0.882074 0.066641 0.331450 0.164595

loop_
_geom_bond_atom_site_label_1
_geom_bond_atom_site_label_2
_ccdc_geom_bond_type
C101  H30   S    
C12   O60   S    
C55   C59   A    
C126  H95   S    
C128  H99   S    
C105  H45   S    
Cr7   O31   S    
C136  H122  S    
C123  C124  S    
Cr2   O46   S    
Cr5   O29   S    
Cr3   O43   S    
Cr6   O26   S    
C5    C6    S    
Cr9   O33   S    
C136  H124  S    
C101  H31   S    
C91   H19   S    
Cr10  O38   S    
C89   H17   S    
C9    C13   A    
C11   C15   A    
C130  H105  S    
C12   C16   A    
C113  H62   S    
C46   O34   A    
C10   O58   S    
C91   C100  S    
C75   O39   A    
C68   H16   S    
C46   C98   S    
C102  H32   S    
C49   C69   A    
Cr11  O39   S    
C80   O52   A    
C40   C83   S    
C51   C71   A    
C110  H51   S    
C56   H8    S    
C81   O9    A    
C25   C29   A    
C109  H55   S    
Cr7   O27   S    
C113  H63   S    
C27   C31   A    
C134  H116  S    
Cr2   O42   S    
Cr5   O49   S    
C28   C32   A    
Cr3   O47   S    
C131  H112  S    
C64   H12   S    
C17   C21   A    
C4    O28   A    
C84   O8    A    
C19   C23   A    
C43   C44   A    
C52   C72   A    
C45   O33   A    
C10   C30   A    
C129  C130  S    
C74   O38   A    
C68   C72   A    
C5    C105  S    
C50   O54   S    
C7    C99   S    
C58   C79   S    
C76   O4    A    
C127  C128  S    
C120  H79   S    
C38   C81   S    
C6    C98   S    
C114  H66   S    
C1    C20   S    
C36   O64   S    
C133  H115  S    
C2    C19   S    
C13   H21   S    
Cr10  O10   S    
Cr3   O3    S    
Cr4   O24   S    
C47   O31   A    
C57   C61   A    
C59   C63   A    
C33   C38   A    
C60   C64   A    
C121  H86   S    
C86   O14   A    
C117  H76   S    
C66   C70   A    
C7    C109  S    
C49   C53   A    
C35   C40   A    
C51   C55   A    
C50   C70   A    
C46   O30   A    
O53   C101  S    
C119  H82   S    
C96   H4    S    
Cr11  O15   S    
C110  H53   S    
C115  H67   S    
Cr8   O8    S    
C9    O57   S    
C2    O22   A    
C3    O27   A    
C7    C8    S    
C127  H102  S    
C125  H97   S    
C64   C68   A    
C92   H20   S    
C39   C84   S    
C87   O43   A    
C117  C118  S    
C30   C74   S    
C106  H42   S    
C88   O44   A    
C92   C96   S    
C47   C99   S    
C61   H9    S    
C116  H70   S    
C133  H114  S    
C102  H34   S    
C129  H107  S    
C130  H104  S    
Cr8   O28   S    
C123  H91   S    
C124  H90   S    
Cr6   O30   S    
C57   C80   S    
C26   C127  S    
C8    C95   S    
C23   C121  S    
Cr1   O45   S    
C59   C78   S    
C107  C108  S    
C125  C126  S    
Cr10  O34   S    
Cr4   O48   S    
C62   C66   A    
O64   C136  S    
C10   C14   A    
C91   C92   S    
C66   H14   S    
C134  H117  S    
C108  H46   S    
C61   C65   A    
C104  H38   S    
C80   O48   A    
C107  H50   S    
C111  H60   S    
C115  H69   S    
C78   O46   A    
Cr12  O36   S    
C5    C97   S    
C26   C30   A    
C132  H109  S    
C112  H58   S    
C6    C107  S    
Cr6   O50   S    
C16   H24   S    
C93   C97   S    
C62   H10   S    
C69   C85   S    
C86   O42   A    
C21   C25   A    
O58   C114  S    
C85   O41   A    
C18   C22   A    
C36   C39   A    
C24   C28   A    
C103  H36   S    
C135  H119  S    
C45   O29   A    
C32   C76   S    
C105  H44   S    
C129  H106  S    
C13   C17   A    
C89   C98   S    
C116  H72   S    
C77   O49   A    
Cr8   O32   S    
C8    C100  S    
C35   O63   S    
C96   C100  S    
O62   C134  S    
C37   C41   A    
C121  H87   S    
C1    O21   A    
C40   C44   A    
C122  H83   S    
Cr12  O16   S    
Cr7   O51   S    
C124  H88   S    
C28   C131  S    
Cr8   O52   S    
C79   O51   A    
Cr2   O2    S    
C47   O35   A    
C92   C99   S    
C48   O36   A    
C8    C111  S    
C58   C62   A    
C42   H26   S    
C34   C37   A    
C41   C42   A    
C35   C36   A    
O55   C103  S    
C118  H75   S    
C110  H52   S    
C5    C94   S    
Cr1   O41   S    
O59   C115  S    
C73   O1    A    
C105  C106  S    
C15   C19   A    
C7    C96   S    
C50   C54   A    
C88   O16   A    
C108  H48   S    
C94   C98   S    
C95   C99   S    
C104  H40   S    
C126  H93   S    
Cr11  O19   S    
Cr5   O17   S    
O56   C104  S    
C112  H56   S    
Cr12  O12   S    
Cr9   O13   S    
C2    O26   A    
C90   C97   S    
C41   H25   S    
Cr10  O18   S    
C3    O23   A    
C114  H65   S    
C101  H29   S    
Cr1   O17   S    
C44   H28   S    
C120  H78   S    
Cr2   O18   S    
Cr4   O20   S    
C135  H121  S    
C48   C100  S    
C82   O6    A    
C51   O55   S    
Cr9   O17   S    
C90   C94   S    
C83   O11   A    
C131  H111  S    
C136  H123  S    
C33   O61   S    
C53   C57   A    
C56   C60   A    
Cr7   O7    S    
C31   C75   S    
C103  H37   S    
Cr2   O22   S    
C6    C93   S    
Cr5   O5    S    
C34   O62   S    
C113  H61   S    
C93   H1    S    
C118  H73   S    
C71   C87   S    
C4    C17   S    
Cr4   O44   S    
C24   C123  S    
C37   C82   S    
C111  C112  S    
C115  H68   S    
C131  C132  S    
C76   O40   A    
C63   H11   S    
C117  H77   S    
C125  H96   S    
O63   C135  S    
C65   C69   A    
Cr5   O25   S    
C67   C71   A    
C90   H18   S    
Cr9   O37   S    
C55   H7    S    
C15   H23   S    
C119  C120  S    
C22   C26   A    
C120  H80   S    
C102  H33   S    
C89   C90   S    
C132  H108  S    
C123  H92   S    
C124  H89   S    
C77   O45   A    
C128  H98   S    
C14   C18   A    
C78   O50   A    
C94   H2    S    
C79   O47   A    
Cr11  O35   S    
O57   C113  S    
C53   H5    S    
C29   C73   S    
C3    C18   S    
C27   C129  S    
C48   O32   A    
Cr1   O1    S    
C109  C110  S    
C95   H3    S    
C119  H81   S    
C4    O24   A    
C43   H27   S    
O54   C102  S    
C23   C27   A    
C16   C20   A    
C73   O37   A    
C109  H54   S    
C74   O2    A    
C11   C31   A    
C12   C32   A    
C89   C93   S    
C112  H57   S    
C72   C88   S    
C122  H85   S    
C39   C43   A    
C127  H101  S    
C63   C67   A    
C60   C77   S    
C20   C24   A    
C135  H120  S    
C106  H41   S    
C118  H74   S    
C14   H22   S    
Cr6   O18   S    
C91   C95   S    
C22   C119  S    
C11   O59   S    
C25   C125  S    
C116  H71   S    
C65   H13   S    
Cr9   O9    S    
C133  H113  S    
Cr10  O14   S    
C67   H15   S    
C1    O25   A    
O60   C116  S    
Cr4   O4    S    
C33   C34   A    
C85   O13   A    
C103  H35   S    
C82   O10   A    
C75   O3    A    
C83   O7    A    
C84   O12   A    
C21   C117  S    
C130  H103  S    
C121  C122  S    
C122  H84   S    
C81   O5    A    
C54   H6    S    
C128  H100  S    
C87   O15   A    
C70   C86   S    
C54   C58   A    
C52   O56   S    
C106  H43   S    
Cr11  O11   S    
Cr7   O19   S    
C114  H64   S    
Cr8   O20   S    
C9    C29   A    
Cr3   O23   S    
Cr6   O6    S    
Cr12  O40   S    
C134  H118  S    
Cr1   O21   S    
C108  H47   S    
C45   C97   S    
Cr3   O19   S    
C49   O53   S    
C104  H39   S    
C107  H49   S    
C126  H94   S    
C111  H59   S    
O61   C133  S    
C38   C42   A    
Cr12  O20   S    
C132  H110  S    
C52   C56   A    
