data_mof_unit_29608.cif
_audit_creation_date              2012-12-10T20:27:57-0500
_audit_creation_method            fapswitch 2.2
_symmetry_space_group_name_H-M    P1
_symmetry_Int_Tables_number       1
_space_group_crystal_system       triclinic
_cell_length_a                    12.794672
_cell_length_b                    10.687823
_cell_length_c                    9.891391
_cell_angle_alpha                 90.541256
_cell_angle_beta                  98.710754
_cell_angle_gamma                 90.739401
_cell_volume                      1336.81782363

loop_
_atom_site_label
_atom_site_type_symbol
_atom_type_description
_atom_site_fract_x
_atom_site_fract_y
_atom_site_fract_z
_atom_type_partial_charge
Br1   Br    Br    0.679618 0.666168 0.881836 -0.493580
Br2   Br    Br    0.997466 0.181211 0.327848 -0.412597
Br3   Br    Br    0.051063 0.682061 0.799669 -0.433672
C1    C     C_R   0.496238 0.260191 0.498818 0.901189
C2    C     C_R   0.458634 0.933576 0.372064 -0.183221
C3    C     C_R   0.480586 0.871328 0.497415 -0.062628
C4    C     C_R   0.298378 0.501028 0.471520 0.928964
C5    C     C_R   0.482228 0.937616 0.619451 0.159243
C6    C     C_3   0.557262 0.932851 0.750845 -0.469737
C7    C     C_3   0.556937 0.075124 0.751621 -0.273305
C8    C     C_R   0.431844 0.423597 0.057102 0.175090
C9    C     C_R   0.573493 0.565963 0.088121 -0.116061
C10   C     C_R   0.573841 0.566120 0.945110 0.310962
C11   C     C_R   0.431601 0.423850 0.914661 0.160283
C12   C     C_R   0.027665 0.530536 0.543962 -0.003213
C13   C     C_3   0.313694 0.426772 0.887052 -0.447472
C14   C     C_3   0.314204 0.425625 0.040621 -0.461614
C15   C     C_R   0.497115 0.740023 0.499844 0.925314
C16   C     C_R   0.701973 0.494774 0.528261 0.938251
C17   C     C_R   0.815410 0.486340 0.548517 -0.200687
C18   C     C_R   0.186252 0.489124 0.451766 -0.179272
C19   C     C_R   0.037980 0.347800 0.394269 0.313268
C20   C     C_R   0.142537 0.379148 0.390255 -0.236682
C21   C     C_R   0.127778 0.570672 0.520839 -0.089710
C22   C     C_2   0.802795 0.329912 0.356899 1.014174
C23   C     C_R   0.976535 0.427921 0.465237 -0.006951
C24   C     C_2   0.663120 0.135143 0.741816 1.012630
C25   C     C_2   0.163116 0.703751 0.546445 0.953379
C26   C     C_R   0.866719 0.411623 0.461201 -0.085483
C27   C     C_R   0.872234 0.563994 0.647409 -0.180573
C28   C     C_R   0.978074 0.586773 0.646636 0.310854
C29   C     C_R   0.482824 0.065213 0.618782 0.028686
C30   C     C_R   0.480089 0.128687 0.496039 -0.072476
C31   C     C_R   0.458304 0.063099 0.371384 -0.163668
H1    H     H_    0.634107 0.891529 0.736470 0.251755
H2    H     H_    0.448205 0.110884 0.274258 0.170528
H3    H     H_    0.448766 0.883415 0.275183 0.177463
H4    H     H_    0.519561 0.891710 0.834657 0.225280
H5    H     H_    0.757708 0.289982 0.156668 0.368727
H6    H     H_    0.770943 0.268185 0.814001 0.361718
H7    H     H_    0.122151 0.885602 0.537292 0.370187
H8    H     H_    0.517787 0.115460 0.834822 0.165732
H9    H     H_    0.631291 0.621511 0.155056 0.193366
H10   H     H_    0.283243 0.515432 0.839099 0.250519
H11   H     H_    0.279116 0.340047 0.834520 0.210429
H12   H     H_    0.283935 0.513315 0.080970 0.238522
H13   H     H_    0.280582 0.337908 0.076926 0.209040
H14   H     H_    0.833079 0.614487 0.719697 0.230533
H15   H     H_    0.191858 0.314220 0.344393 0.169643
N1    N     N_R   0.499290 0.499140 0.142710 -0.133047
N2    N     N_R   0.499290 0.499180 0.857070 -0.123421
O1    O     O_R   0.500010 0.316790 0.614690 -0.626657
O2    O     O_R   0.806179 0.349633 0.218041 -0.751355
O3    O     O_2   0.715927 0.099190 0.656064 -0.566218
O4    O     O_R   0.699991 0.233599 0.831058 -0.783552
O5    O     O_2   0.255005 0.730408 0.591828 -0.634711
O6    O     O_R   0.089690 0.799202 0.516487 -0.732173
O7    O     O_R   0.500000 0.316760 0.385350 -0.609652
O8    O     O_R   0.346360 0.499990 0.595720 -0.597793
O9    O     O_R   0.346350 0.499960 0.366370 -0.631233
O10   O     O_R   0.500000 0.683240 0.614650 -0.571499
O11   O     O_R   0.499990 0.683210 0.385310 -0.634630
O12   O     O_R   0.653650 0.500040 0.633630 -0.570983
O13   O     O_R   0.653640 0.500010 0.404280 -0.616762
O14   O     O_2   0.745046 0.248395 0.392373 -0.577278
Zn1   Zn    Zn3+2 0.500010 0.500020 0.653130 1.028504
Zn2   Zn    Zn3+2 0.499990 0.499980 0.346870 0.979334

loop_
_geom_bond_atom_site_label_1
_geom_bond_atom_site_label_2
_ccdc_geom_bond_type
C13   H11   S    
C7    C24   S    
C9    N1    A    
C15   O10   A    
C12   C28   A    
C11   C13   S    
C2    H3    S    
C7    H8    S    
C20   H15   S    
C4    C18   S    
C6    C7    S    
C13   H10   S    
C16   C17   S    
C16   O13   A    
H6    O4    S    
C2    C31   A    
C30   C31   A    
C25   O5    D    
C24   O3    D    
H7    O6    S    
O7    Zn2   S    
O8    Zn1   S    
C8    N1    A    
C25   O6    S    
Br2   C19   S    
C29   C30   A    
Br3   C28   S    
C9    C10   A    
H5    O2    S    
O11   Zn2   S    
C1    O1    A    
C3    C5    A    
C2    C3    A    
C13   C14   S    
C27   H14   S    
C12   C21   A    
C22   O2    S    
C9    H9    S    
C31   H2    S    
C17   C26   A    
C18   C20   A    
C11   N2    A    
C22   C26   S    
C27   C28   A    
C3    C15   S    
C8    C11   A    
C24   O4    S    
O12   Zn1   S    
Br1   C10   S    
C1    C30   S    
C19   C23   A    
C5    C29   A    
O13   Zn2   S    
C7    C29   S    
C4    O9    A    
O1    Zn1   S    
C14   H12   S    
O9    Zn2   S    
C23   C26   A    
N1    Zn2   S    
C18   C21   A    
C4    O8    A    
C6    H1    S    
C22   O14   D    
C19   C20   A    
C6    H4    S    
C12   C23   A    
C17   C27   A    
C1    O7    A    
C10   N2    A    
O10   Zn1   S    
C15   O11   A    
C21   C25   S    
C14   H13   S    
C16   O12   A    
C5    C6    S    
N2    Zn1   S    
C8    C14   S    
