data_mof_unit_29879.cif
_audit_creation_date              2012-12-10T19:03:35-0500
_audit_creation_method            fapswitch 2.2
_symmetry_space_group_name_H-M    P1
_symmetry_Int_Tables_number       1
_space_group_crystal_system       triclinic
_cell_length_a                    15.884605
_cell_length_b                    10.860599
_cell_length_c                    9.540083
_cell_angle_alpha                 90.006698
_cell_angle_beta                  90.157479
_cell_angle_gamma                 90.112519
_cell_volume                      1645.81065852

loop_
_atom_site_label
_atom_site_type_symbol
_atom_type_description
_atom_site_fract_x
_atom_site_fract_y
_atom_site_fract_z
_atom_type_partial_charge
C1    C     C_R   0.500124 0.262679 0.499844 0.799500
C2    C     C_3   0.951745 0.439456 0.629293 -0.464550
C3    C     C_3   0.916789 0.503794 0.496050 0.285923
C4    C     C_3   0.950129 0.638711 0.499069 -0.366754
C5    C     C_3   0.048139 0.642021 0.510587 0.015114
C6    C     C_1   0.824705 0.502247 0.499124 -0.094094
C7    C     C_1   0.175097 0.504564 0.497477 -0.109666
C8    C     C_1   0.250599 0.502120 0.499017 -0.188876
C9    C     C_R   0.498439 0.061982 0.621015 0.133144
C10   C     C_R   0.500941 0.130069 0.498135 -0.105859
C11   C     C_R   0.504395 0.064558 0.370401 -0.224815
C12   C     C_R   0.340209 0.500149 0.499834 0.828014
C13   C     C_R   0.504570 0.935403 0.370420 -0.224142
C14   C     C_R   0.501253 0.869914 0.498179 -0.106605
C15   C     C_R   0.498690 0.938021 0.621056 0.132062
C16   C     C_3   0.493342 0.929145 0.776626 -0.473574
C17   C     C_3   0.492990 0.070963 0.776550 -0.478152
C18   C     C_R   0.541817 0.589839 0.073859 0.258381
C19   C     C_R   0.452462 0.418437 0.074215 -0.081031
C20   C     C_R   0.452444 0.418445 0.925293 -0.079281
C21   C     C_R   0.541863 0.589763 0.926450 0.259974
C22   C     C_3   0.633896 0.616942 0.921179 -0.509220
C23   C     C_R   0.500328 0.737313 0.499841 0.800805
C24   C     C_3   0.633792 0.617373 0.080222 -0.509392
C25   C     C_R   0.659739 0.500213 0.500116 0.830228
C26   C     C_3   0.049077 0.431201 0.621116 -0.434389
C27   C     C_3   0.048910 0.449766 0.357032 -0.397054
C28   C     C_3   0.952029 0.431212 0.366537 0.036483
C29   C     C_1   0.749253 0.501185 0.500270 -0.201351
C30   C     C_3   0.082846 0.507811 0.495241 0.243268
Cu1   Cu    Cu3+1 0.500000 0.499980 0.640670 0.937574
Cu2   Cu    Cu3+1 0.500000 0.500020 0.359330 0.935921
H1    H     H_    0.924811 0.345225 0.640057 0.169382
H2    H     H_    0.076841 0.465097 0.721243 0.170268
H3    H     H_    0.933316 0.491845 0.724719 0.179934
H4    H     H_    0.927964 0.689982 0.406077 0.183504
H5    H     H_    0.506756 0.112309 0.270814 0.166086
H6    H     H_    0.507070 0.887634 0.270842 0.165536
H7    H     H_    0.432961 0.887740 0.811916 0.199132
H8    H     H_    0.551067 0.888836 0.823802 0.191877
H9    H     H_    0.432338 0.111264 0.811670 0.189422
H10   H     H_    0.550474 0.112512 0.823685 0.201388
H11   H     H_    0.415290 0.350852 0.129916 0.136995
H12   H     H_    0.068054 0.333134 0.609202 0.179613
H13   H     H_    0.415198 0.350962 0.869244 0.135136
H14   H     H_    0.671257 0.539982 0.876524 0.221372
H15   H     H_    0.647301 0.708820 0.875052 0.186059
H16   H     H_    0.671344 0.540891 0.125833 0.224960
H17   H     H_    0.646770 0.709655 0.125923 0.189809
H18   H     H_    0.065962 0.508317 0.266116 0.171879
H19   H     H_    0.079346 0.358875 0.338853 0.142162
H20   H     H_    0.942952 0.331677 0.391392 0.112609
H21   H     H_    0.064914 0.673838 0.618252 0.151073
H22   H     H_    0.923175 0.687953 0.590922 0.139549
N1    N     N_R   0.500530 0.500930 0.147930 -0.184239
N2    N     N_R   0.500530 0.500890 0.852020 -0.184037
O1    O     O_R   0.500000 0.319640 0.618810 -0.582844
O2    O     O_R   0.500010 0.319680 0.381230 -0.590453
O3    O     O_R   0.379430 0.499990 0.618840 -0.578024
O4    O     O_R   0.379440 0.500030 0.381260 -0.577268
O5    O     O_R   0.499990 0.680320 0.618770 -0.579603
O6    O     O_R   0.500000 0.680360 0.381190 -0.586877
O7    O     O_R   0.620560 0.499970 0.618740 -0.578851
O8    O     O_R   0.620570 0.500010 0.381160 -0.578647
C31   C     C_3   0.905867 0.444818 0.223371 -0.402911
C32   C     C_3   0.895528 0.575539 0.167106 -0.834051
H23   H     H_    0.847250 0.626006 0.228033 0.248771
H24   H     H_    0.956125 0.626073 0.167872 0.240403
H25   H     H_    0.872854 0.571022 0.056987 0.235039
H26   H     H_    0.940645 0.390115 0.143862 0.195048
H27   H     H_    0.842223 0.402588 0.231242 0.201949
C33   C     C_3   0.087428 0.736379 0.407163 -0.397620
C34   C     C_3   0.065561 0.869193 0.445890 -0.884365
H28   H     H_    0.996626 0.884811 0.439822 0.250466
H29   H     H_    0.087940 0.890590 0.553593 0.249131
H30   H     H_    0.096882 0.933210 0.371658 0.245378
H31   H     H_    0.157112 0.729082 0.408415 0.214504
H32   H     H_    0.066046 0.718499 0.298328 0.203767

loop_
_geom_bond_atom_site_label_1
_geom_bond_atom_site_label_2
_ccdc_geom_bond_type
C2    H3    S    
C32   H24   S    
C4    H4    S    
C18   C21   A    
C11   C13   A    
C34   H28   S    
Cu1   O5    S    
C19   C20   A    
Cu2   O2    S    
C20   N2    A    
C3    C6    S    
C26   H12   S    
C7    C8    T    
C18   C24   S    
C5    H21   S    
C3    C28   S    
C5    C33   S    
C32   H25   S    
C15   C16   S    
C25   O7    A    
Cu1   O3    S    
C11   H5    S    
C17   H10   S    
C33   H32   S    
C12   O3    A    
C26   H2    S    
C23   O6    A    
C19   H11   S    
C16   C17   S    
Cu1   N2    S    
C9    C10   A    
Cu2   N1    S    
C20   H13   S    
C27   H18   S    
C22   H15   S    
C7    C30   S    
C21   C22   S    
C27   C30   S    
C34   H29   S    
C27   H19   S    
C25   C29   S    
C24   H16   S    
Cu1   O7    S    
Cu2   O8    S    
C4    C5    S    
C31   H27   S    
C28   C31   S    
C25   O8    A    
C14   C23   S    
C33   H31   S    
C1    O1    A    
Cu1   Cu2   S    
C8    C12   S    
C2    C26   S    
C13   H6    S    
C18   N1    A    
C16   H8    S    
C2    H1    S    
C9    C17   S    
C22   H14   S    
C26   C30   S    
C34   H30   S    
C22   C24   S    
Cu2   O4    S    
C3    C4    S    
C5    C30   S    
C19   N1    A    
C24   H17   S    
C4    H22   S    
C1    C10   S    
C33   C34   S    
C21   N2    A    
Cu1   O1    S    
C2    C3    S    
C9    C15   A    
Cu2   O6    S    
C1    O2    A    
C28   H20   S    
C32   H23   S    
C17   H9    S    
C10   C11   A    
C16   H7    S    
C12   O4    A    
C23   O5    A    
C6    C29   T    
C31   C32   S    
C27   C28   S    
C14   C15   A    
C13   C14   A    
C31   H26   S    
