data_mof_unit_36112.cif
_audit_creation_date              2012-12-11T15:22:38-0500
_audit_creation_method            fapswitch 2.2
_symmetry_space_group_name_H-M    P1
_symmetry_Int_Tables_number       1
_space_group_crystal_system       triclinic
_cell_length_a                    22.439433
_cell_length_b                    12.984498
_cell_length_c                    26.989102
_cell_angle_alpha                 90.01793
_cell_angle_beta                  90.365491
_cell_angle_gamma                 89.985975
_cell_volume                      7863.51296504

loop_
_atom_site_label
_atom_site_type_symbol
_atom_type_description
_atom_site_fract_x
_atom_site_fract_y
_atom_site_fract_z
_atom_type_partial_charge
C1    C     C_R   0.720794 0.345193 0.178414 0.596899
C2    C     C_R   0.481582 0.256564 0.896045 -0.160602
C3    C     C_R   0.010214 0.585686 0.555152 -0.141656
C4    C     C_R   0.491293 0.099768 0.391932 -0.088140
C5    C     C_R   0.497733 0.083166 0.605637 -0.091564
C6    C     C_R   0.991282 0.599787 0.391929 -0.087851
C7    C     C_R   0.997726 0.583155 0.605636 -0.089481
C8    C     C_R   0.738376 0.957180 0.372638 0.029028
C9    C     C_R   0.262749 0.964431 0.625326 0.028289
C10   C     C_R   0.238363 0.457234 0.372655 0.028294
C11   C     C_R   0.762750 0.464442 0.625324 0.027462
C12   C     C_R   0.686317 0.937307 0.400338 0.336138
C13   C     C_R   0.017748 0.756294 0.104017 -0.150238
C14   C     C_R   0.315124 0.938127 0.599280 0.338394
C15   C     C_R   0.186297 0.437356 0.400345 0.335705
C16   C     C_R   0.815125 0.438145 0.599277 0.337920
C17   C     C_R   0.690020 0.922148 0.450824 -0.090572
C18   C     C_R   0.314441 0.932274 0.548120 -0.098622
C19   C     C_R   0.189982 0.422267 0.450837 -0.090347
C20   C     C_R   0.814443 0.432298 0.548117 -0.098681
C21   C     C_R   0.745268 0.923732 0.474637 -0.076822
C22   C     C_R   0.261633 0.949080 0.521742 -0.070143
C23   C     C_R   0.245219 0.423915 0.474668 -0.076645
C24   C     C_R   0.977097 0.754906 0.898329 -0.147118
C25   C     C_R   0.761634 0.449104 0.521739 -0.070052
C26   C     C_R   0.797568 0.933828 0.446969 -0.096587
C27   C     C_R   0.208676 0.968093 0.547424 -0.073216
C28   C     C_R   0.297528 0.434021 0.447011 -0.096635
C29   C     C_R   0.708677 0.468114 0.547422 -0.073187
C30   C     C_R   0.794598 0.950249 0.396067 0.182576
C31   C     C_R   0.208541 0.974209 0.598851 0.186789
C32   C     C_R   0.294576 0.450380 0.396105 0.182266
C33   C     C_R   0.708542 0.474225 0.598849 0.185980
C34   C     C_R   0.787413 0.977241 0.555769 -0.079538
C35   C     C_R   0.512424 0.256341 0.050320 0.047456
C36   C     C_R   0.222914 0.000511 0.438636 -0.081819
C37   C     C_R   0.287350 0.477410 0.555809 -0.079450
C38   C     C_R   0.722915 0.500528 0.438632 -0.081747
C39   C     C_R   0.721494 0.348284 0.321252 0.548685
C40   C     C_R   0.278796 0.347600 0.678453 0.551226
C41   C     C_R   0.221493 0.848282 0.321253 0.547272
C42   C     C_R   0.778801 0.847585 0.678446 0.540632
C43   C     C_R   0.793655 0.962303 0.606435 -0.101750
C44   C     C_R   0.213370 0.976487 0.389036 -0.098133
C45   C     C_R   0.293611 0.462415 0.606470 -0.099824
C46   C     C_R   0.495489 0.257720 0.946721 0.042011
C47   C     C_R   0.713372 0.476499 0.389031 -0.096972
C48   C     C_R   0.716734 0.830783 0.603407 -0.116716
C49   C     C_R   0.285172 0.837269 0.395678 -0.114695
C50   C     C_R   0.216696 0.330886 0.603426 -0.116130
C51   C     C_R   0.785173 0.337280 0.395678 -0.115057
C52   C     C_R   0.711168 0.844659 0.552796 -0.113908
C53   C     C_R   0.293719 0.859788 0.445315 -0.104660
C54   C     C_R   0.211111 0.344819 0.552821 -0.114020
C55   C     C_R   0.793720 0.359805 0.445314 -0.104852
C56   C     C_R   0.747893 0.915436 0.528490 0.038658
C57   C     C_R   0.004111 0.757443 0.053271 0.049347
C58   C     C_R   0.260753 0.938697 0.467671 0.047432
C59   C     C_R   0.247829 0.415621 0.528522 0.038478
C60   C     C_R   0.760754 0.438716 0.467668 0.047303
C61   C     C_R   0.760185 0.885716 0.630068 0.018634
C62   C     C_R   0.242433 0.891635 0.368031 0.021675
C63   C     C_R   0.260158 0.385788 0.630090 0.020741
C64   C     C_R   0.742434 0.391643 0.368029 0.022098
C65   C     C_R   0.554532 0.158933 0.321611 0.561583
C66   C     C_R   0.445408 0.158763 0.678237 0.554840
C67   C     C_R   0.054530 0.658933 0.321610 0.561510
C68   C     C_R   0.987420 0.756481 0.949625 0.034345
C69   C     C_R   0.945409 0.658763 0.678237 0.558832
C70   C     C_R   0.731420 0.002080 0.323173 0.589822
C71   C     C_R   0.268784 0.003194 0.676281 0.585549
C72   C     C_R   0.231417 0.502089 0.323177 0.589500
C73   C     C_R   0.768784 0.503196 0.676281 0.580429
C74   C     C_R   0.513991 0.067460 0.101251 0.245564
C75   C     C_R   0.500840 0.072008 0.893108 0.231793
C76   C     C_R   0.000796 0.571064 0.106327 0.255234
C77   C     C_R   0.987989 0.568076 0.898113 0.254775
C78   C     C_R   0.512623 0.068041 0.049277 0.041317
C79   C     C_R   0.510212 0.162746 0.023816 0.080505
C80   C     C_R   0.507469 0.070487 0.944878 0.037749
C81   C     C_R   0.994906 0.569756 0.054517 0.053270
C82   C     C_R   0.989904 0.568171 0.950098 0.053227
C83   C     C_R   0.514200 0.977298 0.970675 -0.055554
C84   C     C_R   0.515011 0.975875 0.022083 -0.060748
C85   C     C_R   0.989231 0.475628 0.977035 -0.012228
C86   C     C_R   0.990025 0.476538 0.028446 -0.018023
C87   C     C_R   0.504609 0.163700 0.971747 0.077459
C88   C     C_R   0.996489 0.663340 0.027932 0.073604
C89   C     C_R   0.279355 0.344819 0.821727 0.595875
C90   C     C_R   0.990981 0.662702 0.975848 0.068929
C91   C     C_R   0.506636 0.349897 0.024702 -0.063860
C92   C     C_R   0.496837 0.350475 0.973445 -0.065326
C93   C     C_R   0.001538 0.850405 0.026797 -0.020700
C94   C     C_R   0.991864 0.849979 0.975517 -0.033052
C95   C     C_R   0.735352 0.969835 0.127847 -0.024284
C96   C     C_R   0.259417 0.957226 0.870122 -0.035794
C97   C     C_R   0.240783 0.456286 0.130068 -0.035545
C98   C     C_R   0.759411 0.455287 0.869752 -0.044960
C99   C     C_R   0.686359 0.989700 0.096687 -0.118851
C100  C     C_R   0.220651 0.844809 0.178276 0.593818
C101  C     C_R   0.212207 0.993212 0.899314 -0.118959
C102  C     C_R   0.289228 0.489210 0.101465 -0.118497
C103  C     C_R   0.706206 0.473751 0.895400 -0.101423
C104  C     C_R   0.690844 0.975310 0.046088 -0.088234
C105  C     C_R   0.209924 0.969147 0.949355 -0.105495
C106  C     C_R   0.291882 0.464891 0.051435 -0.105249
C107  C     C_R   0.702279 0.450633 0.945601 -0.098500
C108  C     C_R   0.743725 0.937693 0.025956 0.109806
C109  C     C_R   0.253998 0.907070 0.970905 0.107488
C110  C     C_R   0.246846 0.405753 0.029334 0.107593
C111  C     C_R   0.778839 0.845418 0.821764 0.568608
C112  C     C_R   0.751226 0.408032 0.970687 0.106946
C113  C     C_R   0.792552 0.914707 0.057058 0.461884
C114  C     C_R   0.299602 0.866144 0.941576 0.451111
C115  C     C_R   0.200034 0.367508 0.058144 0.446850
C116  C     C_R   0.803214 0.383572 0.944748 0.458418
C117  C     C_R   0.553442 0.156771 0.177344 0.554822
C118  C     C_R   0.447801 0.157219 0.821805 0.563118
C119  C     C_R   0.052230 0.657154 0.178161 0.564440
C120  C     C_R   0.946713 0.656850 0.822563 0.570652
C121  C     C_R   0.788683 0.932865 0.107955 -0.052329
C122  C     C_R   0.480494 0.163139 0.869596 0.006839
C123  C     C_R   0.302479 0.891710 0.891392 -0.064867
C124  C     C_R   0.196881 0.393169 0.108298 -0.068618
C125  C     C_R   0.807237 0.406978 0.894490 -0.080156
C126  C     C_R   0.708507 0.852119 0.948642 0.231319
C127  C     C_R   0.292071 0.927793 0.057974 0.280555
C128  C     C_R   0.209662 0.430619 0.942281 0.280601
C129  C     C_R   0.779404 0.453242 0.057967 0.275207
C130  C     C_R   0.712953 0.835349 0.897497 0.259655
C131  C     C_R   0.283314 0.916053 0.109292 0.241067
C132  C     C_R   0.218170 0.418966 0.890930 0.242724
C133  C     C_R   0.525829 0.160445 0.127285 0.008623
C134  C     C_R   0.772052 0.439348 0.109299 0.250769
C135  C     C_R   0.793993 0.959734 0.893939 -0.138672
C136  C     C_R   0.192515 0.819952 0.092238 -0.142758
C137  C     C_R   0.306685 0.316439 0.907676 -0.142951
C138  C     C_R   0.701686 0.300999 0.092482 -0.135023
C139  C     C_R   0.787649 0.980231 0.944142 0.247925
C140  C     C_R   0.201413 0.829162 0.041732 0.191861
C141  C     C_R   0.298054 0.325759 0.958225 0.190888
C142  C     C_R   0.708986 0.313476 0.041887 0.209233
C143  C     C_R   0.747063 0.922626 0.972234 0.039070
C144  C     C_R   0.974816 0.660880 0.872431 0.016637
C145  C     C_R   0.250464 0.885074 0.024142 0.032263
C146  C     C_R   0.250243 0.384644 0.975992 0.031755
C147  C     C_R   0.747409 0.390305 0.024236 0.048365
C148  C     C_R   0.759186 0.883999 0.870514 -0.051984
C149  C     C_R   0.232473 0.864107 0.126096 -0.039730
C150  C     C_R   0.267734 0.363658 0.873971 -0.039592
C151  C     C_R   0.732391 0.363820 0.126180 -0.028884
C152  C     C_R   0.532427 0.169408 0.372152 0.013574
C153  C     C_R   0.470969 0.168293 0.628560 -0.008499
C154  C     C_R   0.032428 0.669409 0.372152 0.014097
C155  C     C_R   0.019775 0.662667 0.130233 0.014712
C156  C     C_R   0.970973 0.668291 0.628561 -0.007244
C157  C     C_R   0.560984 0.240705 0.403328 -0.063174
C158  C     C_R   0.458627 0.257038 0.600588 -0.069601
C159  C     C_R   0.061001 0.740683 0.403331 -0.063201
C160  C     C_R   0.958645 0.757045 0.600591 -0.069494
C161  C     C_R   0.550110 0.241064 0.453875 0.293071
C162  C     C_R   0.469931 0.259218 0.549987 0.290891
C163  C     C_R   0.050129 0.741038 0.453878 0.293087
C164  C     C_R   0.969951 0.759225 0.549990 0.290899
C165  C     C_R   0.730984 0.002837 0.179222 0.543562
C166  C     C_R   0.522683 0.254611 0.101622 -0.151504
C167  C     C_R   0.268756 0.002430 0.820869 0.547426
C168  C     C_R   0.231280 0.502279 0.179167 0.547085
C169  C     C_R   0.768719 0.502079 0.820786 0.548859
C170  C     C_R   0.507958 0.172870 0.473672 0.065032
C171  C     C_R   0.495660 0.172868 0.526965 0.061754
C172  C     C_R   0.007963 0.672867 0.473672 0.065049
C173  C     C_R   0.995666 0.672865 0.526965 0.061675
C174  C     C_R   0.478463 0.102533 0.442484 -0.137640
C175  C     C_R   0.510220 0.085697 0.555153 -0.141948
C176  C     C_R   0.978453 0.602552 0.442482 -0.137664
Cl1   Cl    Cl    0.518730 0.960160 0.858259 -0.506511
Cl2   Cl    Cl    0.139256 0.994176 0.627847 -0.512557
Cl3   Cl    Cl    0.362186 0.462631 0.363738 -0.522425
Cl4   Cl    Cl    0.639257 0.494191 0.627847 -0.514191
Cl5   Cl    Cl    0.656963 0.778899 0.983541 -0.536043
Cl6   Cl    Cl    0.353699 0.999109 0.036447 -0.418210
Cl7   Cl    Cl    0.149718 0.505932 0.964012 -0.430995
Cl8   Cl    Cl    0.826692 0.552026 0.036135 -0.466654
Cl9   Cl    Cl    0.660317 0.751911 0.869237 -0.457169
Cl10  Cl    Cl    0.334378 0.968974 0.152265 -0.436702
Cl11  Cl    Cl    0.168432 0.476006 0.848117 -0.437406
Cl12  Cl    Cl    0.498700 0.950258 0.132801 -0.468515
Cl13  Cl    Cl    0.811165 0.517142 0.152139 -0.449540
Cl14  Cl    Cl    0.832023 0.078011 0.970735 -0.454632
Cl15  Cl    Cl    0.150250 0.768638 0.001376 -0.562059
Cl16  Cl    Cl    0.347955 0.261636 0.998377 -0.552782
Cl17  Cl    Cl    0.669250 0.231128 0.001560 -0.638452
Cl18  Cl    Cl    0.004161 0.451838 0.866010 -0.475074
Cl19  Cl    Cl    0.983478 0.458358 0.140694 -0.487261
Cl20  Cl    Cl    0.593898 0.321694 0.491726 -0.567344
Cl21  Cl    Cl    0.447334 0.368631 0.516175 -0.558672
Cl22  Cl    Cl    0.093935 0.821635 0.491731 -0.566473
Cl23  Cl    Cl    0.947376 0.868657 0.516182 -0.558836
Cl24  Cl    Cl    0.862194 0.962482 0.363680 -0.522444
Cr1   Cr    Cr6+3 0.756570 0.170940 0.251190 1.108582
Cr2   Cr    Cr6+3 0.374010 0.036240 0.749520 1.138448
Cr3   Cr    Cr6+3 0.125990 0.536240 0.250480 1.135734
Cr4   Cr    Cr6+3 0.874010 0.536240 0.749520 1.137203
Cr5   Cr    Cr6+3 0.243430 0.170940 0.748810 1.108354
Cr6   Cr    Cr6+3 0.256570 0.670940 0.251190 1.108974
Cr7   Cr    Cr6+3 0.743430 0.670940 0.748810 1.133101
Cr8   Cr    Cr6+3 0.623740 0.299110 0.249580 1.067092
Cr9   Cr    Cr6+3 0.376260 0.299110 0.750420 1.060842
Cr10  Cr    Cr6+3 0.123740 0.799110 0.249580 1.064980
Cr11  Cr    Cr6+3 0.876260 0.799110 0.750420 1.058223
Cr12  Cr    Cr6+3 0.625990 0.036240 0.250480 1.142824
F1    F     F_    0.843773 0.875987 0.038071 -0.588732
F2    F     F_    0.341725 0.803578 0.961702 -0.587691
F3    F     F_    0.156913 0.307781 0.037490 -0.592598
F4    F     F_    0.850573 0.340488 0.968453 -0.570843
F5    F     F_    0.630913 0.940480 0.379837 -0.608764
F6    F     F_    0.368355 0.924167 0.622559 -0.609616
F7    F     F_    0.130902 0.440448 0.379825 -0.609306
F8    F     F_    0.868356 0.424184 0.622555 -0.610654
H1    H     H_    0.828074 0.000690 0.873625 0.183153
H2    H     H_    0.436576 0.322601 0.617250 0.169408
H3    H     H_    0.094951 0.791796 0.388966 0.159148
H4    H     H_    0.936604 0.822616 0.617254 0.169417
H5    H     H_    0.530317 0.019024 0.537812 0.132229
H6    H     H_    0.446384 0.048769 0.457510 0.124349
H7    H     H_    0.030302 0.519007 0.537809 0.132284
H8    H     H_    0.946365 0.548803 0.457506 0.124317
H9    H     H_    0.507022 0.013481 0.626341 0.176763
H10   H     H_    0.470011 0.042664 0.368520 0.155962
H11   H     H_    0.007007 0.513465 0.626338 0.177776
H12   H     H_    0.154460 0.776476 0.105287 0.156821
H13   H     H_    0.969988 0.542700 0.368515 0.156009
H14   H     H_    0.814777 0.034535 0.537667 0.143791
H15   H     H_    0.198447 0.063885 0.454864 0.124394
H16   H     H_    0.314707 0.534724 0.537715 0.144051
H17   H     H_    0.698448 0.563903 0.454858 0.124644
H18   H     H_    0.827108 0.006094 0.626447 0.156280
H19   H     H_    0.180839 0.020319 0.368017 0.153196
H20   H     H_    0.327069 0.506188 0.626486 0.157976
H21   H     H_    0.680842 0.520329 0.368012 0.154520
H22   H     H_    0.516210 0.904042 0.951681 0.221210
H23   H     H_    0.343780 0.270699 0.894459 0.158311
H24   H     H_    0.519084 0.901769 0.040070 0.206908
H25   H     H_    0.986510 0.401529 0.958855 0.214543
H26   H     H_    0.989339 0.403014 0.047245 0.207517
H27   H     H_    0.649136 0.914118 0.471611 0.149617
H28   H     H_    0.355912 0.917275 0.529107 0.143457
H29   H     H_    0.149090 0.414225 0.471614 0.149731
H30   H     H_    0.855914 0.417303 0.529104 0.143367
H31   H     H_    0.680401 0.796084 0.532380 0.124714
H32   H     H_    0.322858 0.810286 0.466795 0.125795
H33   H     H_    0.180343 0.296254 0.532400 0.124540
H34   H     H_    0.671605 0.241845 0.105755 0.138068
H35   H     H_    0.822860 0.310306 0.466795 0.125573
H36   H     H_    0.690392 0.771027 0.620722 0.169079
H37   H     H_    0.308302 0.771472 0.380300 0.162407
H38   H     H_    0.190363 0.271106 0.620732 0.168909
H39   H     H_    0.808303 0.271482 0.380301 0.162158
H40   H     H_    0.840664 0.930792 0.465051 0.215256
H41   H     H_    0.167108 0.978264 0.527580 0.216705
H42   H     H_    0.340618 0.431033 0.465106 0.215217
H43   H     H_    0.667109 0.478284 0.527577 0.216822
H44   H     H_    0.468435 0.327596 0.877925 0.144543
H45   H     H_    0.826966 0.918775 0.131644 0.159806
H46   H     H_    0.530085 0.326370 0.121251 0.144386
H47   H     H_    0.968743 0.826612 0.878926 0.144465
H48   H     H_    0.029836 0.827593 0.122407 0.142573
H49   H     H_    0.490237 0.423415 0.954713 0.134435
H50   H     H_    0.508408 0.422498 0.044450 0.130436
H51   H     H_    0.989035 0.922714 0.955979 0.144673
H52   H     H_    0.007001 0.923392 0.045748 0.143207
H53   H     H_    0.645357 0.021346 0.111205 0.149302
H54   H     H_    0.178643 0.044486 0.884210 0.171927
H55   H     H_    0.323540 0.538402 0.116997 0.171762
H56   H     H_    0.339446 0.863332 0.869695 0.173396
H57   H     H_    0.668646 0.510680 0.877345 0.198377
H58   H     H_    0.653172 0.994219 0.022464 0.179303
H59   H     H_    0.174254 0.000499 0.971651 0.166191
H60   H     H_    0.328492 0.494095 0.029546 0.165389
H61   H     H_    0.661682 0.468724 0.965324 0.168909
H62   H     H_    0.158985 0.367063 0.129520 0.171964
H63   H     H_    0.848882 0.392154 0.875707 0.179725
H64   H     H_    0.594925 0.291834 0.388962 0.159002
O1    O     O_R   0.769900 0.064540 0.196060 -0.493939
O2    O     O_R   0.433710 0.069580 0.694600 -0.454825
O3    O     O_R   0.066290 0.569580 0.305400 -0.444514
O4    O     O_R   0.933710 0.569580 0.694600 -0.454140
O5    O     O_R   0.680760 0.993330 0.302620 -0.438034
O6    O     O_R   0.319240 0.993330 0.697380 -0.436714
O7    O     O_R   0.180760 0.493330 0.302620 -0.439553
O8    O     O_R   0.819240 0.493330 0.697380 -0.439267
O9    O     O_3   0.668770 0.168760 0.250420 -0.297743
O10   O     O_3   0.331230 0.168760 0.749580 -0.292148
O11   O     O_3   0.168770 0.668760 0.250420 -0.292390
O12   O     O_R   0.230100 0.064540 0.803940 -0.500643
O13   O     O_3   0.831230 0.668760 0.749580 -0.290581
O14   O     O_R   0.750800 0.274080 0.199250 -0.473100
O15   O     O_R   0.249200 0.274080 0.800750 -0.470523
O16   O     O_R   0.250800 0.774080 0.199250 -0.469150
O17   O     O_R   0.749200 0.774080 0.800750 -0.436316
O18   O     O_R   0.669990 0.371670 0.194150 -0.500896
O19   O     O_R   0.330010 0.371670 0.805850 -0.504018
O20   O     O_R   0.169990 0.871670 0.194150 -0.506680
O21   O     O_R   0.830010 0.871670 0.805850 -0.522707
O22   O     O_R   0.574600 0.238480 0.197800 -0.515126
O23   O     O_R   0.269900 0.564540 0.196060 -0.499162
O24   O     O_R   0.425400 0.238480 0.802200 -0.518764
O25   O     O_R   0.074600 0.738480 0.197800 -0.517829
O26   O     O_R   0.925400 0.738480 0.802200 -0.509625
O27   O     O_R   0.566130 0.068680 0.194240 -0.450927
O28   O     O_R   0.433870 0.068680 0.805760 -0.444339
O29   O     O_R   0.066130 0.568680 0.194240 -0.448501
O30   O     O_R   0.933870 0.568680 0.805760 -0.448509
O31   O     O_R   0.680610 0.992490 0.199570 -0.495293
O32   O     O_R   0.319390 0.992490 0.800430 -0.503103
O33   O     O_R   0.180610 0.492490 0.199570 -0.506300
O34   O     O_R   0.730100 0.564540 0.803940 -0.469381
O35   O     O_R   0.819390 0.492490 0.800430 -0.509697
O36   O     O_R   0.770060 0.065440 0.307230 -0.469160
O37   O     O_R   0.229940 0.065440 0.692770 -0.467866
O38   O     O_R   0.270060 0.565440 0.307230 -0.468046
O39   O     O_R   0.729940 0.565440 0.692770 -0.468438
O40   O     O_R   0.750960 0.274920 0.302300 -0.499725
O41   O     O_R   0.249040 0.274920 0.697700 -0.498320
O42   O     O_R   0.250960 0.774920 0.302300 -0.498746
O43   O     O_R   0.749040 0.774920 0.697700 -0.501143
O44   O     O_R   0.670160 0.372580 0.305320 -0.510930
O45   O     O_R   0.574760 0.239320 0.300850 -0.503169
O46   O     O_R   0.329840 0.372580 0.694680 -0.512425
O47   O     O_R   0.170160 0.872580 0.305320 -0.512471
O48   O     O_R   0.829840 0.872580 0.694680 -0.515957
O49   O     O_R   0.425240 0.239320 0.699150 -0.507302
O50   O     O_R   0.074760 0.739320 0.300850 -0.503742
O51   O     O_R   0.925240 0.739320 0.699150 -0.506442
O52   O     O_R   0.566290 0.069580 0.305400 -0.443591

loop_
_geom_bond_atom_site_label_1
_geom_bond_atom_site_label_2
_ccdc_geom_bond_type
C21   C26   A    
C34   C56   A    
C3    H7    S    
C132  C150  A    
C107  C112  A    
Cr7   O17   S    
C120  C144  S    
C136  C140  A    
C117  C133  S    
C79   C87   A    
C36   H15   S    
C135  C139  A    
C128  Cl7   S    
C43   C61   A    
C72   O7    A    
C97   C124  A    
Cr6   O38   S    
C95   C99   A    
C75   C122  A    
C29   C33   A    
C126  C143  A    
C137  C141  A    
C98   C169  S    
C2    H44   S    
C162  C171  A    
C163  Cl22  S    
Cr11  O48   S    
C68   C90   A    
C25   C60   S    
C81   C86   A    
C36   C44   A    
C116  F4    S    
C33   Cl4   S    
C72   O38   A    
Cr3   O29   S    
C80   C83   A    
C4    C152  A    
Cr11  O13   S    
C42   O43   A    
C9    C31   A    
C73   O39   A    
C25   C29   A    
C27   C31   A    
Cr1   O36   S    
C1    O14   A    
C28   C32   A    
Cr3   O11   S    
Cr1   O40   S    
C121  H45   S    
C47   C64   A    
Cr1   O14   S    
C111  O17   A    
C17   C21   A    
C161  Cl20  S    
C120  O30   A    
C108  C113  A    
C100  O20   A    
C19   C23   A    
C76   Cl19  S    
C39   O40   A    
C20   H30   S    
Cr8   O45   S    
C156  C160  A    
C16   C20   A    
C166  H46   S    
C115  F3    S    
C164  C173  A    
C84   H24   S    
C163  C172  A    
C127  C145  A    
C89   C150  S    
C160  H4    S    
C22   C27   A    
C24   H47   S    
Cr4   O8    S    
Cr2   O28   S    
C37   C45   A    
Cr1   O1    S    
Cr4   O30   S    
C89   O15   A    
C170  C174  A    
Cr3   O3    S    
C152  C157  A    
Cr4   O4    S    
Cr11  O51   S    
C49   C62   A    
Cr12  O27   S    
C109  C145  S    
C51   C64   A    
Cr9   O24   S    
C82   C90   A    
C140  C145  A    
C22   C58   S    
C66   C153  S    
C53   C58   A    
Cr9   O46   S    
C124  H62   S    
C138  C151  A    
C82   C85   A    
C76   C155  A    
C70   O36   A    
Cr4   O35   S    
C133  C166  A    
C165  O31   A    
C67   O50   A    
C77   C82   A    
C49   C53   A    
C134  C151  A    
C55   H35   S    
C73   O8    A    
C51   C55   A    
C75   Cl1   S    
C127  C131  A    
C129  C147  A    
C81   C88   A    
C169  O35   A    
C137  H23   S    
C48   C52   A    
C69   O4    A    
C117  O22   A    
Cr1   O9    S    
Cr2   O6    S    
C17   H27   S    
C14   F6    S    
C103  C107  A    
C111  C148  S    
C30   Cl24  S    
C41   O47   A    
C114  F2    S    
C139  Cl14  S    
C85   C86   A    
C23   C59   S    
C83   H22   S    
C67   C154  S    
C167  O32   A    
C13   C57   A    
C170  C171  S    
Cr10  O50   S    
Cr7   O39   S    
C118  C122  S    
C165  O1    A    
C153  C158  A    
C139  C143  A    
C98   C125  A    
C7    C156  A    
C164  Cl23  S    
C85   H25   S    
C50   C63   A    
C141  Cl16  S    
C54   C59   A    
C135  H1    S    
C71   O37   A    
C69   C156  S    
C31   Cl2   S    
C66   O2    A    
C91   C92   A    
C9    C14   A    
C50   H38   S    
Cr5   O41   S    
C68   C94   A    
Cr6   O23   S    
C41   O42   A    
C100  O16   A    
C83   C84   A    
C42   C61   S    
C8    C12   A    
C23   C28   A    
C37   C59   A    
C109  C114  A    
C38   C60   A    
C114  C123  A    
C26   C30   A    
C116  C125  A    
C119  O25   A    
Cr10  O47   S    
C1    O18   A    
C15   F7    S    
C13   H48   S    
C112  C116  A    
C65   O45   A    
C46   C87   A    
C167  O12   A    
C111  O21   A    
C105  C109  A    
C96   C123  A    
C18   C22   A    
C120  O26   A    
C142  C147  A    
C168  O33   A    
C12   F5    S    
C51   H39   S    
C39   O44   A    
C11   C33   A    
C97   C168  S    
C8    C70   S    
C112  C147  S    
C154  C159  A    
C65   O52   A    
C176  H8    S    
C128  C146  A    
C35   C79   A    
C16   F8    S    
Cr2   O32   S    
C101  H54   S    
C40   O41   A    
Cr2   O2    S    
C26   H40   S    
C127  Cl6   S    
C126  Cl5   S    
Cr5   O10   S    
C96   C101  A    
Cr12  O5    S    
C172  C176  A    
C10   C72   S    
C117  O27   A    
C118  O28   A    
C168  O23   A    
C91   H50   S    
C136  C149  A    
C130  Cl9   S    
C7    H11   S    
C172  C173  S    
C15   C19   A    
C39   C64   S    
C50   C54   A    
C40   C63   S    
C160  C164  A    
C134  Cl13  S    
C3    C7    A    
C46   C92   A    
C20   C25   A    
C126  C130  A    
C98   C103  A    
Cr2   O10   S    
C35   C166  A    
Cr3   O7    S    
Cr11  O21   S    
C125  H63   S    
C12   C17   A    
Cr9   O10   S    
C71   O6    A    
C102  H55   S    
C97   C102  A    
C95   C121  A    
C99   C104  A    
C4    C174  A    
C55   C60   A    
C5    C175  A    
C41   C62   S    
C95   C165  S    
C132  Cl11  S    
C40   O46   A    
C74   Cl12  S    
C2    C122  A    
Cr7   O43   S    
C34   C43   A    
C11   C73   S    
C19   H29   S    
C53   H32   S    
Cr8   O22   S    
C77   Cl18  S    
C11   C16   A    
Cr12  O52   S    
C96   C167  S    
Cr5   O12   S    
Cr6   O11   S    
C6    C154  A    
C141  C146  A    
C157  H64   S    
C129  Cl8   S    
C88   C90   A    
C138  C142  A    
C157  C161  A    
Cr8   O9    S    
C104  C108  A    
Cr5   O37   S    
C115  C124  A    
C9    C71   S    
C21   C56   S    
C100  C149  S    
C175  H5    S    
C8    C30   A    
Cr7   O13   S    
C174  H6    S    
Cr8   O18   S    
C24   C144  A    
C28   H42   S    
C142  Cl17  S    
C1    C151  S    
C137  C150  A    
C45   H20   S    
C24   C68   A    
C129  C134  A    
Cr9   O19   S    
C18   H28   S    
C74   C78   A    
C138  H34   S    
C110  C115  A    
C108  C143  S    
Cr11  O26   S    
Cr8   O44   S    
C93   C94   A    
C14   C18   A    
C113  F1    S    
Cr5   O15   S    
Cr6   O16   S    
C99   H53   S    
C2    C46   A    
C136  H12   S    
C162  Cl21  S    
Cr3   O33   S    
Cr10  O20   S    
C159  C163  A    
C80   C87   A    
C36   C58   A    
C10   C15   A    
C159  H3    S    
C69   O51   A    
C27   H41   S    
C74   C133  A    
C66   O49   A    
C13   C155  A    
C67   O3    A    
Cr12  O9    S    
C3    C173  A    
Cr7   O34   S    
C118  O24   A    
C119  O29   A    
C32   Cl3   S    
C48   H36   S    
C75   C80   A    
C42   O48   A    
C158  H2    S    
C57   C93   A    
C107  H61   S    
C49   H37   S    
C128  C132  A    
C101  C105  A    
C130  C148  A    
C70   O5    A    
C104  H58   S    
C47   H21   S    
C89   O19   A    
C78   C79   A    
Cr6   O42   S    
C44   C62   A    
C171  C175  A    
C45   C63   A    
C4    H10   S    
C43   H18   S    
C10   C32   A    
C113  C121  A    
Cr10  O25   S    
C38   C47   A    
C161  C170  A    
C169  O34   A    
C6    H13   S    
C105  H59   S    
C54   H33   S    
C5    H9    S    
C106  H60   S    
C103  H57   S    
C34   H14   S    
C44   H19   S    
C123  H56   S    
C37   H16   S    
Cr9   O49   S    
C106  C110  A    
C140  Cl15  S    
C119  C155  S    
Cr12  O31   S    
C76   C81   A    
C57   C88   A    
C65   C152  S    
C77   C144  A    
C110  C146  S    
C38   H17   S    
C92   H49   S    
C48   C61   A    
C93   H52   S    
C6    C176  A    
C5    C153  A    
C94   H51   S    
C29   H43   S    
C102  C106  A    
Cr10  O11   S    
Cr4   O13   S    
C52   H31   S    
C131  C149  A    
C158  C162  A    
C131  Cl10  S    
C78   C84   A    
C86   H26   S    
C135  C148  A    
C52   C56   A    
C35   C91   A    
