data_mof_unit_39694.cif
_audit_creation_date              2012-12-10T17:07:51-0500
_audit_creation_method            fapswitch 2.2
_symmetry_space_group_name_H-M    P1
_symmetry_Int_Tables_number       1
_space_group_crystal_system       triclinic
_cell_length_a                    10.728934
_cell_length_b                    10.745363
_cell_length_c                    10.042543
_cell_angle_alpha                 89.862648
_cell_angle_beta                  89.176102
_cell_angle_gamma                 90.742275
_cell_volume                      1157.54682085

loop_
_atom_site_label
_atom_site_type_symbol
_atom_type_description
_atom_site_fract_x
_atom_site_fract_y
_atom_site_fract_z
_atom_type_partial_charge
C1    C     C_R   0.497960 0.262905 0.500013 1.008327
C2    C     C_2   0.554390 0.584731 0.071331 -0.119826
C3    C     C_R   0.257874 0.497403 0.501205 0.868012
C4    C     C_R   0.508796 0.737081 0.499876 0.965664
C5    C     C_R   0.741818 0.501116 0.498723 0.869172
C6    C     C_3   0.067052 0.376518 0.584151 -0.107189
C7    C     C_3   0.919882 0.378213 0.572016 -0.232110
C8    C     C_3   0.072503 0.621943 0.562012 -0.180279
C9    C     C_3   0.075524 0.489311 0.357057 -0.410541
C10   C     C_3   0.121024 0.494881 0.504739 -0.118719
C11   C     C_2   0.105678 0.378655 0.731500 0.446586
C12   C     C_3   0.878144 0.499908 0.497039 -0.004827
C13   C     C_2   0.896029 0.607398 0.263686 0.501749
C14   C     C_2   0.865727 0.737593 0.549378 0.533889
C15   C     C_2   0.621105 0.885702 0.273462 0.477390
C16   C     C_2   0.121250 0.257451 0.522439 0.320061
C17   C     C_2   0.387645 0.442412 0.108452 0.566249
C18   C     C_2   0.862981 0.255901 0.522922 0.347698
C19   C     C_2   0.131760 0.667148 0.689666 0.467466
C20   C     C_3   0.929011 0.614574 0.578394 -0.304342
C21   C     C_3   0.933958 0.499297 0.351175 -0.192996
C22   C     C_2   0.564913 0.937486 0.396318 0.021582
C23   C     C_2   0.528894 0.868825 0.502687 -0.327924
C24   C     C_2   0.557764 0.072121 0.402063 -0.203015
C25   C     C_2   0.496694 0.131203 0.499355 -0.279351
C26   C     C_2   0.537123 0.594333 0.923600 -0.037862
H1    H     H_    0.097385 0.693553 0.485310 0.245356
H2    H     H_    0.560671 0.681812 0.874808 0.151252
H3    H     H_    0.617218 0.651360 0.115619 0.175743
H4    H     H_    0.096320 0.229935 0.422435 0.119250
H5    H     H_    0.366845 0.348491 0.142512 0.034789
H6    H     H_    0.875012 0.172310 0.582033 0.132908
H7    H     H_    0.876534 0.384174 0.672595 0.189272
H8    H     H_    0.112169 0.621225 0.783820 0.126326
H9    H     H_    0.905964 0.596198 0.685246 0.139970
H10   H     H_    0.120873 0.565219 0.297241 0.247070
H11   H     H_    0.105749 0.402921 0.306274 0.170975
H12   H     H_    0.445955 0.086246 0.580232 0.177740
H13   H     H_    0.899901 0.415210 0.298408 0.187884
H14   H     H_    0.500278 0.414822 0.896158 0.163845
H15   H     H_    0.201468 0.360575 0.757676 0.151836
H16   H     H_    0.821700 0.593941 0.192986 0.086705
H17   H     H_    0.765192 0.742892 0.555708 0.040505
H18   H     H_    0.601675 0.927453 0.177586 0.041200
H19   H     H_    0.512548 0.909601 0.599581 0.153474
H20   H     H_    0.604707 0.124842 0.322939 0.199366
N1    N     N_2   0.501360 0.501330 0.852150 -0.175671
N2    N     N_2   0.501390 0.501360 0.147810 -0.175559
O1    O     O_R   0.499980 0.319060 0.613040 -0.621570
O2    O     O_2   0.947940 0.709007 0.269545 -0.499721
O3    O     O_2   0.925161 0.832726 0.524266 -0.493872
O4    O     O_2   0.697024 0.802658 0.279643 -0.573818
O5    O     O_2   0.191188 0.189722 0.583551 -0.576004
O6    O     O_2   0.308592 0.499000 0.047055 -0.580004
O7    O     O_2   0.803662 0.248594 0.420502 -0.592821
O8    O     O_2   0.201013 0.758250 0.688259 -0.524916
O9    O     O_R   0.500020 0.319100 0.386900 -0.633050
O10   O     O_R   0.314770 0.499960 0.613070 -0.623341
O11   O     O_R   0.314820 0.500000 0.386930 -0.630139
O12   O     O_R   0.499980 0.680900 0.613100 -0.614039
O13   O     O_R   0.500020 0.680940 0.386960 -0.588223
O14   O     O_R   0.685180 0.500000 0.613070 -0.651614
O15   O     O_R   0.685230 0.500040 0.386930 -0.613818
O16   O     O_2   0.032084 0.397002 0.823104 -0.605905
Zn1   Zn    Zn3+2 0.499970 0.499970 0.650990 0.977922
Zn2   Zn    Zn3+2 0.500030 0.500030 0.349010 0.985835

loop_
_geom_bond_atom_site_label_1
_geom_bond_atom_site_label_2
_ccdc_geom_bond_type
C19   O8    D    
C6    C10   S    
C9    H10   S    
C5    O14   A    
C6    C7    S    
C23   H19   S    
C1    O9    A    
C25   H12   S    
H14   N1    S    
C6    C16   S    
C9    C10   S    
O10   Zn1   S    
C26   H2    S    
C14   O3    D    
C21   H13   S    
C17   N2    S    
O9    Zn2   S    
C7    C18   S    
C24   H20   S    
C12   C20   S    
C9    H11   S    
C12   C21   S    
O15   Zn2   S    
C13   C21   S    
C2    C26   S    
C3    C10   S    
C15   O4    D    
C1    C25   S    
C7    H7    S    
C4    O12   A    
C8    C20   S    
O1    Zn1   S    
C26   N1    D    
C2    H3    S    
C18   O7    D    
C13   H16   S    
C2    N2    D    
C15   H18   S    
C11   H15   S    
O11   Zn2   S    
C7    C12   S    
C17   H5    S    
C22   C24   S    
C8    C19   S    
C18   H6    S    
O13   Zn2   S    
C16   H4    S    
C13   O2    D    
C9    C21   S    
C3    O10   A    
C14   C20   S    
C24   C25   D    
C5    O15   A    
C5    C12   S    
C8    C10   S    
C11   O16   D    
C6    C11   S    
C4    C23   S    
C8    H1    S    
C22   C23   D    
O14   Zn1   S    
N2    Zn2   S    
C16   O5    D    
C20   H9    S    
C1    O1    A    
C4    O13   A    
N1    Zn1   S    
C15   C22   S    
C17   O6    D    
C14   H17   S    
O12   Zn1   S    
C19   H8    S    
C3    O11   A    
