data_mof_unit_23332.cif
_audit_creation_date              2012-12-10T17:32:15-0500
_audit_creation_method            fapswitch 2.2
_symmetry_space_group_name_H-M    P1
_symmetry_Int_Tables_number       1
_space_group_crystal_system       triclinic
_cell_length_a                    12.323468
_cell_length_b                    13.199018
_cell_length_c                    15.055864
_cell_angle_alpha                 77.439001
_cell_angle_beta                  101.372164
_cell_angle_gamma                 116.613514
_cell_volume                      2123.06725144

loop_
_atom_site_label
_atom_site_type_symbol
_atom_type_description
_atom_site_fract_x
_atom_site_fract_y
_atom_site_fract_z
_atom_type_partial_charge
C1    C     C_R   0.854882 0.286635 0.507710 0.769444
C2    C     C_R   0.100645 0.498611 0.109528 0.109624
C3    C     C_R   0.792643 0.487630 0.015436 -0.220823
C4    C     C_R   0.793182 0.489377 0.922578 -0.214780
C5    C     C_R   0.895331 0.493800 0.891351 0.109619
C6    C     C_R   0.997928 0.496303 0.953881 0.061943
C7    C     C_R   0.100907 0.500096 0.923235 0.107513
C8    C     C_R   0.202612 0.503032 0.985727 -0.216342
C9    C     C_R   0.202565 0.502489 0.078406 -0.216776
C10   C     C_R   0.896700 0.495648 0.798659 -0.253825
C11   C     C_R   0.998847 0.499006 0.768126 -0.069519
C12   C     C_R   0.999530 0.499684 0.671188 0.803076
C13   C     C_R   0.100452 0.501009 0.830517 -0.248207
C14   C     C_R   0.274588 0.022645 0.380169 -0.203809
C15   C     C_R   0.228090 0.834615 0.467934 -0.053963
C16   C     C_R   0.816067 0.084874 0.565176 -0.186776
C17   C     C_R   0.737708 0.969714 0.582012 -0.143988
C18   C     C_R   0.614214 0.932118 0.550269 -0.182434
C19   C     C_R   0.566852 0.009356 0.497394 0.077909
C20   C     C_R   0.649923 0.124223 0.471065 0.083989
C21   C     C_R   0.439975 0.976179 0.469035 0.074527
C22   C     C_R   0.399594 0.054151 0.408110 0.172566
C23   C     C_R   0.145117 0.713425 0.486558 0.808543
C24   C     C_R   0.484462 0.161724 0.374145 -0.241693
C25   C     C_R   0.607849 0.195659 0.403895 -0.200312
C26   C     C_R   0.351575 0.868040 0.500251 -0.255858
C27   C     C_R   0.189131 0.913094 0.409705 -0.189869
C28   C     C_R   0.773128 0.163705 0.511911 -0.100204
C29   C     C_R   0.346282 0.327404 0.645877 -0.306644
C30   C     C_R   0.760229 0.647903 0.376672 0.650400
C31   C     C_R   0.663637 0.681539 0.353832 -0.354497
C32   C     C_R   0.560201 0.624347 0.399382 -0.265646
C33   C     C_R   0.551246 0.533987 0.471163 0.000123
C34   C     C_R   0.999344 0.498484 0.329008 0.804285
C35   C     C_R   0.652618 0.504144 0.495165 0.205045
C36   C     C_R   0.446725 0.474209 0.521328 -0.016062
C37   C     C_R   0.446286 0.386720 0.595043 0.175458
C38   C     C_R   0.545903 0.359365 0.618069 -0.286211
C39   C     C_R   0.646655 0.416869 0.569534 -0.166109
C40   C     C_R   0.341875 0.497360 0.502004 0.012541
C41   C     C_R   0.246714 0.354758 0.623746 0.067305
C42   C     C_R   0.100210 0.498849 0.201936 -0.245776
C43   C     C_R   0.998074 0.495352 0.232526 -0.082000
C44   C     C_R   0.894976 0.489792 0.170649 -0.252323
C45   C     C_R   0.894408 0.490694 0.077906 0.111254
C46   C     C_R   0.997634 0.495155 0.047138 0.062370
Cu1   Cu    Cu3+1 0.098270 0.475420 0.521130 0.934093
Cu2   Cu    Cu3+1 0.901730 0.524580 0.478870 0.961416
H1    H     H_    0.179928 0.503042 0.249764 0.152271
H2    H     H_    0.455383 0.220143 0.324338 0.141515
H3    H     H_    0.243269 0.081828 0.333684 0.136209
H4    H     H_    0.376164 0.807095 0.549480 0.148766
H5    H     H_    0.910176 0.112577 0.595770 0.152728
H6    H     H_    0.559103 0.841610 0.566626 0.129919
H7    H     H_    0.772201 0.909524 0.622443 0.143403
H8    H     H_    0.669512 0.277554 0.371400 0.170617
H9    H     H_    0.169214 0.309198 0.662685 0.122503
H10   H     H_    0.546457 0.292933 0.674824 0.150493
H11   H     H_    0.345237 0.260398 0.702470 0.137655
H12   H     H_    0.815129 0.484792 0.194596 0.147354
H13   H     H_    0.333533 0.561445 0.446641 0.122505
H14   H     H_    0.489980 0.654901 0.378213 0.155967
H15   H     H_    0.668697 0.754245 0.302359 0.148319
H16   H     H_    0.718547 0.390569 0.593865 0.205004
H17   H     H_    0.712943 0.484323 0.038362 0.137269
H18   H     H_    0.713831 0.487247 0.875217 0.144249
H19   H     H_    0.817853 0.493442 0.750556 0.156107
H20   H     H_    0.179708 0.504127 0.806939 0.155569
H21   H     H_    0.282199 0.506006 0.962885 0.140191
H22   H     H_    0.282143 0.505158 0.125701 0.140498
H23   H     H_    0.093595 0.888576 0.384413 0.192857
N1    N     N_R   0.246280 0.438190 0.553160 -0.181102
N2    N     N_R   0.754320 0.561190 0.447410 -0.241278
O1    O     O_R   0.972510 0.318130 0.526570 -0.579943
O2    O     O_R   0.806530 0.359650 0.490890 -0.611000
O3    O     O_R   0.082980 0.479210 0.647590 -0.588427
O4    O     O_R   0.917000 0.520730 0.611900 -0.604746
O5    O     O_R   0.193470 0.640350 0.509110 -0.595907
O6    O     O_R   0.027490 0.681870 0.473430 -0.528227
O7    O     O_R   0.083000 0.479270 0.388100 -0.589379
O8    O     O_R   0.917020 0.520790 0.352410 -0.560613
O9    O     O_3   0.868161 0.709970 0.336570 -0.560803
C47   C     C_3   0.846260 0.727618 0.239860 0.034447
H24   H     H_    0.808245 0.792106 0.215486 0.133220
H25   H     H_    0.783085 0.645991 0.213287 0.130329
C48   C     C_3   0.966885 0.775170 0.199902 -0.763088
H26   H     H_    0.015574 0.720003 0.228284 0.254170
H27   H     H_    0.949653 0.779312 0.124252 0.203105
H28   H     H_    0.026076 0.862780 0.216789 0.228678

loop_
_geom_bond_atom_site_label_1
_geom_bond_atom_site_label_2
_ccdc_geom_bond_type
C16   C28   A    
C21   C26   A    
C19   C20   A    
C25   H8    S    
C7    C8    A    
C10   H19   S    
C2    C46   A    
C39   H16   S    
C8    H21   S    
C1    O1    A    
Cu2   O6    S    
C36   C37   A    
C19   C21   A    
C44   H12   S    
Cu1   O3    S    
C5    C6    A    
C48   H27   S    
C20   C25   A    
C33   C36   A    
Cu2   O8    S    
C18   C19   A    
C16   H5    S    
C34   O7    A    
C38   H10   S    
C47   H24   S    
C8    C9    A    
C1    C28   S    
C34   O8    A    
C14   C27   A    
C40   N1    A    
C17   H7    S    
C15   C23   S    
C21   C22   A    
Cu2   O2    S    
C3    H17   S    
Cu1   O7    S    
C24   H2    S    
C38   C39   A    
C1    O2    A    
Cu1   Cu2   S    
C31   H15   S    
C36   C40   A    
C24   C25   A    
C30   N2    A    
C48   H26   S    
C16   C17   A    
C15   C26   A    
C20   C28   A    
C45   C46   A    
C3    C45   A    
C40   H13   S    
Cu2   O4    S    
C30   O9    S    
C35   C39   A    
C43   C44   A    
C37   C38   A    
C26   H4    S    
C15   C27   A    
C14   H3    S    
C12   O4    A    
C17   C18   A    
C9    H22   S    
C41   N1    A    
C47   H25   S    
C12   O3    A    
C22   C24   A    
C42   C43   A    
C3    C4    A    
C27   H23   S    
C44   C45   A    
C35   N2    A    
C6    C46   A    
C29   C41   A    
Cu2   N2    S    
C31   C32   A    
C34   C43   S    
Cu1   O1    S    
C4    C5    A    
C48   H28   S    
C11   C12   S    
C6    C7    A    
C32   C33   A    
C14   C22   A    
C41   H9    S    
C5    C10   A    
C4    H18   S    
C11   C13   A    
C30   C31   A    
C2    C42   A    
C33   C35   A    
C23   O5    A    
Cu1   N1    S    
C10   C11   A    
C18   H6    S    
C42   H1    S    
C32   H14   S    
C7    C13   A    
C47   C48   S    
O9    C47   S    
C29   C37   A    
C29   H11   S    
Cu1   O5    S    
C23   O6    A    
C2    C9    A    
C13   H20   S    
