data_mof_unit_37035.cif
_audit_creation_date              2012-10-26T21:00:36-0400
_audit_creation_method            fapswitch 2.2
_symmetry_space_group_name_H-M    P1
_symmetry_Int_Tables_number       1
_space_group_crystal_system       triclinic
_cell_length_a                    10.86974
_cell_length_b                    9.596511
_cell_length_c                    10.865519
_cell_angle_alpha                 90.052106
_cell_angle_beta                  92.079949
_cell_angle_gamma                 90.851929
_cell_volume                      1132.52632015

loop_
_atom_site_label
_atom_site_type_symbol
_atom_type_description
_atom_site_fract_x
_atom_site_fract_y
_atom_site_fract_z
_atom_type_partial_charge
C1    C     C_R   0.261955 0.498099 0.501625 0.555901
C2    C     C_R   0.492726 0.500753 0.737328 0.549161
C3    C     C_R   0.559946 0.759732 0.115732 -0.129246
C4    C     C_R   0.441750 0.757732 0.884905 -0.129247
C5    C     C_R   0.537476 0.885631 0.055344 0.061582
C6    C     C_R   0.465228 0.884454 0.944962 0.064849
C7    C     C_R   0.482127 0.631406 0.937693 0.009890
C8    C     C_R   0.519364 0.632052 0.062783 0.011215
C9    C     C_R   0.515647 0.504652 0.128557 -0.002313
C10   C     C_R   0.486013 0.504196 0.871658 -0.011779
C11   C     C_R   0.504129 0.379331 0.063679 -0.068763
C12   C     C_R   0.736938 0.500543 0.492550 0.576417
C13   C     C_R   0.499088 0.379338 0.936261 -0.080196
C14   C     C_R   0.058351 0.368894 0.471106 -0.011300
C15   C     C_R   0.931066 0.377302 0.447508 -0.010052
C16   C     C_R   0.870182 0.500110 0.481544 0.022967
C17   C     C_R   0.126970 0.492902 0.500478 0.019559
C18   C     C_2   0.597833 0.013001 0.105732 0.291075
C19   C     C_2   0.406113 0.010099 0.893967 0.284739
C20   C     C_2   0.114643 0.229237 0.466694 0.212373
C21   C     C_2   0.864188 0.258393 0.385139 0.243400
C22   C     C_2   0.352185 0.137156 0.316203 0.232073
C23   C     C_R   0.938018 0.619634 0.516093 -0.148757
C24   C     C_2   0.652577 0.142127 0.680827 0.228428
C25   C     C_R   0.065144 0.617252 0.521298 -0.143594
C26   C     C_R   0.430684 0.070969 0.413338 0.128062
C27   C     C_R   0.570673 0.073466 0.585787 0.099340
C28   C     C_R   0.431772 0.922833 0.414707 0.032711
C29   C     C_R   0.568900 0.925218 0.584783 0.021323
C30   C     C_R   0.507771 0.500943 0.262754 0.559600
Cu1   Cu    Cu3+1 0.500000 0.640660 0.500000 0.934631
Cu2   Cu    Cu3+1 0.500000 0.359340 0.500000 0.993376
H1    H     H_    0.500352 0.281243 0.111906 0.214229
H2    H     H_    0.391132 0.021179 0.795169 0.111949
H3    H     H_    0.104432 0.166374 0.383817 0.110837
H4    H     H_    0.884542 0.151632 0.410448 0.098601
H5    H     H_    0.323848 0.243419 0.322483 0.166759
H6    H     H_    0.678829 0.249986 0.676204 0.177822
H7    H     H_    0.504000 0.281513 0.887825 0.209125
H8    H     H_    0.616026 0.762230 0.200040 0.136234
H9    H     H_    0.385367 0.758452 0.800806 0.137862
H10   H     H_    0.892811 0.715172 0.540370 0.149343
H11   H     H_    0.115047 0.712576 0.545371 0.155621
H12   H     H_    0.376908 0.863255 0.347607 0.171232
H13   H     H_    0.624158 0.867403 0.651397 0.171768
H14   H     H_    0.613617 0.024903 0.204431 0.108806
N1    N     N_R   0.500000 0.852070 0.500000 -0.282237
N2    N     N_R   0.500000 0.147940 0.500000 -0.271293
O1    O     O_R   0.319640 0.618740 0.499990 -0.512812
O2    O     O_2   0.365197 0.097383 0.962450 -0.463679
O3    O     O_2   0.165459 0.180014 0.558481 -0.473843
O4    O     O_2   0.788604 0.279303 0.301500 -0.466910
O5    O     O_2   0.314347 0.070713 0.226313 -0.514160
O6    O     O_2   0.695020 0.075953 0.768037 -0.500184
O7    O     O_R   0.680360 0.618740 0.500010 -0.514401
O8    O     O_R   0.319620 0.381170 0.499990 -0.483984
O9    O     O_R   0.680380 0.381170 0.500010 -0.504700
O10   O     O_R   0.500000 0.618810 0.319650 -0.519749
O11   O     O_R   0.500000 0.618810 0.680350 -0.515053
O12   O     O_R   0.499970 0.381240 0.319640 -0.516835
O13   O     O_R   0.500030 0.381240 0.680360 -0.526751
O14   O     O_2   0.638763 0.101062 0.036781 -0.451019

loop_
_geom_bond_atom_site_label_1
_geom_bond_atom_site_label_2
_ccdc_geom_bond_type
C27   N2    A    
Cu2   O13   S    
C7    C10   A    
C24   H6    S    
C2    O13   A    
C28   N1    A    
C11   H1    S    
C14   C20   S    
C16   C23   A    
C11   C13   A    
C26   C28   A    
Cu1   Cu2   S    
C19   O2    D    
C24   C27   S    
C26   N2    A    
C17   C25   A    
C25   H11   S    
C23   C25   A    
C7    C8    A    
C21   H4    S    
Cu1   N1    S    
Cu2   O8    S    
C6    C19   S    
Cu2   N2    S    
C14   C17   A    
C23   H10   S    
C1    O1    A    
Cu2   O9    S    
Cu1   O1    S    
C4    C7    A    
C9    C30   S    
C12   O9    A    
C18   H14   S    
Cu1   O10   S    
C1    O8    A    
C29   N1    A    
C3    H8    S    
C22   O5    D    
C9    C11   A    
C5    C6    A    
C13   H7    S    
C12   O7    A    
C27   C29   A    
C4    H9    S    
Cu2   O12   S    
C24   O6    D    
C15   C16   A    
C2    C10   S    
C30   O10   A    
C15   C21   S    
C4    C6    A    
C3    C8    A    
C22   C26   S    
Cu1   O11   S    
C10   C13   A    
C20   O3    D    
C18   O14   D    
C20   H3    S    
C5    C18   S    
C12   C16   S    
Cu1   O7    S    
C2    O11   A    
C22   H5    S    
C1    C17   S    
C28   H12   S    
C21   O4    D    
C14   C15   A    
C29   H13   S    
C8    C9    A    
C3    C5    A    
C19   H2    S    
C30   O12   A    
