data_mof_unit_53105.cif
_audit_creation_date              2012-12-10T17:27:56-0500
_audit_creation_method            fapswitch 2.2
_symmetry_space_group_name_H-M    P1
_symmetry_Int_Tables_number       1
_space_group_crystal_system       triclinic
_cell_length_a                    10.688372
_cell_length_b                    12.023557
_cell_length_c                    12.942256
_cell_angle_alpha                 93.577211
_cell_angle_beta                  91.679544
_cell_angle_gamma                 85.480056
_cell_volume                      1654.33777816

loop_
_atom_site_label
_atom_site_type_symbol
_atom_type_description
_atom_site_fract_x
_atom_site_fract_y
_atom_site_fract_z
_atom_type_partial_charge
C1    C     C_R   0.489580 0.521913 0.700225 0.894920
C2    C     C_R   0.468355 0.641153 0.863719 0.426641
C3    C     C_R   0.460208 0.438478 0.867289 -0.024137
C4    C     C_R   0.739844 0.500382 0.507814 0.898890
C5    C     C_R   0.470712 0.447031 0.974968 0.117589
C6    C     C_R   0.485524 0.552833 0.026467 0.023731
C7    C     C_R   0.501708 0.559382 0.132946 -0.234129
C8    C     C_R   0.482719 0.360224 0.138718 -0.202252
C9    C     C_R   0.469358 0.351330 0.032261 -0.191309
C10   C     C_R   0.393726 0.954822 0.393299 -0.402326
C11   C     C_R   0.402674 0.838347 0.404072 0.258108
C12   C     C_R   0.943709 0.427306 0.587574 0.108149
C13   C     C_R   0.546647 0.859967 0.546729 0.135911
C14   C     C_R   0.539163 0.977073 0.538074 0.089661
C15   C     C_R   0.461597 0.024791 0.460713 0.044816
C16   C     C_R   0.502205 0.477865 0.299782 0.894891
C17   C     C_R   0.455023 0.141806 0.452708 -0.021326
C18   C     C_R   0.598249 0.162771 0.594671 0.018080
C19   C     C_R   0.608374 0.047681 0.605158 -0.309095
C20   C     C_R   0.260705 0.502633 0.510683 0.896498
C21   C     C_R   0.888194 0.354405 0.651400 -0.158119
C22   C     C_R   0.961971 0.279425 0.709606 -0.154510
C23   C     C_R   0.872326 0.503148 0.525508 -0.184354
C24   C     C_R   0.091910 0.278779 0.709026 -0.144027
C25   C     C_R   0.148458 0.354090 0.651270 -0.149182
C26   C     C_R   0.075460 0.428578 0.588729 0.034563
C27   C     C_3   0.329169 0.774004 0.800189 0.141398
C28   C     C_3   0.316587 0.895735 0.773104 -0.851462
C29   C     C_3   0.057178 0.787303 0.546363 0.106245
C30   C     C_3   0.122056 0.892953 0.531746 -0.829678
C31   C     C_R   0.926624 0.591496 0.484888 -0.334184
C32   C     C_R   0.052597 0.602233 0.498328 0.470270
C33   C     C_R   0.128754 0.510227 0.532806 -0.251490
C34   C     C_R   0.498040 0.464411 0.188763 -0.046226
C35   C     C_R   0.471392 0.534577 0.811566 -0.242048
C36   C     C_R   0.480875 0.650170 0.970853 -0.008299
H1    H     H_    0.871121 0.654838 0.443760 0.188147
H2    H     H_    0.248703 0.356461 0.661109 0.177870
H3    H     H_    0.515562 0.638964 0.173469 0.157263
H4    H     H_    0.479231 0.286083 0.181713 0.156359
H5    H     H_    0.277204 0.768551 0.873074 0.125068
H6    H     H_    0.284365 0.722744 0.737012 0.141945
H7    H     H_    0.362785 0.905224 0.698986 0.252716
H8    H     H_    0.215776 0.924902 0.765194 0.202963
H9    H     H_    0.361060 0.948368 0.835188 0.257340
H10   H     H_    0.354093 0.305366 0.840549 0.170321
H11   H     H_    0.512340 0.274674 0.828163 0.184442
H12   H     H_    0.457986 0.269051 0.996238 0.130554
H13   H     H_    0.362282 0.778559 0.259379 0.139389
H14   H     H_    0.238636 0.795844 0.337653 0.210326
H15   H     H_    0.640589 0.729191 0.619725 0.263709
H16   H     H_    0.592861 0.839290 0.697037 0.227394
H17   H     H_    0.077141 0.763302 0.627449 0.123335
H18   H     H_    0.954451 0.807930 0.535592 0.148547
H19   H     H_    0.083967 0.961331 0.586393 0.209924
H20   H     H_    0.223965 0.877802 0.548194 0.260711
H21   H     H_    0.105924 0.919325 0.451448 0.250134
H22   H     H_    0.414290 0.775028 0.072380 0.166080
H23   H     H_    0.395574 0.180482 0.393711 0.125411
H24   H     H_    0.573761 0.762815 0.061268 0.185003
H25   H     H_    0.650015 0.216387 0.647305 0.121199
H26   H     H_    0.333875 0.989934 0.332572 0.153085
H27   H     H_    0.669987 0.015276 0.665898 0.158327
H28   H     H_    0.788247 0.357695 0.661337 0.148142
H29   H     H_    0.918020 0.223814 0.757605 0.128241
H30   H     H_    0.148999 0.222485 0.756460 0.130133
N1    N     N_R   0.523130 0.207800 0.519340 -0.101930
N2    N     N_R   0.476870 0.792180 0.480660 -0.110791
N3    N     N_3   0.437011 0.333089 0.814023 -0.430603
N4    N     N_3   0.333523 0.767958 0.334347 -0.364789
N5    N     N_3   0.630649 0.815029 0.624909 -0.479651
N6    N     N_3   0.487926 0.759655 0.020773 -0.425409
O1    O     O_R   0.506170 0.421690 0.658830 -0.617895
O2    O     O_3   0.101033 0.700736 0.473716 -0.591888
O3    O     O_R   0.491330 0.609320 0.646410 -0.617274
O4    O     O_R   0.690660 0.406170 0.506210 -0.623334
O5    O     O_R   0.675810 0.593790 0.493790 -0.646204
O6    O     O_R   0.508670 0.390680 0.353590 -0.626247
O7    O     O_R   0.493830 0.578310 0.341170 -0.606133
O8    O     O_R   0.324190 0.406210 0.506210 -0.637253
O9    O     O_R   0.309340 0.593830 0.493790 -0.546829
O10   O     O_3   0.457879 0.737967 0.810799 -0.594263
Zn1   Zn    Zn3+2 0.509910 0.374720 0.508290 0.937343
Zn2   Zn    Zn3+2 0.490090 0.625280 0.491710 0.966860

loop_
_geom_bond_atom_site_label_1
_geom_bond_atom_site_label_2
_ccdc_geom_bond_type
C2    C35   A    
N1    Zn1   S    
C11   N4    S    
C12   C23   A    
C3    N3    S    
C10   C15   A    
C32   O2    S    
O7    Zn2   S    
O3    Zn2   S    
C29   H18   S    
H24   N6    S    
C30   H21   S    
C18   C19   A    
H11   N3    S    
H10   N3    S    
C20   O9    A    
C16   C34   S    
O6    Zn1   S    
C19   H27   S    
C8    C9    A    
C21   H28   S    
C24   H30   S    
C21   C22   A    
C10   H26   S    
H15   N5    S    
O8    Zn1   S    
O4    Zn1   S    
C25   C26   A    
C28   H9    S    
C17   N1    A    
C20   O8    A    
N2    Zn2   S    
C24   C25   A    
C4    C23   S    
C29   O2    S    
C13   N5    S    
O5    Zn2   S    
C18   N1    A    
C30   H20   S    
C12   C21   A    
C28   H8    S    
C31   H1    S    
C12   C26   A    
C23   C31   A    
C22   H29   S    
C5    C9    A    
C29   C30   S    
C25   H2    S    
C27   H5    S    
C26   C33   A    
C31   C32   A    
C3    C35   A    
C8    C34   A    
C1    O3    A    
C17   H23   S    
C20   C33   S    
H13   N4    S    
C7    C34   A    
C22   C24   A    
C2    O10   S    
O9    Zn2   S    
C11   N2    A    
C1    C35   S    
C2    C36   A    
C15   C17   A    
C14   C19   A    
C27   O10   S    
C3    C5    A    
C18   H25   S    
C6    C7    A    
C30   H19   S    
C28   H7    S    
C16   O7    A    
C1    O1    A    
C32   C33   A    
H14   N4    S    
C4    O5    A    
H16   N5    S    
C27   H6    S    
H22   N6    S    
C5    C6    A    
C29   H17   S    
C6    C36   A    
C16   O6    A    
C4    O4    A    
C10   C11   A    
C9    H12   S    
C27   C28   S    
C7    H3    S    
C14   C15   A    
C8    H4    S    
C13   C14   A    
O1    Zn1   S    
C36   N6    S    
C13   N2    A    
