data_mof_unit_5453.cif
_audit_creation_date              2012-10-26T20:43:31-0400
_audit_creation_method            fapswitch 2.2
_symmetry_space_group_name_H-M    P1
_symmetry_Int_Tables_number       1
_space_group_crystal_system       monoclinic
_cell_length_a                    10.834304
_cell_length_b                    9.666958
_cell_length_c                    23.563839
_cell_angle_alpha                 90.0
_cell_angle_beta                  101.166555
_cell_angle_gamma                 90.0
_cell_volume                      2421.23068321

loop_
_atom_site_label
_atom_site_type_symbol
_atom_type_description
_atom_site_fract_x
_atom_site_fract_y
_atom_site_fract_z
_atom_type_partial_charge
C1    C     C_R   0.262798 0.500231 0.501100 0.582530
C2    C     C_R   0.529154 0.382916 0.703290 -0.170979
C3    C     C_R   0.475687 0.374439 0.238147 0.007060
C4    C     C_R   0.524312 0.374439 0.761853 0.007060
C5    C     C_R   0.514659 0.491313 0.210121 0.215230
C6    C     C_R   0.485341 0.491313 0.789879 0.215230
C7    C     C_R   0.064338 0.376117 0.501690 -0.096020
C8    C     C_R   0.935871 0.627082 0.499577 -0.075914
C9    C     C_R   0.935662 0.376117 0.498310 -0.096020
C10   C     C_R   0.064129 0.627082 0.500423 -0.075914
C11   C     C_R   0.871083 0.501240 0.498575 0.008966
C12   C     C_R   0.737202 0.500231 0.498900 0.582530
C13   C     C_R   0.128917 0.501240 0.501425 0.008966
C14   C     C_R   0.412194 0.075392 0.459617 0.280920
C15   C     C_R   0.586516 0.924199 0.541068 0.267239
C16   C     C_R   0.587806 0.075392 0.540383 0.280921
C17   C     C_R   0.413484 0.924199 0.458932 0.267239
C18   C     C_R   0.505581 0.500299 0.391592 0.574852
C19   C     C_R   0.494419 0.500299 0.608408 0.574853
C20   C     C_R   0.602929 0.497385 0.888165 0.483322
C21   C     C_R   0.397071 0.497387 0.111835 0.483321
C22   C     C_R   0.379285 0.477199 0.871178 0.474635
C23   C     C_R   0.556709 0.612154 0.242209 0.230123
C24   C     C_R   0.620715 0.477198 0.128822 0.474635
C25   C     C_R   0.378849 0.490068 0.930993 0.022689
C26   C     C_R   0.621151 0.490066 0.069007 0.022689
C27   C     C_R   0.496906 0.492800 0.969747 -0.023540
C28   C     C_R   0.503094 0.492800 0.030253 -0.023540
C29   C     C_R   0.609182 0.494940 0.948057 0.029133
C30   C     C_R   0.390818 0.494942 0.051943 0.029133
C31   C     C_R   0.266426 0.497566 0.953724 0.007432
C32   C     C_R   0.733574 0.497563 0.046276 0.007432
C33   C     C_R   0.274499 0.498068 0.013753 -0.053823
C34   C     C_R   0.443292 0.612154 0.757791 0.230125
C35   C     C_R   0.725501 0.498065 0.986247 -0.053823
C36   C     C_2   0.139625 0.516686 0.917067 0.333645
C37   C     C_2   0.860375 0.516681 0.082933 0.333644
C38   C     C_2   0.638516 0.721610 0.338690 0.304308
C39   C     C_2   0.361485 0.721611 0.661310 0.304308
C40   C     C_2   0.438860 0.240995 0.208238 0.344455
C41   C     C_2   0.561137 0.240994 0.791762 0.344455
C42   C     C_R   0.564918 0.612341 0.302925 -0.012486
C43   C     C_R   0.435083 0.612341 0.697075 -0.012486
C44   C     C_R   0.512977 0.500507 0.329490 -0.056293
C45   C     C_R   0.487023 0.500507 0.670509 -0.056293
C46   C     C_R   0.470845 0.382916 0.296710 -0.170979
Cu1   Cu    Cu3+1 0.500000 0.640660 0.500000 1.126769
Cu2   Cu    Cu3+1 0.500000 0.359340 0.500000 1.150501
H1    H     H_    0.188649 0.504293 0.030788 0.234320
H2    H     H_    0.872347 0.574003 0.123132 0.192135
H3    H     H_    0.792166 0.718890 0.229350 0.380646
H4    H     H_    0.207836 0.718896 0.770651 0.380647
H5    H     H_    0.596105 0.787087 0.366859 0.170837
H6    H     H_    0.403895 0.787088 0.633141 0.170837
H7    H     H_    0.393312 0.161926 0.229668 0.163637
H8    H     H_    0.606686 0.161925 0.770331 0.163637
H9    H     H_    0.197467 0.352698 0.372190 0.359264
H10   H     H_    0.768409 0.643162 0.640774 0.361602
H11   H     H_    0.802533 0.352698 0.627810 0.359264
H12   H     H_    0.811351 0.504289 0.969212 0.234321
H13   H     H_    0.231591 0.643162 0.359226 0.361602
H14   H     H_    0.436286 0.294807 0.317298 0.191864
H15   H     H_    0.563712 0.294806 0.682702 0.191864
H16   H     H_    0.112874 0.278149 0.504510 0.199691
H17   H     H_    0.887775 0.725335 0.499532 0.184269
H18   H     H_    0.887126 0.278149 0.495490 0.199691
H19   H     H_    0.112225 0.725335 0.500468 0.184269
H20   H     H_    0.127653 0.574008 0.876868 0.192135
N1    N     N_R   0.489320 0.488309 0.851241 -0.347461
N2    N     N_R   0.510680 0.488309 0.148758 -0.347461
N3    N     N_R   0.500000 0.852070 0.500000 -0.334516
N4    N     N_R   0.500000 0.147930 0.500000 -0.322054
O1    O     O_R   0.319640 0.618740 0.500000 -0.463323
O2    O     O_2   0.290563 0.508113 0.133255 -0.433214
O3    O     O_2   0.272293 0.450074 0.833053 -0.468265
O4    O     O_2   0.727707 0.450071 0.166947 -0.468265
O5    O     O_2   0.045933 0.471799 0.932418 -0.441256
O6    O     O_2   0.954067 0.471793 0.067582 -0.441255
O7    O     O_2   0.503822 0.779368 0.148645 -0.212408
O8    O     O_2   0.583036 0.892508 0.240706 -0.211880
O9    O     O_3   0.740331 0.753285 0.192819 -0.461048
O10   O     O_2   0.496182 0.779368 0.851355 -0.212408
O11   O     O_2   0.416968 0.892509 0.759294 -0.211882
O12   O     O_R   0.680360 0.381260 0.500000 -0.454599
O13   O     O_3   0.259672 0.753288 0.807182 -0.461049
O14   O     O_2   0.749181 0.739188 0.336756 -0.472307
O15   O     O_2   0.250820 0.739190 0.663245 -0.472308
O16   O     O_2   0.461623 0.215309 0.160605 -0.413541
O17   O     O_2   0.538374 0.215308 0.839395 -0.413540
O18   O     O_2   0.279734 0.108000 0.349069 -0.218429
O19   O     O_2   0.165591 0.130190 0.428506 -0.272093
O20   O     O_3   0.279809 0.335097 0.397879 -0.500909
O21   O     O_2   0.823009 0.892356 0.609137 -0.177252
O22   O     O_2   0.640523 0.861026 0.654416 -0.269454
O23   O     O_R   0.680360 0.618740 0.500000 -0.463322
O24   O     O_3   0.721308 0.664103 0.601311 -0.488693
O25   O     O_2   0.720266 0.108000 0.650931 -0.218428
O26   O     O_2   0.834409 0.130190 0.571494 -0.272093
O27   O     O_3   0.720191 0.335097 0.602120 -0.500909
O28   O     O_2   0.176991 0.892356 0.390863 -0.177251
O29   O     O_2   0.359478 0.861026 0.345584 -0.269454
O30   O     O_3   0.278692 0.664103 0.398689 -0.488693
O31   O     O_R   0.319640 0.381260 0.500000 -0.454599
O32   O     O_R   0.499960 0.618810 0.417880 -0.471040
O33   O     O_R   0.500040 0.381190 0.582120 -0.447940
O34   O     O_R   0.500040 0.618810 0.582120 -0.471040
O35   O     O_R   0.499960 0.381190 0.417880 -0.447940
O36   O     O_2   0.709437 0.508110 0.866745 -0.433214
S1    S     S_3+6 0.593262 0.764627 0.205609 0.109963
S2    S     S_3+6 0.406740 0.764628 0.794391 0.109962
S3    S     S_3+6 0.286044 0.164005 0.408940 0.088053
S4    S     S_3+6 0.692515 0.834242 0.600730 0.100995
S5    S     S_3+6 0.713956 0.164005 0.591060 0.088053
S6    S     S_3+6 0.307485 0.834242 0.399269 0.100995

loop_
_geom_bond_atom_site_label_1
_geom_bond_atom_site_label_2
_ccdc_geom_bond_type
C25   C31   A    
C6    N1    S    
C41   O17   D    
C26   C32   A    
H9    O20   S    
C27   C29   A    
H11   O27   S    
C16   N4    A    
C39   O15   D    
C16   S5    S    
C24   N2    A    
C10   H19   S    
O24   S4    S    
C23   C42   A    
C38   O14   D    
O18   S3    D    
H4    O13   S    
C24   C26   A    
C38   C42   S    
C36   O5    D    
Cu2   O35   S    
C4    C41   S    
C33   H1    S    
C15   C16   A    
C12   O12   A    
O19   S3    D    
H10   O24   S    
C9    H18   S    
C18   O35   A    
Cu1   Cu2   S    
C22   C25   A    
O8    S1    D    
C31   C33   A    
C12   O23   A    
C1    O31   A    
C22   N1    A    
C40   H7    S    
C8    H17   S    
O29   S6    D    
C14   C17   A    
C42   C44   A    
C22   O3    S    
Cu2   N4    S    
C44   C46   A    
C17   S6    S    
C20   C29   A    
C2    C45   A    
C14   S3    S    
C23   S1    S    
O7    S1    D    
C32   C35   A    
O28   S6    D    
Cu1   O1    S    
C4    C6    A    
O13   S2    S    
C24   O4    S    
O26   S5    D    
C39   C43   S    
Cu2   O31   S    
C21   O2    S    
Cu2   O12   S    
C35   H12   S    
C2    C4    A    
C41   H8    S    
C5    N2    S    
O30   S6    S    
C18   C44   S    
C43   C45   A    
Cu2   O33   S    
C5    C23   A    
Cu1   O34   S    
C36   H20   S    
O11   S2    D    
C18   O32   A    
C32   C37   S    
C9    C11   A    
Cu1   N3    S    
C19   O33   A    
C46   H14   S    
C3    C40   S    
C17   N3    A    
C34   S2    S    
C20   N1    A    
C1    C13   S    
O25   S5    D    
O10   S2    D    
C2    H15   S    
C37   O6    D    
C7    C9    A    
H3    O9    S    
Cu1   O32   S    
C30   C33   A    
C14   N4    A    
C15   S4    S    
C34   C43   A    
O9    S1    S    
C3    C5    A    
C10   C13   A    
O27   S5    S    
C11   C12   S    
C19   C45   S    
O20   S3    S    
C25   C27   A    
C15   N3    A    
C21   C30   A    
C29   C35   A    
C3    C46   A    
C26   C28   A    
C21   N2    A    
C1    O1    A    
C40   O16   D    
C28   C30   A    
H13   O30   S    
C37   H2    S    
C38   H5    S    
C8    C11   A    
O22   S4    D    
C7    H16   S    
O21   S4    D    
C39   H6    S    
C19   O34   A    
C6    C34   A    
C7    C13   A    
C8    C10   A    
C27   C28   A    
Cu1   O23   S    
C31   C36   S    
C20   O36   S    
