data_mof_unit_44326.cif
_audit_creation_date              2012-10-26T19:52:45-0400
_audit_creation_method            fapswitch 2.2
_symmetry_space_group_name_H-M    P1
_symmetry_Int_Tables_number       1
_space_group_crystal_system       triclinic
_cell_length_a                    15.077351
_cell_length_b                    10.858895
_cell_length_c                    9.59021
_cell_angle_alpha                 90.983523
_cell_angle_beta                  90.868601
_cell_angle_gamma                 92.203382
_cell_volume                      1568.55282297

loop_
_atom_site_label
_atom_site_type_symbol
_atom_type_description
_atom_site_fract_x
_atom_site_fract_y
_atom_site_fract_z
_atom_type_partial_charge
C1    C     C_R   0.498073 0.262554 0.498690 0.546396
C2    C     C_R   0.183534 0.472523 0.375484 -0.143410
C3    C     C_R   0.231612 0.500009 0.498767 -0.016969
C4    C     C_R   0.328673 0.500310 0.499351 0.545024
C5    C     C_R   0.187013 0.525604 0.622247 -0.138597
C6    C     C_R   0.466051 0.065521 0.614434 0.006046
C7    C     C_R   0.488698 0.129373 0.494826 0.003424
C8    C     C_R   0.498939 0.062319 0.370166 -0.167944
C9    C     C_R   0.498825 0.933930 0.371975 -0.167341
C10   C     C_R   0.489176 0.870922 0.498578 -0.001516
C11   C     C_R   0.465153 0.938431 0.616800 0.039520
C12   C     C_R   0.908957 0.521754 0.625506 0.016347
C13   C     C_3   0.500634 0.941003 0.763565 -0.136880
C14   C     C_3   0.501738 0.080822 0.759260 -0.242112
C15   C     C_R   0.571873 0.547387 0.075893 0.158384
C16   C     C_R   0.497880 0.737722 0.500629 0.539298
C17   C     C_R   0.437044 0.432258 0.068716 0.113481
C18   C     C_R   0.435133 0.439656 0.920712 0.008070
C19   C     C_R   0.572374 0.543892 0.928969 0.132788
C20   C     C_3   0.614684 0.668261 0.920489 -0.272249
C21   C     C_3   0.612286 0.676633 0.079382 -0.126030
C22   C     C_R   0.671143 0.497746 0.500967 0.541572
C23   C     C_R   0.947512 0.432536 0.255308 -0.127606
C24   C     C_R   0.816458 0.522502 0.625369 -0.140850
C25   C     C_R   0.767789 0.493068 0.502852 -0.012746
C26   C     C_R   0.811688 0.459126 0.381278 -0.143502
C27   C     C_R   0.904030 0.461015 0.378718 -0.006871
C28   C     C_R   0.953097 0.492324 0.501003 0.054792
C29   C     C_3   0.433687 0.886884 0.867019 -0.412788
C30   C     C_3   0.367409 0.345455 0.130120 -0.259499
C31   C     C_3   0.370200 0.214263 0.070147 -0.481798
C32   C     C_3   0.706503 0.690306 0.145204 -0.269413
C33   C     C_3   0.709073 0.770581 0.277495 -0.423020
C34   C     C_R   0.040404 0.435383 0.250346 0.020770
C35   C     C_3   0.082726 0.403272 0.112552 -0.280642
C36   C     C_3   0.115097 0.271698 0.111586 -0.439655
C37   C     C_R   0.090492 0.466985 0.373545 0.024105
C38   C     C_R   0.046136 0.494253 0.499049 0.044200
C39   C     C_R   0.094708 0.524062 0.623122 0.013178
C40   C     C_R   0.050329 0.551948 0.746435 -0.137922
C41   C     C_R   0.957959 0.551103 0.747575 -0.139199
Cu1   Cu    Cu3+1 0.500000 0.499980 0.640670 0.918356
Cu2   Cu    Cu3+1 0.500000 0.500020 0.359330 0.919070
H1    H     H_    0.782572 0.547215 0.720096 0.114896
H2    H     H_    0.565183 0.745837 0.116153 0.142929
H3    H     H_    0.908687 0.408132 0.162052 0.098907
H4    H     H_    0.219598 0.454288 0.282120 0.121748
H5    H     H_    0.224112 0.547817 0.717756 0.121910
H6    H     H_    0.087157 0.575117 0.841821 0.100174
H7    H     H_    0.924869 0.573533 0.843773 0.098802
H8    H     H_    0.512564 0.108502 0.273328 0.133271
H9    H     H_    0.368658 0.931220 0.857720 0.143031
H10   H     H_    0.422443 0.786523 0.846817 0.163757
H11   H     H_    0.459920 0.901475 0.975096 0.118018
H12   H     H_    0.511180 0.885262 0.275479 0.125041
H13   H     H_    0.341505 0.209170 0.962923 0.130588
H14   H     H_    0.439432 0.183057 0.069550 0.151363
H15   H     H_    0.329766 0.150442 0.135155 0.141344
H16   H     H_    0.374646 0.335090 0.242235 0.221004
H17   H     H_    0.301041 0.381315 0.107221 0.109133
H18   H     H_    0.687608 0.864747 0.253655 0.136456
H19   H     H_    0.665571 0.730618 0.357978 0.190253
H20   H     H_    0.777945 0.777555 0.320397 0.136283
H21   H     H_    0.732737 0.598873 0.167822 0.156816
H22   H     H_    0.753103 0.735554 0.071413 0.135029
H23   H     H_    0.568705 0.906322 0.771385 0.131586
H24   H     H_    0.163693 0.258294 0.197502 0.150460
H25   H     H_    0.058013 0.205123 0.123308 0.156920
H26   H     H_    0.147584 0.252094 0.010885 0.137908
H27   H     H_    0.033963 0.410292 0.025169 0.140658
H28   H     H_    0.137780 0.470170 0.089148 0.126902
H29   H     H_    0.453665 0.125127 0.828181 0.138867
H30   H     H_    0.569885 0.123903 0.763435 0.134581
H31   H     H_    0.382053 0.393852 0.860267 0.126446
H32   H     H_    0.681596 0.664740 0.873911 0.111740
H33   H     H_    0.570217 0.731288 0.869297 0.143114
H34   H     H_    0.773958 0.430794 0.288396 0.117105
N1    N     N_R   0.500570 0.500930 0.147930 -0.234151
N2    N     N_R   0.500570 0.500890 0.852020 -0.252017
O1    O     O_R   0.500000 0.319640 0.618810 -0.500184
O2    O     O_R   0.500010 0.319680 0.381230 -0.521394
O3    O     O_R   0.370250 0.499950 0.618800 -0.513115
O4    O     O_R   0.370260 0.499990 0.381220 -0.524922
O5    O     O_R   0.499990 0.680320 0.618770 -0.503528
O6    O     O_R   0.500000 0.680360 0.381190 -0.508409
O7    O     O_R   0.629740 0.500010 0.618780 -0.500551
O8    O     O_R   0.629750 0.500050 0.381200 -0.505032

loop_
_geom_bond_atom_site_label_1
_geom_bond_atom_site_label_2
_ccdc_geom_bond_type
C8    C9    A    
Cu1   O1    S    
C34   C37   A    
Cu2   O4    S    
C19   C20   S    
Cu1   O3    S    
C36   H24   S    
C7    C8    A    
Cu2   N1    S    
C15   C19   A    
C26   C27   A    
C12   C41   A    
C12   C28   A    
C31   H15   S    
C13   C29   S    
C38   C39   A    
C15   N1    A    
C29   H11   S    
C1    O2    A    
C40   H6    S    
C16   O5    A    
C20   H33   S    
C34   C35   S    
C35   C36   S    
C35   H27   S    
C33   H19   S    
C22   C25   S    
C30   H17   S    
C9    H12   S    
C23   C27   A    
C31   H13   S    
C9    C10   A    
C35   H28   S    
Cu1   N2    S    
C18   H31   S    
C23   H3    S    
C13   C14   S    
C17   C30   S    
C21   C32   S    
C21   H2    S    
C13   H23   S    
C5    H5    S    
C26   H34   S    
Cu2   O6    S    
C14   H30   S    
Cu1   O5    S    
C24   C25   A    
C32   H21   S    
C39   C40   A    
C18   N2    A    
C25   C26   A    
C20   H32   S    
C37   C38   A    
C6    C14   S    
C28   C38   A    
C33   H20   S    
C23   C34   A    
C30   H16   S    
C17   C18   A    
C22   O8    A    
C19   N2    A    
C8    H8    S    
Cu1   O7    S    
C40   C41   A    
C5    C39   A    
C16   O6    A    
Cu2   O2    S    
Cu1   Cu2   S    
C3    C4    S    
C41   H7    S    
C6    C11   A    
C36   H26   S    
C1    C7    S    
C14   H29   S    
C3    C5    A    
C36   H25   S    
C6    C7    A    
C2    H4    S    
C12   C24   A    
Cu2   O8    S    
C32   C33   S    
C31   H14   S    
C2    C3    A    
C10   C16   S    
C11   C13   S    
C2    C37   A    
C30   C31   S    
C4    O4    A    
C29   H10   S    
C24   H1    S    
C17   N1    A    
C22   O7    A    
C10   C11   A    
C15   C21   S    
C4    O3    A    
C20   C21   S    
C33   H18   S    
C27   C28   A    
C1    O1    A    
C32   H22   S    
C29   H9    S    
