data_mof_unit_17322.cif
_audit_creation_date              2012-12-10T18:53:46-0500
_audit_creation_method            fapswitch 2.2
_symmetry_space_group_name_H-M    P1
_symmetry_Int_Tables_number       1
_space_group_crystal_system       triclinic
_cell_length_a                    10.611119
_cell_length_b                    9.835731
_cell_length_c                    19.071422
_cell_angle_alpha                 88.943538
_cell_angle_beta                  89.954521
_cell_angle_gamma                 89.94669
_cell_volume                      1990.10849347

loop_
_atom_site_label
_atom_site_type_symbol
_atom_type_description
_atom_site_fract_x
_atom_site_fract_y
_atom_site_fract_z
_atom_type_partial_charge
C1    C     C_R   0.260398 0.500034 0.499711 1.023226
C2    C     C_R   0.065139 0.543250 0.559697 0.288865
C3    C     C_R   0.872077 0.499976 0.499682 -0.345313
C4    C     C_R   0.128190 0.500041 0.499609 -0.342232
C5    C     C_R   0.609503 0.072028 0.491195 -0.066912
C6    C     C_R   0.390692 0.927861 0.509765 -0.088476
C7    C     C_R   0.390513 0.071624 0.509009 -0.073742
C8    C     C_R   0.609349 0.928380 0.490486 -0.083288
C9    C     C_R   0.450175 0.626453 0.251615 0.303390
C10   C     C_R   0.434070 0.369550 0.745317 0.367517
C11   C     C_R   0.435846 0.617742 0.745863 0.356646
C12   C     C_R   0.739690 0.499970 0.499808 1.053066
C13   C     C_R   0.467920 0.378388 0.252381 0.346779
C14   C     C_R   0.428810 0.625144 0.179081 0.325257
C15   C     C_R   0.408815 0.367103 0.817253 0.356893
C16   C     C_R   0.385059 0.612919 0.813469 0.328463
C17   C     C_R   0.421686 0.377955 0.183776 0.305102
C18   C     C_R   0.410965 0.500702 0.145788 -0.255341
C19   C     C_R   0.389038 0.490489 0.852171 -0.316695
C20   C     C_R   0.475276 0.502714 0.288377 -0.342246
C21   C     C_R   0.458428 0.495164 0.710115 -0.386081
C22   C     C_3   0.331559 0.795167 0.298164 0.143651
C23   C     C_R   0.388719 0.492718 0.928838 0.370659
C24   C     C_3   0.335379 0.942789 0.320204 -0.770228
C25   C     C_3   0.314153 0.213736 0.688487 0.115279
C26   C     C_3   0.298447 0.059878 0.688877 -0.780747
C27   C     C_3   0.581435 0.784488 0.736934 0.127376
C28   C     C_3   0.618985 0.915324 0.698758 -0.714809
C29   C     C_3   0.611611 0.205611 0.255311 0.143441
C30   C     C_3   0.670336 0.100232 0.304610 -0.751202
C31   C     C_3   0.543119 0.788480 0.122517 0.130850
C32   C     C_3   0.534906 0.913329 0.074471 -0.799114
C33   C     C_3   0.296375 0.203909 0.878472 0.125286
C34   C     C_R   0.397756 0.496229 0.069989 0.389360
C35   C     C_3   0.314036 0.094134 0.934769 -0.788361
C36   C     C_3   0.203291 0.728433 0.823394 0.184823
C37   C     C_3   0.134140 0.839347 0.862096 -0.852225
C38   C     C_3   0.263827 0.225898 0.171798 0.139618
C39   C     C_3   0.225113 0.091624 0.139999 -0.830980
C40   C     C_R   0.497030 0.501118 0.364767 1.034609
C41   C     C_R   0.492511 0.498679 0.635003 1.024827
C42   C     C_R   0.065362 0.456777 0.439494 0.297006
C43   C     C_R   0.935072 0.543340 0.559715 0.309452
C44   C     C_R   0.935197 0.456954 0.439513 0.298756
Cl1   Cl    Cl    0.149372 0.406400 0.363895 -0.624698
Cl2   Cl    Cl    0.851491 0.593913 0.635277 -0.616965
Cl3   Cl    Cl    0.851607 0.408081 0.363733 -0.620891
Cl4   Cl    Cl    0.148780 0.592968 0.635331 -0.648368
H1    H     H_    0.697405 0.126059 0.484366 0.153165
H2    H     H_    0.299034 0.253207 0.634235 0.177662
H3    H     H_    0.237868 0.256564 0.721878 0.115132
H4    H     H_    0.315727 0.017040 0.742254 0.281800
H5    H     H_    0.201330 0.033280 0.672427 0.214366
H6    H     H_    0.366159 0.013612 0.652091 0.273071
H7    H     H_    0.653601 0.705951 0.724808 0.180446
H8    H     H_    0.582401 0.803440 0.794351 0.157833
H9    H     H_    0.560349 0.000900 0.717123 0.284290
H10   H     H_    0.719244 0.938825 0.709906 0.215115
H11   H     H_    0.607099 0.904222 0.641369 0.263484
H12   H     H_    0.303087 0.873756 0.517697 0.169672
H13   H     H_    0.682889 0.287439 0.246051 0.164526
H14   H     H_    0.590864 0.155627 0.204822 0.174118
H15   H     H_    0.604134 0.014804 0.314392 0.263770
H16   H     H_    0.757892 0.059527 0.280915 0.210283
H17   H     H_    0.694392 0.147955 0.355056 0.278266
H18   H     H_    0.593848 0.707390 0.093644 0.131589
H19   H     H_    0.598411 0.815713 0.169835 0.172189
H20   H     H_    0.491763 0.999284 0.102730 0.278147
H21   H     H_    0.630845 0.943753 0.057035 0.208992
H22   H     H_    0.477056 0.890328 0.027657 0.272896
H23   H     H_    0.302694 0.125274 0.516254 0.148566
H24   H     H_    0.239469 0.162288 0.835228 0.132258
H25   H     H_    0.241885 0.288353 0.901964 0.124367
H26   H     H_    0.362434 0.004606 0.912401 0.287175
H27   H     H_    0.371921 0.133729 0.978334 0.276206
H28   H     H_    0.220882 0.062380 0.955808 0.199633
H29   H     H_    0.157215 0.629892 0.838063 0.141341
H30   H     H_    0.191445 0.747759 0.766072 0.211946
H31   H     H_    0.165436 0.940068 0.842164 0.245070
H32   H     H_    0.031209 0.830446 0.852772 0.224162
H33   H     H_    0.152399 0.829735 0.919299 0.273463
H34   H     H_    0.697024 0.874703 0.482756 0.159554
H35   H     H_    0.198770 0.306447 0.151447 0.154835
H36   H     H_    0.252823 0.216194 0.229806 0.199809
H37   H     H_    0.286939 0.008211 0.159480 0.282673
H38   H     H_    0.126265 0.067592 0.154768 0.218224
H39   H     H_    0.231875 0.098752 0.082096 0.257796
H40   H     H_    0.288918 0.732982 0.341383 0.165973
H41   H     H_    0.269852 0.789632 0.251009 0.163328
H42   H     H_    0.373921 0.007097 0.276923 0.281000
H43   H     H_    0.238957 0.978426 0.333159 0.216474
H44   H     H_    0.396701 0.953398 0.366702 0.265240
N1    N     N_R   0.500000 0.857200 0.500000 -0.081831
N2    N     N_R   0.500000 0.142800 0.500000 -0.070868
N3    N     N_R   0.323342 0.585738 0.034333 -0.134161
N4    N     N_R   0.463883 0.404844 0.964799 -0.129013
N5    N     N_R   0.318697 0.583735 0.964684 -0.143759
N6    N     N_R   0.468089 0.406253 0.034126 -0.151346
O1    O     O_R   0.316770 0.614620 0.500000 -0.620675
O2    O     O_3   0.437737 0.246996 0.710831 -0.561616
O3    O     O_3   0.460258 0.743297 0.714928 -0.557055
O4    O     O_3   0.499292 0.256209 0.285364 -0.566445
O5    O     O_3   0.420263 0.746455 0.141415 -0.585033
O6    O     O_3   0.416328 0.243580 0.853198 -0.550269
O7    O     O_3   0.332811 0.728720 0.841398 -0.587064
O8    O     O_3   0.389870 0.256103 0.153254 -0.610915
O9    O     O_R   0.683230 0.385380 0.500000 -0.618416
O10   O     O_R   0.683230 0.614620 0.500000 -0.616112
O11   O     O_R   0.316770 0.385380 0.500000 -0.630811
O12   O     O_R   0.499990 0.614700 0.398140 -0.596119
O13   O     O_R   0.500010 0.385300 0.601860 -0.597023
O14   O     O_R   0.500010 0.614700 0.601860 -0.550267
O15   O     O_R   0.499990 0.385300 0.398140 -0.542674
O16   O     O_3   0.455767 0.750266 0.284743 -0.581714
Zn1   Zn    Zn3+2 0.500000 0.653120 0.500000 1.009389
Zn2   Zn    Zn3+2 0.500000 0.346880 0.500000 1.012613

loop_
_geom_bond_atom_site_label_1
_geom_bond_atom_site_label_2
_ccdc_geom_bond_type
C31   H18   S    
C24   H43   S    
C35   H26   S    
C30   H16   S    
C38   H35   S    
C33   O6    S    
C14   C18   A    
C19   C23   S    
C39   H39   S    
C5    H1    S    
C1    O1    A    
C5    N2    A    
C28   H9    S    
C31   H19   S    
C37   H31   S    
C35   H27   S    
C8    H34   S    
C9    O16   S    
O10   Zn1   S    
C36   C37   S    
C36   H29   S    
O1    Zn1   S    
C38   C39   S    
C20   C40   S    
C27   H7    S    
C24   H44   S    
C23   N4    A    
N1    Zn1   S    
C25   H2    S    
C3    C12   S    
C25   O2    S    
O11   Zn2   S    
C1    O11   A    
C15   C19   A    
C40   O15   A    
C41   O14   A    
N4    N6    A    
O13   Zn2   S    
C22   H40   S    
C15   O6    S    
C33   H24   S    
C44   Cl3   S    
C32   H20   S    
O15   Zn2   S    
C30   H15   S    
C37   H33   S    
C42   C44   A    
C26   H6    S    
C10   C21   A    
C35   H28   S    
C37   H32   S    
C29   H13   S    
C3    C44   A    
C6    H12   S    
C34   N3    A    
C12   O10   A    
N2    Zn2   S    
C27   H8    S    
C40   O12   A    
C2    Cl4   S    
C25   C26   S    
C11   C21   A    
C42   Cl1   S    
C31   O5    S    
C38   O8    S    
C2    C4    A    
C9    C14   A    
C25   H3    S    
C29   C30   S    
C26   H4    S    
C5    C8    A    
C11   C16   A    
C9    C20   A    
C31   C32   S    
C2    C43   A    
C6    N1    A    
C3    C43   A    
C17   C18   A    
C11   O3    S    
C10   O2    S    
C18   C34   S    
C6    C7    A    
C16   O7    S    
C21   C41   S    
C33   H25   S    
C23   N5    A    
C22   C24   S    
C39   H37   S    
C26   H5    S    
C28   H11   S    
C7    N2    A    
C29   H14   S    
C13   C20   A    
C38   H36   S    
C36   O7    S    
C8    N1    A    
C24   H42   S    
C12   O9    A    
C32   H22   S    
N3    N5    A    
C32   H21   S    
C28   H10   S    
C13   C17   A    
C10   C15   A    
C1    C4    S    
C36   H30   S    
C17   O8    S    
C7    H23   S    
C33   C35   S    
C14   O5    S    
C4    C42   A    
C16   C19   A    
C34   N6    A    
C22   H41   S    
C27   O3    S    
C29   O4    S    
C43   Cl2   S    
O9    Zn2   S    
C30   H17   S    
C22   O16   S    
C41   O13   A    
C27   C28   S    
C39   H38   S    
C13   O4    S    
O12   Zn1   S    
O14   Zn1   S    
