data_mof_unit_32800.cif
_audit_creation_date              2012-12-10T17:24:11-0500
_audit_creation_method            fapswitch 2.2
_symmetry_space_group_name_H-M    P1
_symmetry_Int_Tables_number       1
_space_group_crystal_system       triclinic
_cell_length_a                    19.268954
_cell_length_b                    10.849663
_cell_length_c                    9.591778
_cell_angle_alpha                 89.592599
_cell_angle_beta                  89.802109
_cell_angle_gamma                 94.091076
_cell_volume                      2000.09704682

loop_
_atom_site_label
_atom_site_type_symbol
_atom_type_description
_atom_site_fract_x
_atom_site_fract_y
_atom_site_fract_z
_atom_type_partial_charge
C1    C     C_R   0.503849 0.262539 0.501306 0.775809
C2    C     C_R   0.290378 0.481862 0.498546 -0.175943
C3    C     C_R   0.927416 0.432743 0.485958 0.424143
C4    C     C_R   0.067930 0.428263 0.482341 0.395996
C5    C     C_R   0.810489 0.402974 0.607806 0.506528
C6    C     C_R   0.738511 0.417005 0.606428 -0.392805
C7    C     C_R   0.707472 0.476269 0.494638 -0.208370
C8    C     C_R   0.748266 0.513972 0.377408 0.505442
C9    C     C_R   0.819564 0.498431 0.378098 -0.324374
C10   C     C_R   0.851231 0.441837 0.490732 -0.094869
C11   C     C_R   0.521748 0.114278 0.764240 -0.057817
C12   C     C_R   0.367155 0.496456 0.500124 0.833748
C13   C     C_R   0.503079 0.054290 0.888616 -0.154924
C14   C     C_R   0.466830 0.939501 0.885980 -0.207680
C15   C     C_R   0.452602 0.880294 0.758864 0.478115
C16   C     C_R   0.479830 0.934549 0.632133 0.005257
C17   C     C_R   0.503243 0.060652 0.634073 0.042170
C18   C     C_R   0.506451 0.127722 0.505872 -0.092556
C19   C     C_R   0.502358 0.063787 0.379563 -0.206605
C20   C     C_R   0.495223 0.936227 0.378965 -0.228600
C21   C     C_R   0.485622 0.869844 0.504076 -0.099049
C22   C     C_R   0.580074 0.681409 0.149281 -0.142446
C23   C     C_R   0.493442 0.736415 0.500602 0.854194
C24   C     C_R   0.604493 0.790587 0.088229 -0.427637
C25   C     C_R   0.605804 0.800532 0.944552 0.390097
C26   C     C_R   0.584464 0.695419 0.864803 0.480445
C27   C     C_R   0.540786 0.593278 0.926151 -0.047558
C28   C     C_R   0.539846 0.590513 0.075757 0.101472
C29   C     C_R   0.461484 0.414145 0.075175 -0.186073
C30   C     C_R   0.459824 0.414860 0.925696 0.582546
C31   C     C_R   0.632247 0.493905 0.498947 0.860804
C32   C     C_R   0.252084 0.458561 0.621907 -0.277183
C33   C     C_R   0.179450 0.438224 0.618936 0.422576
C34   C     C_R   0.144486 0.437519 0.489078 -0.149486
C35   C     C_R   0.183441 0.456148 0.364547 0.434413
C36   C     C_R   0.255263 0.481709 0.370789 -0.275822
Cu1   Cu    Cu3+1 0.500000 0.499990 0.640660 1.034598
Cu2   Cu    Cu3+1 0.500000 0.500010 0.359340 0.935638
H1    H     H_    0.278412 0.455364 0.721217 0.178712
H2    H     H_    0.552959 0.200490 0.772598 0.146815
H3    H     H_    0.516123 0.097600 0.987328 0.129965
H4    H     H_    0.451048 0.895094 0.983478 0.143155
H5    H     H_    0.497398 0.889639 0.279723 0.170379
H6    H     H_    0.431640 0.343385 0.133954 0.146875
H7    H     H_    0.594024 0.673352 0.255447 0.260406
H8    H     H_    0.626232 0.863846 0.154108 0.187778
H9    H     H_    0.283653 0.498205 0.273950 0.174862
H10   H     H_    0.706782 0.381982 0.693463 0.167528
H11   H     H_    0.850375 0.532583 0.289533 0.185863
H12   H     H_    0.505889 0.112241 0.280342 0.154404
N1    N     N_R   0.035620 0.505558 0.396670 -0.202946
N2    N     N_R   0.966826 0.507510 0.398237 -0.263151
N3    N     N_R   0.959672 0.353337 0.569810 -0.184285
N4    N     N_R   0.028719 0.351282 0.568285 -0.214636
N5    N     N_R   0.500660 0.501210 0.147910 -0.197381
N6    N     N_R   0.500680 0.501290 0.852040 -0.203268
O1    O     O_R   0.499990 0.319640 0.618810 -0.554901
O2    O     O_R   0.500000 0.319660 0.381240 -0.595277
O3    O     O_R   0.400140 0.499970 0.618820 -0.530410
O4    O     O_R   0.400150 0.500000 0.381250 -0.590913
O5    O     O_R   0.500000 0.680340 0.618760 -0.488355
O6    O     O_R   0.500010 0.680360 0.381190 -0.622452
O7    O     O_R   0.599850 0.500000 0.618750 -0.547278
O8    O     O_R   0.599860 0.500030 0.381180 -0.574398
O9    O     O_3   0.410029 0.772175 0.759856 -0.582494
C37   C     C_3   0.339377 0.800009 0.758093 0.062089
H13   H     H_    0.309464 0.723478 0.703731 0.152982
H14   H     H_    0.330322 0.885588 0.697439 0.087937
C38   C     C_3   0.309730 0.809184 0.906264 -0.394058
H15   H     H_    0.331417 0.894647 0.957567 0.197852
H16   H     H_    0.252864 0.817680 0.899249 0.184354
C39   C     C_3   0.323873 0.696735 0.996269 -0.734624
H17   H     H_    0.306611 0.609827 0.942266 0.229193
H18   H     H_    0.295202 0.700628 0.096567 0.226565
H19   H     H_    0.380285 0.695615 0.019107 0.261082
O10   O     O_3   0.629721 0.909031 0.875024 -0.586640
C40   C     C_3   0.691594 0.966328 0.932550 0.068416
H20   H     H_    0.727736 0.991070 0.844606 0.168408
H21   H     H_    0.720157 0.904450 0.001877 0.130812
C41   C     C_3   0.676471 0.086022 0.006982 -0.347472
H22   H     H_    0.657838 0.152973 0.929886 0.211616
H23   H     H_    0.635125 0.067697 0.086807 0.210695
C42   C     C_3   0.741650 0.143555 0.077712 -0.921416
H24   H     H_    0.760813 0.078765 0.156565 0.266096
H25   H     H_    0.729360 0.229527 0.131340 0.244178
H26   H     H_    0.783167 0.166335 0.999212 0.263286
O11   O     O_3   0.613076 0.693821 0.733319 -0.522408
C43   C     C_3   0.686045 0.683374 0.743211 -0.277694
H27   H     H_    0.697347 0.594856 0.794237 0.130590
H28   H     H_    0.714095 0.760272 0.799073 0.148822
H29   H     H_    0.708587 0.686895 0.636874 0.181379
O12   O     O_3   0.144923 0.405611 0.742277 -0.602490
C44   C     C_3   0.108047 0.504501 0.792954 0.072521
H30   H     H_    0.064098 0.463264 0.857013 0.181742
H31   H     H_    0.084975 0.560240 0.709333 0.127933
C45   C     C_3   0.154343 0.589472 0.885195 -0.386941
H32   H     H_    0.181177 0.534043 0.963062 0.254611
H33   H     H_    0.193973 0.639991 0.818290 0.202351
C46   C     C_3   0.112048 0.681903 0.961633 -0.847762
H34   H     H_    0.086227 0.741222 0.885690 0.242139
H35   H     H_    0.146933 0.741561 0.028754 0.258898
H36   H     H_    0.071945 0.632545 0.029058 0.279107
O13   O     O_3   0.421015 0.325458 0.850359 -0.549792
C47   C     C_3   0.355425 0.293954 0.911644 -0.379157
H37   H     H_    0.320426 0.252185 0.830533 0.207136
H38   H     H_    0.330800 0.376259 0.952460 0.140827
H39   H     H_    0.359793 0.223025 0.994605 0.159907
O14   O     O_3   0.151755 0.455122 0.235084 -0.608151
C48   C     C_3   0.134160 0.331732 0.193574 0.080311
H40   H     H_    0.089799 0.333608 0.120065 0.179832
H41   H     H_    0.115963 0.269805 0.281670 0.130448
C49   C     C_3   0.195233 0.277952 0.117744 -0.387192
H42   H     H_    0.212124 0.339194 0.029156 0.230204
H43   H     H_    0.239741 0.272135 0.190206 0.207813
C50   C     C_3   0.174947 0.149153 0.061774 -0.880563
H44   H     H_    0.158529 0.085211 0.148619 0.252807
H45   H     H_    0.220307 0.112815 0.008085 0.243680
H46   H     H_    0.131724 0.152854 0.985850 0.274120
O15   O     O_3   0.840861 0.347054 0.720441 -0.593765
C51   C     C_3   0.838737 0.422116 0.840549 0.052659
H47   H     H_    0.852365 0.364627 0.931327 0.171330
H48   H     H_    0.785814 0.452094 0.862227 0.109510
C52   C     C_3   0.891928 0.534340 0.831225 -0.371477
H49   H     H_    0.944033 0.502768 0.806279 0.232007
H50   H     H_    0.876963 0.597804 0.746818 0.207420
C53   C     C_3   0.896132 0.605329 0.968004 -0.914629
H51   H     H_    0.844726 0.639515 0.994249 0.260358
H52   H     H_    0.934774 0.685834 0.957504 0.263058
H53   H     H_    0.912879 0.545015 0.053792 0.262095
O16   O     O_3   0.720317 0.577911 0.268218 -0.575475
C54   C     C_3   0.715691 0.501413 0.149657 -0.339600
H54   H     H_    0.699310 0.556710 0.059513 0.173453
H55   H     H_    0.675678 0.423561 0.165685 0.182221
H56   H     H_    0.766430 0.465518 0.121276 0.145661

loop_
_geom_bond_atom_site_label_1
_geom_bond_atom_site_label_2
_ccdc_geom_bond_type
C8    C9    A    
C37   H14   S    
O11   C43   S    
C44   H30   S    
C11   C13   A    
C35   C36   A    
C54   H56   S    
C2    C12   S    
C13   H3    S    
C7    C8    A    
N3    N4    A    
C26   C27   A    
C29   C30   A    
C6    H10   S    
C5    O15   S    
C42   H24   S    
C18   C19   A    
C48   H41   S    
C5    C6    A    
C41   H22   S    
C52   H50   S    
C37   C38   S    
C15   C16   A    
C15   O9    S    
C45   C46   S    
O14   C48   S    
C36   H9    S    
C2    C32   A    
C34   C35   A    
C32   H1    S    
C38   H16   S    
C49   H42   S    
C35   O14   S    
Cu2   O2    S    
C12   O3    A    
C23   O6    A    
Cu2   N5    S    
C19   C20   A    
C16   C17   A    
C50   H45   S    
C45   H33   S    
C30   O13   S    
C9    C10   A    
C51   C52   S    
C14   H4    S    
C43   H27   S    
C37   H13   S    
C44   H31   S    
C22   C28   A    
C13   C14   A    
Cu1   N6    S    
C38   H15   S    
C41   C42   S    
C49   H43   S    
C47   H37   S    
Cu1   O7    S    
C28   N5    A    
C51   H48   S    
C17   C18   A    
C6    C7    A    
Cu2   O8    S    
C40   H21   S    
C4    C34   S    
C7    C31   S    
C4    N1    A    
N1    N2    A    
C31   O7    A    
C52   H49   S    
C9    H11   S    
C24   C25   A    
C41   H23   S    
C48   C49   S    
C27   N6    A    
C26   O11   S    
C52   C53   S    
C29   N5    A    
C53   H53   S    
C25   C26   A    
C40   H20   S    
C30   N6    A    
C38   C39   S    
Cu1   Cu2   S    
C1    O1    A    
C46   H34   S    
C43   H29   S    
O15   C51   S    
C50   H46   S    
C45   H32   S    
C22   H7    S    
C33   C34   A    
C1    C18   S    
O10   C40   S    
Cu1   O3    S    
Cu2   O4    S    
C39   H18   S    
C42   H25   S    
C43   H28   S    
C44   C45   S    
C21   C23   S    
C29   H6    S    
C8    O16   S    
C22   C24   A    
C33   O12   S    
C54   H54   S    
O13   C47   S    
C20   H5    S    
C51   H47   S    
C40   C41   S    
C2    C36   A    
C11   C17   A    
C53   H52   S    
C4    N4    A    
C31   O8    A    
C39   H17   S    
C54   H55   S    
Cu1   O5    S    
C3    N2    A    
C16   C21   A    
C47   H38   S    
C25   O10   S    
C24   H8    S    
C32   C33   A    
O16   C54   S    
C5    C10   A    
C3    C10   S    
C1    O2    A    
C3    N3    A    
C19   H12   S    
C39   H19   S    
C53   H51   S    
O12   C44   S    
C49   C50   S    
C11   H2    S    
C12   O4    A    
C23   O5    A    
C42   H26   S    
C20   C21   A    
O9    C37   S    
C27   C28   A    
C14   C15   A    
C48   H40   S    
C46   H35   S    
C47   H39   S    
Cu1   O1    S    
C46   H36   S    
C50   H44   S    
Cu2   O6    S    
