data_mof_unit_60535.cif
_audit_creation_date              2012-12-10T21:33:32-0500
_audit_creation_method            fapswitch 2.2
_symmetry_space_group_name_H-M    P1
_symmetry_Int_Tables_number       1
_space_group_crystal_system       triclinic
_cell_length_a                    14.163096
_cell_length_b                    16.132936
_cell_length_c                    16.716057
_cell_angle_alpha                 87.536803
_cell_angle_beta                  90.201937
_cell_angle_gamma                 92.011921
_cell_volume                      3813.60144414

loop_
_atom_site_label
_atom_site_type_symbol
_atom_type_description
_atom_site_fract_x
_atom_site_fract_y
_atom_site_fract_z
_atom_type_partial_charge
C1    C     C_R   0.496937 0.488772 0.653244 0.886713
C2    C     C_R   0.541975 0.149887 0.539081 0.406767
C3    C     C_R   0.517697 0.890569 0.516433 -0.030079
C4    C     C_R   0.482303 0.109431 0.483567 -0.030080
C5    C     C_R   0.572956 0.840854 0.567831 0.539918
C6    C     C_R   0.427044 0.159146 0.432169 0.539917
C7    C     C_R   0.568433 0.754157 0.563574 -0.283821
C8    C     C_R   0.431567 0.245843 0.436426 -0.283818
C9    C     C_R   0.670976 0.499719 0.500049 0.891962
C10   C     C_R   0.329024 0.500281 0.499951 0.891954
C11   C     C_1   0.772368 0.499270 0.500014 -0.159566
C12   C     C_R   0.503059 0.511228 0.346756 0.886706
C13   C     C_1   0.227631 0.500730 0.499986 -0.159566
C14   C     C_1   0.857563 0.499351 0.500001 0.026894
C15   C     C_1   0.142436 0.500649 0.499999 0.026893
C16   C     C_1   0.957397 0.499776 0.499999 0.043161
C17   C     C_1   0.042603 0.500224 0.500001 0.043160
C18   C     C_R   0.483909 0.481472 0.739413 -0.078526
C19   C     C_R   0.516056 0.518531 0.260584 -0.078524
C20   C     C_R   0.450457 0.549123 0.779133 -0.243011
C21   C     C_R   0.549506 0.450886 0.220854 -0.243012
C22   C     C_R   0.438822 0.544072 0.861508 -0.002163
C23   C     C_R   0.488893 0.400921 0.864526 -0.037242
C24   C     C_R   0.561101 0.455939 0.138474 -0.002158
C25   C     C_R   0.464611 0.471567 0.905171 0.226752
C26   C     C_R   0.535280 0.528441 0.094820 0.226757
C27   C     C_1   0.602633 0.387493 0.100277 0.218919
C28   C     C_1   0.397289 0.612526 0.899692 0.218915
C29   C     C_1   0.504961 0.322880 0.906825 0.238538
C30   C     C_1   0.494893 0.677121 0.093179 0.238545
C31   C     C_R   0.510996 0.599082 0.135472 -0.037252
C32   C     C_R   0.499275 0.406339 0.781664 -0.214742
C33   C     C_R   0.500652 0.593661 0.218338 -0.214738
C34   C     C_R   0.455863 0.763107 0.458917 0.623925
C35   C     C_R   0.544136 0.236893 0.541083 0.623925
C36   C     C_R   0.458024 0.850113 0.460920 0.406768
F1    F     F_    0.601424 0.275338 0.594159 -0.596441
F2    F     F_    0.398575 0.724662 0.405842 -0.596453
F3    F     F_    0.597799 0.106794 0.590968 -0.548097
F4    F     F_    0.402200 0.893206 0.409033 -0.548099
F5    F     F_    0.631266 0.876451 0.622107 -0.568320
F6    F     F_    0.368734 0.123549 0.377892 -0.568320
H1    H     H_    0.567479 0.394332 0.254056 0.177748
H2    H     H_    0.432512 0.605680 0.745926 0.177756
H3    H     H_    0.521080 0.352654 0.750455 0.209086
H4    H     H_    0.478845 0.647340 0.249553 0.209102
H5    H     H_    0.611294 0.716434 0.603404 0.218953
H6    H     H_    0.388707 0.283566 0.396595 0.218953
N1    N     N_2   0.473389 0.470954 0.989067 -0.177388
N2    N     N_1   0.482544 0.740170 0.059831 -0.125917
N3    N     N_2   0.526493 0.529059 0.010924 -0.177390
N4    N     N_R   0.510540 0.716920 0.509720 -0.197931
N5    N     N_R   0.489460 0.283080 0.490280 -0.197934
N6    N     N_2   0.525201 0.979071 0.523448 0.020831
N7    N     N_2   0.474799 0.020929 0.476552 0.020832
N8    N     N_1   0.636903 0.332674 0.070328 -0.149092
N9    N     N_1   0.363017 0.667351 0.929629 -0.149086
N10   N     N_1   0.517282 0.259829 0.940180 -0.125927
O1    O     O_R   0.496230 0.422540 0.612660 -0.563942
O2    O     O_R   0.503770 0.577460 0.387340 -0.563945
O3    O     O_R   0.503000 0.561840 0.618900 -0.621589
O4    O     O_R   0.497000 0.438160 0.381100 -0.621584
O5    O     O_R   0.622900 0.430330 0.496880 -0.546867
O6    O     O_R   0.377100 0.569670 0.503120 -0.546869
O7    O     O_R   0.629670 0.569640 0.503120 -0.600859
O8    O     O_R   0.370330 0.430360 0.496880 -0.600862
Zn1   Zn    Zn3+2 0.495480 0.406980 0.495830 1.015432
Zn2   Zn    Zn3+2 0.504520 0.593020 0.504170 1.015429

loop_
_geom_bond_atom_site_label_1
_geom_bond_atom_site_label_2
_ccdc_geom_bond_type
C2    C35   A    
C8    N5    A    
C2    C4    A    
C8    H6    S    
C35   N5    A    
C12   O4    A    
C32   H3    S    
N6    N7    D    
C34   N4    A    
N4    Zn2   S    
C24   C27   S    
O7    Zn2   S    
O1    Zn1   S    
C23   C32   A    
C9    O7    A    
C31   C33   A    
O8    Zn1   S    
C30   N2    T    
C5    C7    A    
C26   C31   A    
C34   F2    S    
C28   N9    T    
C33   H4    S    
C9    C11   S    
O3    Zn2   S    
C1    C18   S    
C10   O8    A    
C3    C36   A    
C23   C29   S    
C12   C19   S    
C22   C28   S    
C19   C21   A    
C34   C36   A    
C24   C26   A    
C7    N4    A    
O5    Zn1   S    
C13   C15   T    
C4    N7    S    
C19   C33   A    
C30   C31   S    
N5    Zn1   S    
C11   C14   T    
C14   C16   S    
C26   N3    S    
C18   C32   A    
C7    H5    S    
C12   O2    A    
C22   C25   A    
O6    Zn2   S    
C36   F4    S    
C23   C25   A    
C29   N10   T    
O2    Zn2   S    
C18   C20   A    
C4    C6    A    
C6    F6    S    
C21   C24   A    
C35   F1    S    
C1    O1    A    
C15   C17   S    
N1    N3    D    
C5    F5    S    
C27   N8    T    
C6    C8    A    
C20   H2    S    
C21   H1    S    
C9    O5    A    
C2    F3    S    
C10   C13   S    
O4    Zn1   S    
C10   O6    A    
C3    N6    S    
C20   C22   A    
C16   C17   T    
C3    C5    A    
C25   N1    S    
C1    O3    A    
