data_mof_unit_38365.cif
_audit_creation_date              2012-12-10T18:05:16-0500
_audit_creation_method            fapswitch 2.2
_symmetry_space_group_name_H-M    P1
_symmetry_Int_Tables_number       1
_space_group_crystal_system       triclinic
_cell_length_a                    9.502674
_cell_length_b                    10.807793
_cell_length_c                    17.117289
_cell_angle_alpha                 89.381408
_cell_angle_beta                  95.247496
_cell_angle_gamma                 89.976115
_cell_volume                      1750.5241336

loop_
_atom_site_label
_atom_site_type_symbol
_atom_type_description
_atom_site_fract_x
_atom_site_fract_y
_atom_site_fract_z
_atom_type_partial_charge
C1    C     C_R   0.499583 0.262305 0.497237 0.869958
C2    C     C_R   0.068031 0.590067 0.460879 0.027539
C3    C     C_R   0.519482 0.494671 0.651030 0.863599
C4    C     C_R   0.480584 0.503948 0.348631 0.841180
C5    C     C_R   0.535608 0.488648 0.737383 -0.116847
C6    C     C_R   0.467377 0.506838 0.261749 -0.126153
C7    C     C_R   0.434426 0.547754 0.777624 -0.223462
C8    C     C_R   0.591132 0.491349 0.224382 -0.224354
C9    C     C_R   0.447059 0.549286 0.858599 -0.179669
C10   C     C_R   0.587793 0.492658 0.143575 -0.187267
C11   C     C_R   0.560576 0.489531 0.902668 0.364235
C12   C     C_R   0.500444 0.737630 0.502691 0.848263
C13   C     C_R   0.459325 0.506175 0.096570 0.343497
C14   C     C_R   0.666533 0.428696 0.863301 -0.000293
C15   C     C_R   0.332444 0.520972 0.132426 0.005592
C16   C     C_R   0.652166 0.428542 0.779741 -0.060764
C17   C     C_R   0.336648 0.524689 0.215416 -0.035729
C18   C     C_R   0.392518 0.061582 0.451590 -0.017827
C19   C     C_R   0.607903 0.938138 0.548083 -0.021403
C20   C     C_3   0.793644 0.358138 0.904697 -0.382514
C21   C     C_3   0.809135 0.346261 0.994423 -0.357005
C22   C     C_3   0.935405 0.264841 0.022787 -0.836397
C23   C     C_R   0.393095 0.933176 0.458026 -0.218352
C24   C     C_3   0.193419 0.533012 0.081140 -0.406605
C25   C     C_3   0.167292 0.666957 0.053289 -0.331908
C26   C     C_3   0.027068 0.679112 0.002658 -0.820356
C27   C     C_2   0.755111 0.358867 0.736820 0.834471
C28   C     C_2   0.206327 0.555814 0.252016 0.847170
C29   C     C_2   0.284717 0.121460 0.395158 0.857642
C30   C     C_2   0.716435 0.878153 0.604185 0.861783
C31   C     C_R   0.607616 0.066498 0.541314 -0.199629
C32   C     C_R   0.500148 0.871462 0.504715 -0.114257
C33   C     C_R   0.500064 0.128339 0.495062 -0.120680
C34   C     C_R   0.080877 0.409970 0.539256 0.007777
C35   C     C_R   0.919116 0.589962 0.460676 0.004262
C36   C     C_R   0.931967 0.409863 0.539058 0.011497
Cu1   Cu    Cu3+1 0.640660 0.500020 0.500000 1.001659
Cu2   Cu    Cu3+1 0.359340 0.499980 0.500000 1.003126
H1    H     H_    0.692683 0.478535 0.257734 0.191146
H2    H     H_    0.119132 0.662475 0.429925 0.131988
H3    H     H_    0.918045 0.168572 0.001979 0.262806
H4    H     H_    0.033669 0.301284 0.000697 0.252859
H5    H     H_    0.948791 0.263486 0.087928 0.258401
H6    H     H_    0.827577 0.439345 0.020063 0.230560
H7    H     H_    0.713197 0.302917 0.015292 0.251340
H8    H     H_    0.791206 0.262461 0.881274 0.214151
H9    H     H_    0.891399 0.403621 0.887839 0.234027
H10   H     H_    0.026223 0.618304 0.950688 0.258132
H11   H     H_    0.937917 0.653464 0.037267 0.253686
H12   H     H_    0.345917 0.595499 0.746149 0.181462
H13   H     H_    0.012165 0.776386 0.982029 0.250732
H14   H     H_    0.165182 0.728443 0.104790 0.251565
H15   H     H_    0.254072 0.698001 0.018387 0.229320
H16   H     H_    0.103199 0.500230 0.112659 0.215223
H17   H     H_    0.194612 0.471828 0.029470 0.211390
H18   H     H_    0.957488 0.337516 0.712631 0.322810
H19   H     H_    0.081770 0.690237 0.288677 0.320821
H20   H     H_    0.239141 0.254396 0.313205 0.361963
H21   H     H_    0.764405 0.742445 0.684206 0.341707
H22   H     H_    0.687064 0.482411 0.118384 0.156161
H23   H     H_    0.367094 0.598725 0.887061 0.166759
H24   H     H_    0.313188 0.880337 0.423488 0.182064
H25   H     H_    0.688508 0.119132 0.575067 0.210184
H26   H     H_    0.142108 0.338005 0.570891 0.129149
H27   H     H_    0.857878 0.661896 0.429013 0.126314
H28   H     H_    0.880925 0.337428 0.570043 0.147547
N1    N     N_2   0.569259 0.491672 0.985822 -0.272789
N2    N     N_2   0.453156 0.505480 0.013228 -0.263172
N3    N     N_R   0.852070 0.500030 0.499980 -0.168941
N4    N     N_R   0.147930 0.499970 0.500020 -0.165795
O1    O     O_R   0.618740 0.319660 0.500000 -0.580802
O2    O     O_R   0.897073 0.394380 0.742409 -0.777378
O3    O     O_2   0.124126 0.474039 0.267437 -0.611012
O4    O     O_R   0.176823 0.679419 0.267145 -0.775715
O5    O     O_2   0.165590 0.078127 0.385271 -0.581382
O6    O     O_R   0.320688 0.224203 0.350876 -0.758239
O7    O     O_2   0.835223 0.922163 0.614153 -0.584552
O8    O     O_R   0.681759 0.774230 0.647839 -0.761322
O9    O     O_R   0.381260 0.680340 0.500000 -0.591146
O10   O     O_R   0.381170 0.319630 0.500010 -0.576573
O11   O     O_R   0.618830 0.680370 0.499990 -0.578027
O12   O     O_R   0.631780 0.498870 0.613920 -0.551722
O13   O     O_R   0.368220 0.501130 0.386080 -0.549187
O14   O     O_R   0.394210 0.498840 0.613930 -0.590774
O15   O     O_R   0.605790 0.501160 0.386070 -0.590956
O16   O     O_2   0.715123 0.270501 0.696752 -0.626563

loop_
_geom_bond_atom_site_label_1
_geom_bond_atom_site_label_2
_ccdc_geom_bond_type
C2    C35   A    
Cu2   N4    S    
Cu1   N3    S    
Cu2   O13   S    
C28   O4    S    
H20   O6    S    
C29   O6    S    
C24   H17   S    
C1    O1    A    
C9    H23   S    
Cu1   O15   S    
C25   H15   S    
C11   C14   A    
C36   H28   S    
C22   H3    S    
Cu2   O9    S    
C35   H27   S    
C24   H16   S    
C12   O9    A    
C7    C9    A    
C5    C16   A    
C30   O7    D    
C23   H24   S    
H18   O2    S    
C31   C33   A    
C8    H1    S    
C34   N4    A    
C26   H10   S    
C16   C27   S    
C19   C31   A    
C21   C22   S    
C12   C32   S    
Cu1   O11   S    
C28   O3    D    
H21   O8    S    
C11   N1    S    
C21   H7    S    
C1    C33   S    
N1    N2    D    
C31   H25   S    
C24   C25   S    
C4    C6    S    
C26   H11   S    
C5    C7    A    
C6    C8    A    
C4    O15   A    
C25   C26   S    
C18   C23   A    
H19   O4    S    
C27   O16   D    
C10   H22   S    
Cu1   Cu2   S    
C14   C20   S    
C21   H6    S    
C22   H5    S    
C19   C32   A    
C3    O12   A    
C34   H26   S    
C18   C29   S    
C9    C11   A    
C15   C24   S    
C13   C15   A    
C14   C16   A    
Cu1   O12   S    
C36   N3    A    
C15   C17   A    
C6    C17   A    
Cu2   O14   S    
C17   C28   S    
C7    H12   S    
C3    C5    S    
C10   C13   A    
C29   O5    D    
C23   C32   A    
Cu1   O1    S    
C25   H14   S    
C26   H13   S    
C22   H4    S    
C4    O13   A    
Cu2   O10   S    
C12   O11   A    
C34   C36   A    
C18   C33   A    
C20   H9    S    
C30   O8    S    
C2    H2    S    
C20   C21   S    
C35   N3    A    
C8    C10   A    
C3    O14   A    
C1    O10   A    
C2    N4    A    
C19   C30   S    
C20   H8    S    
C27   O2    S    
C13   N2    S    
