data_mof_unit_59220.cif
_audit_creation_date              2012-12-10T18:29:40-0500
_audit_creation_method            fapswitch 2.2
_symmetry_space_group_name_H-M    P1
_symmetry_Int_Tables_number       1
_space_group_crystal_system       triclinic
_cell_length_a                    11.548724
_cell_length_b                    15.0228
_cell_length_c                    15.526047
_cell_angle_alpha                 81.475525
_cell_angle_beta                  89.823329
_cell_angle_gamma                 104.659262
_cell_volume                      2574.88341463

loop_
_atom_site_label
_atom_site_type_symbol
_atom_type_description
_atom_site_fract_x
_atom_site_fract_y
_atom_site_fract_z
_atom_type_partial_charge
C1    C     C_R   0.482014 0.441130 0.661682 0.874314
C2    C     C_R   0.621564 0.666718 0.978882 -0.199018
C3    C     C_R   0.678571 0.841537 0.635655 -0.315306
C4    C     C_R   0.326813 0.160011 0.360665 -0.316660
C5    C     C_R   0.647930 0.752732 0.613751 0.031304
C6    C     C_R   0.355202 0.248156 0.384097 0.019325
C7    C     C_R   0.511023 0.793919 0.511273 -0.088686
C8    C     C_R   0.487665 0.205693 0.489672 -0.035404
C9    C     C_R   0.539100 0.885802 0.529568 -0.001560
C10   C     C_R   0.463550 0.114959 0.468636 -0.002972
C11   C     C_R   0.624594 0.908554 0.593582 0.179336
C12   C     C_R   0.517175 0.559038 0.338212 0.915648
C13   C     C_R   0.380534 0.092924 0.402917 0.183540
C14   C     C_R   0.485933 0.955017 0.486895 0.079964
C15   C     C_R   0.518067 0.046127 0.510374 0.080542
C16   C     C_R   0.717950 0.501040 0.500425 0.907303
C17   C     C_R   0.282005 0.498787 0.499949 0.869945
C18   C     C_R   0.604000 0.065555 0.574327 -0.226635
C19   C     C_R   0.402494 0.936322 0.421224 -0.242088
C20   C     C_R   0.656018 0.997875 0.614929 -0.206598
C21   C     C_R   0.351486 0.004294 0.379941 -0.206181
C22   C     C_1   0.839103 0.502428 0.501548 -0.166303
C23   C     C_R   0.394747 0.357766 0.931208 0.079584
C24   C     C_1   0.160641 0.496679 0.500250 -0.184070
C25   C     C_1   0.940860 0.500784 0.501665 0.007430
C26   C     C_1   0.058723 0.497813 0.500986 0.002566
C27   C     C_R   0.460484 0.403810 0.754145 -0.219226
C28   C     C_R   0.532248 0.597114 0.245473 -0.234280
C29   C     C_R   0.340866 0.298104 0.873272 -0.288710
C30   C     C_R   0.646572 0.703644 0.124568 -0.286147
C31   C     C_R   0.365529 0.324975 0.783826 0.478699
C32   C     C_R   0.619913 0.680040 0.213964 0.474364
C33   C     C_R   0.526285 0.455157 0.813902 -0.117747
C34   C     C_R   0.593527 0.642466 0.067791 0.085438
C35   C     C_R   0.466131 0.544055 0.186939 -0.119203
C36   C     C_R   0.479626 0.442731 0.899850 0.041180
C37   C     C_R   0.510000 0.556938 0.100096 0.047685
C38   C     C_1   0.344946 0.490068 0.213698 0.165227
C39   C     C_1   0.648952 0.507516 0.789522 0.176579
C40   C     C_3   0.630654 0.802612 0.288451 0.135114
C41   C     C_3   0.683829 0.895556 0.229613 -0.399631
C42   C     C_3   0.635846 0.973330 0.257180 -0.927489
C43   C     C_3   0.208790 0.309973 0.692128 0.129915
C44   C     C_3   0.090941 0.265727 0.745118 -0.390102
C45   C     C_R   0.512926 0.511441 0.955202 0.084613
C46   C     C_3   0.988084 0.301068 0.703566 -0.932169
C47   C     C_R   0.476086 0.488044 0.044733 0.084809
C48   C     C_R   0.412625 0.395252 0.076653 -0.200040
C49   C     C_R   0.575918 0.604088 0.922822 -0.202305
C50   C     C_R   0.366386 0.333061 0.020087 -0.200409
H1    H     H_    0.309853 0.264923 0.046155 0.145425
H2    H     H_    0.288373 0.987145 0.329626 0.145397
H3    H     H_    0.547557 0.229308 0.539168 0.132819
H4    H     H_    0.447262 0.769141 0.464433 0.126407
H5    H     H_    0.314476 0.300920 0.352169 0.150668
H6    H     H_    0.689500 0.700185 0.645067 0.148654
H7    H     H_    0.744115 0.857798 0.684589 0.146210
H8    H     H_    0.263499 0.144404 0.310194 0.146085
H9    H     H_    0.648660 0.812691 0.356990 0.179620
H10   H     H_    0.531066 0.781879 0.284171 0.110305
H11   H     H_    0.783001 0.914242 0.233062 0.240361
H12   H     H_    0.677311 0.735004 0.952336 0.145381
H13   H     H_    0.660561 0.889228 0.161088 0.213729
H14   H     H_    0.537038 0.957092 0.252037 0.266603
H15   H     H_    0.676467 0.039799 0.213785 0.268993
H16   H     H_    0.658889 0.982256 0.325338 0.270880
H17   H     H_    0.196269 0.294516 0.624483 0.184810
H18   H     H_    0.230542 0.387399 0.687302 0.097730
H19   H     H_    0.069474 0.188785 0.748979 0.235119
H20   H     H_    0.100269 0.282901 0.812337 0.219897
H21   H     H_    0.006865 0.377792 0.700352 0.271593
H22   H     H_    0.903963 0.267946 0.743316 0.266591
H23   H     H_    0.634411 0.132811 0.594485 0.143024
H24   H     H_    0.975300 0.283317 0.636683 0.264593
H25   H     H_    0.375053 0.869950 0.398978 0.139512
H26   H     H_    0.274021 0.233938 0.896702 0.156720
H27   H     H_    0.713968 0.767110 0.100108 0.151976
H28   H     H_    0.397616 0.368841 0.145297 0.159845
H29   H     H_    0.590918 0.629928 0.854020 0.159804
H30   H     H_    0.721653 0.015753 0.663512 0.146347
N1    N     N_R   0.566020 0.731700 0.552730 -0.102420
N2    N     N_R   0.433980 0.268300 0.447270 -0.103566
N3    N     N_1   0.248241 0.447548 0.235181 -0.217739
N4    N     N_1   0.746741 0.548801 0.769941 -0.220069
O1    O     O_R   0.466720 0.383110 0.605620 -0.584237
O2    O     O_3   0.301185 0.270536 0.726813 -0.631581
O3    O     O_R   0.533280 0.616890 0.394380 -0.604800
O4    O     O_R   0.509090 0.531900 0.639510 -0.614983
O5    O     O_R   0.490910 0.468100 0.360490 -0.609636
O6    O     O_R   0.644370 0.425610 0.483050 -0.616586
O7    O     O_R   0.355630 0.574390 0.516950 -0.611207
O8    O     O_R   0.686740 0.574390 0.516930 -0.602142
O9    O     O_R   0.313260 0.425610 0.483070 -0.623019
O10   O     O_3   0.687491 0.733890 0.270028 -0.631547
Zn1   Zn    Zn3+2 0.471710 0.400660 0.477370 0.959268
Zn2   Zn    Zn3+2 0.528290 0.599340 0.522630 0.953683

loop_
_geom_bond_atom_site_label_1
_geom_bond_atom_site_label_2
_ccdc_geom_bond_type
C15   C18   A    
C32   O10   S    
O4    Zn2   S    
C16   O6    A    
C6    N2    A    
C38   N3    T    
C34   C37   A    
C41   C42   S    
C5    H6    S    
C17   O7    A    
C41   H11   S    
C6    H5    S    
C43   C44   S    
O6    Zn1   S    
C29   H26   S    
C27   C33   A    
C33   C39   S    
C12   C28   S    
C8    N2    A    
C23   C29   A    
C35   C37   A    
C24   C26   T    
C39   N4    T    
C10   C15   A    
O8    Zn2   S    
C33   C36   A    
C48   H28   S    
C4    C13   A    
O7    Zn2   S    
C30   H27   S    
C28   C35   A    
C43   H18   S    
C22   C25   T    
C42   H15   S    
C44   H20   S    
C37   C47   A    
C46   H22   S    
C1    C27   S    
C2    C34   A    
C1    O4    A    
C48   C50   A    
O9    Zn1   S    
C40   H9    S    
C44   C46   S    
C45   C47   A    
C1    O1    A    
C11   C20   A    
C17   C24   S    
C20   H30   S    
C27   C31   A    
C12   O5    A    
C28   C32   A    
C35   C38   S    
C4    C6    A    
N1    Zn2   S    
C30   C34   A    
C23   C50   A    
C25   C26   S    
C49   H29   S    
O5    Zn1   S    
C9    C14   A    
C2    C49   A    
C5    N1    A    
C47   C48   A    
C45   C49   A    
O3    Zn2   S    
C50   H1    S    
C13   C21   A    
C36   C45   A    
C9    C11   A    
C46   H21   S    
C3    H7    S    
C8    C10   A    
C40   C41   S    
C7    N1    A    
C16   O8    A    
C18   H23   S    
C17   O9    A    
C41   H13   S    
C42   H14   S    
C46   H24   S    
C42   H16   S    
C7    C9    A    
C16   C22   S    
N2    Zn1   S    
C12   O3    A    
C19   C21   A    
C43   O2    S    
C14   C19   A    
C40   O10   S    
C3    C5    A    
C10   C13   A    
C8    H3    S    
C19   H25   S    
C29   C31   A    
C30   C32   A    
O1    Zn1   S    
C18   C20   A    
C3    C11   A    
C43   H17   S    
C23   C36   A    
C4    H8    S    
C40   H10   S    
C31   O2    S    
C44   H19   S    
C14   C15   A    
C7    H4    S    
C21   H2    S    
C2    H12   S    
