data_mof_unit_16462.cif
_audit_creation_date              2012-12-10T18:00:48-0500
_audit_creation_method            fapswitch 2.2
_symmetry_space_group_name_H-M    P1
_symmetry_Int_Tables_number       1
_space_group_crystal_system       triclinic
_cell_length_a                    15.898976
_cell_length_b                    10.786879
_cell_length_c                    9.583346
_cell_angle_alpha                 89.586172
_cell_angle_beta                  88.911975
_cell_angle_gamma                 91.539213
_cell_volume                      1642.60858796

loop_
_atom_site_label
_atom_site_type_symbol
_atom_type_description
_atom_site_fract_x
_atom_site_fract_y
_atom_site_fract_z
_atom_type_partial_charge
C1    C     C_R   0.500518 0.262641 0.500141 0.880475
C2    C     C_R   0.499482 0.737358 0.499859 0.880472
C3    C     C_R   0.436996 0.934798 0.425044 0.253134
C4    C     C_R   0.563003 0.065201 0.574956 0.253130
C5    C     C_R   0.498313 0.871339 0.500521 -0.289602
C6    C     C_R   0.501687 0.128661 0.499479 -0.289601
C7    C     C_R   0.441290 0.432573 0.078571 0.046346
C8    C     C_R   0.558710 0.567426 0.921429 0.046347
C9    C     C_R   0.440496 0.431490 0.930322 0.061760
C10   C     C_R   0.559504 0.568510 0.069678 0.061760
C11   C     C_R   0.340079 0.499718 0.501103 0.803879
C12   C     C_R   0.659921 0.500282 0.498897 0.803879
C13   C     C_3   0.968944 0.389717 0.544346 -0.105402
C14   C     C_3   0.031056 0.610283 0.455654 -0.105403
C15   C     C_3   0.028138 0.410908 0.416014 -0.112012
C16   C     C_3   0.971862 0.589092 0.583986 -0.112012
C17   C     C_1   0.250710 0.499716 0.503397 -0.061322
C18   C     C_1   0.749290 0.500283 0.496603 -0.061323
C19   C     C_3   0.024995 0.478714 0.630505 -0.101529
C20   C     C_3   0.975005 0.521286 0.369495 -0.101530
C21   C     C_3   0.083914 0.499902 0.502201 0.117303
C22   C     C_3   0.916086 0.500098 0.497798 0.117303
C23   C     C_1   0.175407 0.499775 0.503676 0.169197
C24   C     C_1   0.824593 0.500225 0.496324 0.169197
C25   C     C_R   0.439867 0.064768 0.423085 0.378561
C26   C     C_R   0.560133 0.935232 0.576914 0.378563
Cu1   Cu    Cu3+1 0.500000 0.500020 0.640660 0.992267
Cu2   Cu    Cu3+1 0.500000 0.499980 0.359340 0.992265
H1    H     H_    0.395369 0.377895 0.138960 0.200371
H2    H     H_    0.604631 0.622105 0.861040 0.200371
N1    N     N_R   0.500020 0.500030 0.852070 -0.231232
N2    N     N_R   0.499980 0.499970 0.147930 -0.231232
O1    O     O_R   0.500000 0.319660 0.618740 -0.615324
O2    O     O_R   0.500000 0.680340 0.381260 -0.615329
O3    O     O_R   0.499990 0.319630 0.381170 -0.537224
O4    O     O_R   0.500010 0.680370 0.618830 -0.537221
O5    O     O_R   0.379080 0.500000 0.618760 -0.605093
O6    O     O_R   0.620920 0.500000 0.381240 -0.605093
O7    O     O_R   0.379080 0.499970 0.381190 -0.562304
O8    O     O_R   0.620920 0.500030 0.618810 -0.562303
C27   C     C_2   0.056633 0.310043 0.320732 0.381171
H3    H     H_    0.010284 0.254001 0.266282 0.090918
O9    O     O_2   0.131338 0.290473 0.303831 -0.491368
C28   C     C_2   0.943367 0.689957 0.679268 0.381171
H4    H     H_    0.989715 0.745999 0.733718 0.090918
O10   O     O_2   0.868662 0.709527 0.696169 -0.491370
C29   C     C_2   0.937145 0.264782 0.594512 0.370332
H5    H     H_    0.981650 0.195264 0.624020 0.096145
O11   O     O_2   0.861802 0.240598 0.602426 -0.508604
C30   C     C_2   0.062855 0.735218 0.405488 0.370333
H6    H     H_    0.018350 0.804736 0.375980 0.096145
O12   O     O_2   0.138198 0.759402 0.397574 -0.508601
C31   C     C_2   0.950100 0.545191 0.221784 0.365809
H7    H     H_    0.998418 0.558108 0.141185 0.091067
O13   O     O_2   0.876095 0.550155 0.191414 -0.492142
C32   C     C_2   0.049900 0.454809 0.778216 0.365809
H8    H     H_    0.001582 0.441892 0.858815 0.091067
O14   O     O_2   0.123905 0.449845 0.808585 -0.492144
O15   O     O_3   0.381149 0.132866 0.352540 -0.690290
H9    H     H_    0.342842 0.077137 0.300341 0.397526
O16   O     O_3   0.618851 0.867134 0.647459 -0.690290
H10   H     H_    0.657161 0.922864 0.699651 0.397524
O17   O     O_3   0.372823 0.873570 0.355526 -0.685143
H11   H     H_    0.363051 0.789670 0.395947 0.342091
O18   O     O_3   0.627174 0.126430 0.644478 -0.685141
H12   H     H_    0.636950 0.210328 0.604051 0.342089
C33   C     C_2   0.374278 0.353081 0.865029 0.425116
H13   H     H_    0.380748 0.319101 0.760502 0.130647
O19   O     O_2   0.310076 0.322918 0.930178 -0.505521
C34   C     C_2   0.625723 0.646918 0.134971 0.425116
H14   H     H_    0.619252 0.680900 0.239497 0.130646
O20   O     O_2   0.689925 0.677079 0.069823 -0.505520

loop_
_geom_bond_atom_site_label_1
_geom_bond_atom_site_label_2
_ccdc_geom_bond_type
C19   C32   S    
C12   O8    A    
C30   O12   D    
C16   C22   S    
C9    C33   S    
C34   H14   S    
C7    H1    S    
C14   C16   S    
C3    O17   S    
Cu1   O4    S    
C27   H3    S    
C16   C28   S    
C4    C26   A    
C29   H5    S    
Cu2   O6    S    
Cu1   O8    S    
C8    H2    S    
C2    O2    A    
C13   C15   S    
C30   H6    S    
C1    O1    A    
O15   H9    S    
C29   O11   D    
C17   C23   T    
C31   H7    S    
Cu1   O1    S    
C11   O7    A    
C27   O9    D    
C20   C31   S    
C1    O3    A    
C14   C30   S    
C15   C21   S    
Cu1   O5    S    
C16   C19   S    
C18   C24   T    
C10   C34   S    
C14   C21   S    
C4    C6    A    
C13   C29   S    
C19   C21   S    
C26   O16   S    
C20   C22   S    
C13   C22   S    
C7    C9    A    
C31   O13   D    
C21   C23   S    
C12   O6    A    
C15   C20   S    
C22   C24   S    
C6    C25   A    
O16   H10   S    
C13   C19   S    
Cu2   O2    S    
C33   H13   S    
C2    C5    S    
C10   N2    A    
Cu2   N2    S    
C3    C25   A    
C32   H8    S    
C15   C27   S    
C14   C20   S    
C8    C10   A    
O18   H12   S    
C2    O4    A    
Cu1   Cu2   S    
C11   O5    A    
C9    N1    A    
C4    O18   S    
C11   C17   S    
C34   O20   D    
C7    N2    A    
C25   O15   S    
Cu2   O7    S    
C3    C5    A    
C8    N1    A    
Cu1   N1    S    
C28   O10   D    
C12   C18   S    
C28   H4    S    
C5    C26   A    
Cu2   O3    S    
C32   O14   D    
O17   H11   S    
C33   O19   D    
C1    C6    S    
