data_mof_unit_24090.cif
_audit_creation_date              2012-12-11T16:09:03-0500
_audit_creation_method            fapswitch 2.2
_symmetry_space_group_name_H-M    P1
_symmetry_Int_Tables_number       1
_space_group_crystal_system       triclinic
_cell_length_a                    12.976364
_cell_length_b                    13.277755
_cell_length_c                    27.715546
_cell_angle_alpha                 95.003012
_cell_angle_beta                  90.061136
_cell_angle_gamma                 119.315903
_cell_volume                      4142.61583145

loop_
_atom_site_label
_atom_site_type_symbol
_atom_type_description
_atom_site_fract_x
_atom_site_fract_y
_atom_site_fract_z
_atom_type_partial_charge
C1    C     C_R   0.627926 0.895206 0.427471 0.547397
C2    C     C_R   0.190509 0.752222 0.297575 0.008389
C3    C     C_R   0.177528 0.747521 0.197073 0.009849
C4    C     C_R   0.600982 0.221755 0.440483 0.545517
C5    C     C_R   0.191917 0.662844 0.218101 -0.131650
C6    C     C_R   0.196379 0.664072 0.268190 -0.133849
C7    C     C_R   0.161454 0.739785 0.147233 -0.130186
C8    C     C_R   0.128078 0.812776 0.126555 -0.006209
C9    C     C_R   0.197126 0.938729 0.356812 -0.137324
C10   C     C_R   0.178285 0.931222 0.306583 0.010882
C11   C     C_R   0.179703 0.839954 0.276866 0.060547
C12   C     C_R   0.581023 0.255215 0.219822 -0.104726
C13   C     C_R   0.163346 0.015588 0.285285 -0.134123
C14   C     C_R   0.148828 0.008794 0.234895 -0.133020
C15   C     C_R   0.152299 0.919357 0.205240 0.010296
C16   C     C_R   0.269521 0.876090 0.425451 0.546342
C17   C     C_R   0.170827 0.836296 0.226379 0.059730
C18   C     C_R   0.130327 0.906761 0.155104 -0.136294
C19   C     C_R   0.213685 0.853977 0.376996 -0.004394
C20   C     C_R   0.753625 0.935761 0.357797 -0.129294
C21   C     C_R   0.759350 0.926289 0.307854 0.012606
C22   C     C_R   0.762124 0.915765 0.207139 0.011936
C23   C     C_R   0.569682 0.239399 0.269152 -0.102862
C24   C     C_R   0.854120 0.009363 0.235452 -0.127032
C25   C     C_R   0.853679 0.013677 0.285660 -0.126168
C26   C     C_R   0.766363 0.907857 0.157220 -0.126972
C27   C     C_R   0.685309 0.805927 0.128945 -0.005647
C28   C     C_R   0.627337 0.898503 0.564843 0.547509
C29   C     C_R   0.561961 0.759584 0.352099 -0.133242
C30   C     C_R   0.568917 0.745852 0.301898 0.014409
C31   C     C_R   0.665778 0.832136 0.279615 0.062137
C32   C     C_R   0.478000 0.651289 0.273330 -0.127038
C33   C     C_R   0.483229 0.642272 0.222872 -0.126911
C34   C     C_R   0.663428 0.311742 0.302777 0.035972
C35   C     C_R   0.577979 0.729194 0.200433 0.014639
C36   C     C_R   0.668291 0.825767 0.229043 0.062355
C37   C     C_R   0.587827 0.718975 0.150203 -0.135773
C38   C     C_R   0.651337 0.858031 0.379629 -0.005108
C39   C     C_R   0.742708 0.305244 0.651238 -0.135526
C40   C     C_R   0.602957 0.227354 0.578426 0.544508
C41   C     C_R   0.757324 0.329216 0.701726 -0.040221
C42   C     C_R   0.775682 0.359162 0.803755 0.006750
C43   C     C_R   0.870820 0.363988 0.777250 0.273926
C44   C     C_R   0.858905 0.344528 0.726526 -0.106993
C45   C     C_R   0.686462 0.343134 0.203770 0.035480
C46   C     C_R   0.782906 0.376075 0.854541 -0.125940
C47   C     C_R   0.689497 0.377227 0.879676 -0.018050
C48   C     C_R   0.554836 0.304077 0.653429 -0.126720
C49   C     C_R   0.564588 0.320567 0.703543 0.018013
C50   C     C_R   0.665487 0.331774 0.728012 0.043960
C51   C     C_R   0.471192 0.318490 0.729455 -0.130812
C52   C     C_R   0.271676 0.879450 0.563402 0.546287
C53   C     C_R   0.476247 0.324675 0.779691 -0.129140
C54   C     C_R   0.576348 0.336699 0.804418 0.011769
C55   C     C_R   0.672630 0.342369 0.778746 0.015283
C56   C     C_1   0.694916 0.366496 0.153716 -0.058057
C57   C     C_R   0.583785 0.349424 0.854579 -0.129758
C58   C     C_R   0.638660 0.287125 0.627376 -0.001351
C59   C     C_1   0.222628 0.863327 0.610247 -0.015196
C60   C     C_R   0.267630 0.919387 0.736680 -0.106278
C61   C     C_R   0.251445 0.909536 0.786265 -0.107791
C62   C     C_R   0.046893 0.761097 0.768119 -0.124894
C63   C     C_R   0.063146 0.770720 0.718521 -0.117293
C64   C     C_1   0.632410 0.267458 0.394419 -0.014578
C65   C     C_R   0.173814 0.849472 0.702697 0.032208
C66   C     C_R   0.141266 0.829712 0.802055 0.027234
C67   C     C_1   0.650282 0.292747 0.353322 -0.058644
C68   C     C_1   0.123949 0.815596 0.852798 -0.073207
C69   C     C_1   0.194842 0.855143 0.651796 -0.062410
C70   C     C_1   0.100417 0.797447 0.894306 -0.023922
C71   C     C_1   0.647682 0.859485 0.608787 -0.015393
C72   C     C_R   0.786356 0.845298 0.717599 -0.103157
C73   C     C_R   0.798583 0.830505 0.766265 -0.105237
C74   C     C_R   0.585333 0.732106 0.771409 -0.102891
C75   C     C_R   0.573098 0.747083 0.722773 -0.105966
C76   C     C_R   0.769357 0.399052 0.286723 -0.106182
C77   C     C_R   0.673597 0.804772 0.695859 0.036950
C78   C     C_1   0.703350 0.394289 0.113003 -0.013845
C79   C     C_R   0.698202 0.775197 0.793469 0.038051
C80   C     C_1   0.711746 0.766361 0.844303 -0.057939
C81   C     C_1   0.660971 0.831933 0.647707 -0.057996
C82   C     C_1   0.726159 0.760662 0.886799 -0.011387
C83   C     C_R   0.065550 0.773232 0.079002 0.549870
C84   C     C_R   0.716977 0.441400 0.067286 0.549709
C85   C     C_R   0.720501 0.782875 0.081032 0.558171
C86   C     C_R   0.056493 0.766205 0.941228 0.537320
C87   C     C_R   0.710267 0.433712 0.929097 0.536191
C88   C     C_R   0.780708 0.414892 0.237325 -0.104341
C89   C     C_R   0.201399 0.756924 0.347430 -0.130201
C90   C     C_R   0.748712 0.754318 0.936893 0.563324
C91   C     C_3   0.052662 0.499800 0.811345 -0.013144
C92   C     C_3   0.137773 0.547150 0.770727 -0.385123
Cr1   Cr    Cr6+3 0.416430 0.829200 0.492370 1.020218
Cr2   Cr    Cr6+3 0.674630 0.087020 0.504170 1.021821
Cr3   Cr    Cr6+3 0.408920 0.083740 0.503490 1.021008
Cr4   Cr    Cr6+3 0.914010 0.832750 0.013970 1.020321
Cr5   Cr    Cr6+3 0.922310 0.578600 0.003000 1.016365
Cr6   Cr    Cr6+3 0.656280 0.574630 0.003870 1.021970
H1    H     H_    0.134524 0.073090 0.219143 0.101856
H2    H     H_    0.862258 0.484063 0.225388 0.119359
H3    H     H_    0.483440 0.698507 0.369079 0.122531
H4    H     H_    0.863698 0.395992 0.874368 0.164217
H5    H     H_    0.808442 0.293904 0.631049 0.125762
H6    H     H_    0.510637 0.348467 0.873847 0.137668
H7    H     H_    0.402674 0.321755 0.799235 0.113469
H8    H     H_    0.475168 0.292516 0.635242 0.135418
H9    H     H_    0.353803 0.980277 0.724781 0.120824
H10   H     H_    0.507138 0.200078 0.194364 0.114654
H11   H     H_    0.324896 0.963036 0.812133 0.117875
H12   H     H_    0.161958 0.086101 0.307569 0.104747
H13   H     H_    0.961178 0.699047 0.779983 0.108743
H14   H     H_    0.990231 0.715804 0.692624 0.114492
H15   H     H_    0.864779 0.890936 0.697366 0.116406
H16   H     H_    0.886317 0.864421 0.782966 0.121725
H17   H     H_    0.507079 0.689231 0.792036 0.108819
H18   H     H_    0.487538 0.171107 0.281119 0.120351
H19   H     H_    0.162426 0.668664 0.125170 0.133147
H20   H     H_    0.212078 0.689873 0.362673 0.131405
H21   H     H_    0.196464 0.593983 0.195831 0.104464
H22   H     H_    0.206050 0.597099 0.283960 0.099720
H23   H     H_    0.205503 0.013198 0.379642 0.123201
H24   H     H_    0.106197 0.964382 0.139027 0.124141
H25   H     H_    0.842636 0.455042 0.312302 0.112065
H26   H     H_    0.823857 0.010772 0.379031 0.132197
H27   H     H_    0.105609 0.510956 0.844883 0.160020
H28   H     H_    0.008323 0.552885 0.819151 0.122097
H29   H     H_    0.089812 0.547458 0.737617 0.144614
H30   H     H_    0.207641 0.637652 0.782211 0.119274
H31   H     H_    0.180314 0.493106 0.762294 0.158445
H32   H     H_    0.929628 0.342190 0.706585 0.124978
H33   H     H_    0.392993 0.309045 0.710830 0.110159
H34   H     H_    0.840637 0.976741 0.141009 0.132690
H35   H     H_    0.485491 0.716378 0.706534 0.110120
H36   H     H_    0.927324 0.078097 0.218764 0.099946
H37   H     H_    0.925582 0.086590 0.307101 0.102859
H38   H     H_    0.524368 0.640808 0.128318 0.124476
H39   H     H_    0.413185 0.567730 0.201437 0.103739
H40   H     H_    0.403043 0.584483 0.289997 0.099891
O1    O     O_R   0.296680 0.802170 0.437540 -0.524576
O2    O     O_R   0.637200 0.461990 0.052510 -0.508738
O3    O     O_R   0.664790 0.681920 0.057970 -0.494736
O4    O     O_R   0.525380 0.838530 0.443500 -0.503190
O5    O     O_R   0.815840 0.852920 0.961840 -0.499981
O6    O     O_R   0.012100 0.822630 0.963670 -0.508572
O7    O     O_R   0.037010 0.668460 0.953040 -0.514899
O8    O     O_R   0.813390 0.478970 0.949660 -0.506812
O9    O     O_R   0.632250 0.456930 0.945520 -0.525018
O10   O     O_R   0.660200 0.677230 0.958780 -0.492548
O11   O     O_3   0.830870 0.661990 0.006950 -0.265269
O12   O     O_R   0.662610 0.183990 0.557860 -0.501073
O13   O     O_R   0.702130 0.995190 0.446810 -0.519798
O14   O     O_R   0.661770 0.181390 0.458760 -0.494538
O15   O     O_R   0.499820 0.198480 0.455280 -0.509964
O16   O     O_R   0.311660 0.976250 0.449080 -0.500136
O17   O     O_R   0.297580 0.804960 0.544440 -0.508203
O18   O     O_R   0.526220 0.841130 0.542590 -0.495235
O19   O     O_R   0.703030 0.997990 0.553710 -0.509240
O20   O     O_3   0.972755 0.379605 0.800538 -0.563951
O21   O     O_R   0.500730 0.201280 0.562180 -0.521203
O22   O     O_R   0.312500 0.978850 0.548170 -0.494773
O23   O     O_3   0.499990 0.999990 0.500010 -0.242148
O24   O     O_R   0.820790 0.857990 0.068830 -0.519361
O25   O     O_R   0.016700 0.827330 0.062850 -0.501816
O26   O     O_R   0.041970 0.673520 0.060040 -0.516442
O27   O     O_R   0.817980 0.483660 0.048840 -0.490154

loop_
_geom_bond_atom_site_label_1
_geom_bond_atom_site_label_2
_ccdc_geom_bond_type
C20   C38   A    
C52   O22   A    
C15   C18   A    
C66   C68   S    
C83   O26   A    
C63   C65   A    
C87   O8    A    
C8    C83   S    
Cr5   O8    S    
C7    H19   S    
C40   O21   A    
C35   C36   A    
C43   O20   S    
C61   H11   S    
C86   O6    A    
C7    C8    A    
C39   C41   A    
C53   C54   A    
C52   O17   A    
C46   H4    S    
C12   C23   A    
C26   C27   A    
C72   C77   A    
C87   O9    A    
C5    H21   S    
Cr1   O1    S    
C91   H28   S    
C3    C7    A    
Cr3   O23   S    
C30   C31   A    
Cr5   O27   S    
Cr4   O6    S    
Cr6   O9    S    
Cr4   O11   S    
Cr2   O14   S    
C56   C78   T    
C42   C46   A    
C63   H14   S    
C27   C85   S    
C91   O20   S    
C90   O10   A    
C84   O27   A    
C23   H18   S    
C46   C47   A    
C61   C66   A    
C9    C19   A    
C48   H8    S    
C62   H13   S    
C45   C56   S    
C33   H39   S    
C49   C51   A    
C29   C38   A    
C9    H23   S    
C1    O13   A    
C1    O4    A    
C77   C81   S    
C29   C30   A    
C9    C10   A    
C76   C88   A    
C90   O5    A    
Cr5   O26   S    
C4    O15   A    
C13   C14   A    
C85   O24   A    
C2    C6    A    
C2    C11   A    
C92   H30   S    
C6    H22   S    
C4    O14   A    
C40   C58   S    
C74   C75   A    
C62   C66   A    
C40   O12   A    
Cr3   O22   S    
C64   C67   T    
Cr1   O17   S    
C45   C88   A    
C24   C25   A    
C80   C82   T    
C21   C25   A    
C85   O3    A    
C91   C92   S    
C12   H10   S    
C51   H33   S    
C72   C73   A    
Cr2   O13   S    
C39   C58   A    
C72   H15   S    
C8    C18   A    
C73   H16   S    
Cr6   O2    S    
C60   C61   A    
C51   C53   A    
C47   C87   S    
C2    C89   A    
C43   C44   A    
C32   H40   S    
C62   C63   A    
C19   C89   A    
C52   C59   S    
C53   H7    S    
C42   C55   A    
C47   C57   A    
C21   C31   A    
Cr1   O23   S    
C23   C34   A    
C73   C79   A    
C37   H38   S    
C29   H3    S    
C89   H20   S    
C39   H5    S    
C75   C77   A    
Cr2   O23   S    
C88   H2    S    
C60   H9    S    
C1    C38   S    
C59   C69   T    
C48   C49   A    
C18   H24   S    
C60   C65   A    
Cr2   O19   S    
C74   C79   A    
Cr6   O3    S    
C16   O16   A    
C41   C44   A    
Cr3   O21   S    
C16   O1    A    
C42   C43   A    
C70   C86   S    
C86   O7    A    
C41   C50   A    
C26   H34   S    
C24   H36   S    
C15   C17   A    
C57   H6    S    
C83   O25   A    
C54   C55   A    
C11   C17   A    
C91   H27   S    
C35   C37   A    
C14   C15   A    
C76   H25   S    
Cr5   O7    S    
Cr1   O18   S    
C13   H12   S    
C12   C45   A    
C3    C5    A    
C10   C13   A    
C34   C67   S    
C75   H35   S    
C48   C58   A    
Cr2   O12   S    
C22   C36   A    
C4    C64   S    
C50   C55   A    
C82   C90   S    
Cr4   O25   S    
Cr3   O16   S    
C32   C33   A    
C92   H31   S    
Cr4   O5    S    
C30   C32   A    
C14   H1    S    
C5    C6    A    
Cr6   O10   S    
C27   C37   A    
C16   C19   S    
C65   C69   S    
C74   H17   S    
C28   O19   A    
C33   C35   A    
Cr4   O24   S    
C3    C17   A    
C22   C24   A    
C25   H37   S    
C20   H26   S    
C10   C11   A    
C79   C80   S    
C28   C71   S    
C78   C84   S    
C20   C21   A    
C84   O2    A    
C68   C70   T    
C49   C50   A    
C22   C26   A    
C28   O18   A    
Cr5   O11   S    
C31   C36   A    
Cr3   O15   S    
C44   H32   S    
C92   H29   S    
C54   C57   A    
Cr1   O4    S    
C34   C76   A    
C71   C81   T    
Cr6   O11   S    
