data_mof_unit_38021.cif
_audit_creation_date              2012-12-10T18:04:00-0500
_audit_creation_method            fapswitch 2.2
_symmetry_space_group_name_H-M    P1
_symmetry_Int_Tables_number       1
_space_group_crystal_system       triclinic
_cell_length_a                    10.855339
_cell_length_b                    9.557466
_cell_length_c                    10.816713
_cell_angle_alpha                 90.073414
_cell_angle_beta                  91.490609
_cell_angle_gamma                 89.3297
_cell_volume                      1121.7718608

loop_
_atom_site_label
_atom_site_type_symbol
_atom_type_description
_atom_site_fract_x
_atom_site_fract_y
_atom_site_fract_z
_atom_type_partial_charge
C1    C     C_R   0.261986 0.501633 0.504393 0.789098
C2    C     C_R   0.737342 0.499691 0.493056 0.790837
C3    C     C_R   0.418570 0.073115 0.424490 0.085399
C4    C     C_R   0.582000 0.071256 0.574925 0.092197
C5    C     C_R   0.421842 0.924704 0.423971 -0.032509
C6    C     C_R   0.579482 0.922814 0.574729 -0.022800
C7    C     C_R   0.501585 0.499850 0.262418 0.784245
C8    C     C_R   0.502240 0.500000 0.737728 0.793760
C9    C     C_R   0.512584 0.624944 0.064270 0.118053
C10   C     C_R   0.513005 0.625178 0.937126 0.123602
C11   C     C_R   0.513563 0.499332 0.129693 -0.098903
C12   C     C_R   0.514102 0.499612 0.871228 -0.100150
C13   C     C_R   0.532036 0.373287 0.065234 -0.206725
C14   C     C_R   0.532268 0.373416 0.936334 -0.205622
C15   C     C_3   0.424915 0.746207 0.928803 -0.463851
C16   C     C_3   0.425232 0.746502 0.069144 -0.447079
C17   C     C_R   0.064812 0.379331 0.514927 -0.196218
C18   C     C_R   0.937574 0.378000 0.511704 -0.208460
C19   C     C_R   0.871021 0.500688 0.484155 -0.071523
C20   C     C_R   0.127190 0.506362 0.506675 -0.082716
C21   C     C_R   0.934177 0.625260 0.456149 0.080998
C22   C     C_R   0.058636 0.633935 0.493890 0.062467
Cu1   Cu    Cu3+1 0.500000 0.640660 0.500000 0.927810
Cu2   Cu    Cu3+1 0.500000 0.359340 0.500000 0.915046
H1    H     H_    0.540402 0.274261 0.113500 0.167321
H2    H     H_    0.540733 0.274430 0.888272 0.165522
H3    H     H_    0.467523 0.840722 0.889024 0.207131
H4    H     H_    0.334877 0.718590 0.107947 0.201682
H5    H     H_    0.334563 0.716690 0.886596 0.197313
H6    H     H_    0.468981 0.840735 0.110601 0.202013
H7    H     H_    0.114118 0.281159 0.528907 0.176845
H8    H     H_    0.891532 0.280216 0.528713 0.180922
H9    H     H_    0.361511 0.866202 0.362386 0.165641
H10   H     H_    0.641781 0.862731 0.634301 0.177826
N1    N     N_R   0.500000 0.852070 0.500000 -0.206099
N2    N     N_R   0.500000 0.147940 0.500000 -0.242884
O1    O     O_R   0.319640 0.618740 0.499990 -0.583110
O2    O     O_R   0.680360 0.618740 0.500010 -0.581909
O3    O     O_R   0.319620 0.381170 0.499990 -0.605211
O4    O     O_R   0.680380 0.381170 0.500010 -0.610151
O5    O     O_R   0.499990 0.618810 0.319660 -0.576303
O6    O     O_R   0.500010 0.618810 0.680340 -0.575567
O7    O     O_R   0.499960 0.381240 0.319650 -0.613877
O8    O     O_R   0.500040 0.381240 0.680350 -0.611242
C23   C     C_3   0.875700 0.742074 0.376533 -0.404552
C24   C     C_3   0.825331 0.687090 0.251767 -0.327834
C25   C     C_3   0.771041 0.806056 0.172744 -0.805895
H11   H     H_    0.690594 0.854153 0.218761 0.254490
H12   H     H_    0.841300 0.887401 0.157620 0.258856
H13   H     H_    0.740485 0.764746 0.081209 0.244070
H14   H     H_    0.901390 0.635891 0.200973 0.217160
H15   H     H_    0.752776 0.608414 0.265065 0.218818
H16   H     H_    0.803966 0.800228 0.427386 0.229076
H17   H     H_    0.945495 0.820408 0.351818 0.199418
C26   C     C_3   0.109472 0.776693 0.532433 -0.374262
C27   C     C_3   0.149017 0.780092 0.669911 -0.328291
C28   C     C_3   0.201581 0.922533 0.705830 -0.803058
H18   H     H_    0.288172 0.941231 0.656387 0.258255
H19   H     H_    0.134150 0.007543 0.682940 0.259536
H20   H     H_    0.222039 0.925552 0.806836 0.240490
H21   H     H_    0.067481 0.759668 0.727085 0.220998
H22   H     H_    0.219129 0.698050 0.691931 0.222428
H23   H     H_    0.184181 0.808887 0.471468 0.226893
H24   H     H_    0.038033 0.860098 0.523077 0.197264
C29   C     C_2   0.324310 0.141184 0.341602 0.320808
H25   H     H_    0.326132 0.249950 0.318349 0.153612
O9    O     O_2   0.239823 0.073518 0.295914 -0.598558
C30   C     C_2   0.675873 0.137502 0.657981 0.300770
H26   H     H_    0.675449 0.247049 0.678522 0.151106
O10   O     O_2   0.758307 0.067441 0.707048 -0.594419

loop_
_geom_bond_atom_site_label_1
_geom_bond_atom_site_label_2
_ccdc_geom_bond_type
C16   H4    S    
C8    O8    A    
C26   C27   S    
C4    N2    A    
C22   C26   S    
C24   H15   S    
C26   H23   S    
Cu1   O2    S    
C11   C13   A    
C9    C10   A    
C2    O2    A    
C15   H3    S    
C25   H11   S    
Cu1   O5    S    
C1    O1    A    
C8    C12   S    
C26   H24   S    
Cu2   O3    S    
C17   C18   A    
C3    C5    A    
C23   H16   S    
C25   H12   S    
C3    C29   S    
C23   C24   S    
C14   H2    S    
C7    C11   S    
C9    C11   A    
C13   H1    S    
C28   H18   S    
Cu2   N2    S    
Cu1   O6    S    
C10   C12   A    
C3    N2    A    
Cu2   O8    S    
C5    N1    A    
C4    C6    A    
Cu2   O4    S    
C9    C16   S    
C8    O6    A    
C23   H17   S    
C15   H5    S    
C25   H13   S    
C21   C23   S    
C10   C15   S    
C7    O5    A    
C17   H7    S    
Cu1   N1    S    
C27   H22   S    
C28   H19   S    
C18   H8    S    
C20   C22   A    
Cu1   Cu2   S    
C16   H6    S    
C15   C16   S    
C2    O4    A    
C17   C20   A    
C27   C28   S    
C30   O10   D    
C29   H25   S    
C24   C25   S    
C7    O7    A    
C4    C30   S    
Cu2   O7    S    
C1    O3    A    
C27   H21   S    
C18   C19   A    
C1    C20   S    
Cu1   O1    S    
C13   C14   A    
C19   C21   A    
C2    C19   S    
C21   C22   A    
C29   O9    D    
C24   H14   S    
C6    N1    A    
C6    H10   S    
C12   C14   A    
C30   H26   S    
C28   H20   S    
C5    H9    S    
