data_mof_unit_6658.cif
_audit_creation_date              2012-12-10T18:59:18-0500
_audit_creation_method            fapswitch 2.2
_symmetry_space_group_name_H-M    P1
_symmetry_Int_Tables_number       1
_space_group_crystal_system       triclinic
_cell_length_a                    10.865955
_cell_length_b                    10.851546
_cell_length_c                    9.525441
_cell_angle_alpha                 90.273454
_cell_angle_beta                  89.367378
_cell_angle_gamma                 90.658553
_cell_volume                      1123.01293906

loop_
_atom_site_label
_atom_site_type_symbol
_atom_type_description
_atom_site_fract_x
_atom_site_fract_y
_atom_site_fract_z
_atom_type_partial_charge
C1    C     C_R   0.497497 0.262276 0.499747 0.807466
C2    C     C_R   0.058998 0.501327 0.635046 0.109831
C3    C     C_R   0.126886 0.511322 0.506666 -0.118097
C4    C     C_R   0.064221 0.509016 0.378837 -0.204870
C5    C     C_R   0.937419 0.497430 0.376866 -0.204591
C6    C     C_R   0.871258 0.477095 0.501588 -0.120909
C7    C     C_R   0.484273 0.064368 0.625655 0.133820
C8    C     C_R   0.485307 0.129190 0.499457 -0.140831
C9    C     C_R   0.469233 0.063567 0.373192 -0.184634
C10   C     C_R   0.469479 0.934914 0.373314 -0.203579
C11   C     C_R   0.485720 0.870916 0.499804 -0.105200
C12   C     C_R   0.261922 0.506995 0.501710 0.801858
C13   C     C_R   0.484687 0.937355 0.625538 0.092518
C14   C     C_3   0.570951 0.932785 0.745899 -0.502394
C15   C     C_3   0.571068 0.072405 0.746104 -0.003426
C16   C     C_R   0.605181 0.527120 0.072713 0.267352
C17   C     C_R   0.400247 0.459695 0.075385 -0.049518
C18   C     C_R   0.400499 0.459335 0.926615 -0.050312
C19   C     C_R   0.605437 0.526335 0.925191 0.271913
C20   C     C_3   0.679101 0.642688 0.918963 -0.510213
C21   C     C_3   0.677934 0.644219 0.078209 -0.501890
C22   C     C_R   0.497892 0.737829 0.500108 0.809137
C23   C     C_R   0.737232 0.489103 0.499851 0.794078
C24   C     C_R   0.108435 0.528219 0.768906 -0.170698
C25   C     C_R   0.047658 0.490198 0.891248 -0.163121
C26   C     C_R   0.936351 0.426589 0.882313 -0.148319
C27   C     C_R   0.879558 0.413385 0.752552 -0.165967
C28   C     C_R   0.935064 0.462740 0.629451 0.096959
Cu1   Cu    Cu3+1 0.499990 0.499980 0.640670 0.952344
Cu2   Cu    Cu3+1 0.500010 0.500020 0.359330 0.952726
H1    H     H_    0.113008 0.518303 0.279587 0.153791
H2    H     H_    0.661674 0.893204 0.716497 0.180428
H3    H     H_    0.661641 0.114185 0.716678 0.135233
H4    H     H_    0.319111 0.427484 0.131260 0.143620
H5    H     H_    0.320744 0.424642 0.872198 0.160208
H6    H     H_    0.772211 0.629497 0.872692 0.217076
H7    H     H_    0.626763 0.718302 0.872542 0.214119
H8    H     H_    0.770625 0.631246 0.123367 0.193721
H9    H     H_    0.624907 0.721979 0.124015 0.218608
H10   H     H_    0.191257 0.582632 0.781675 0.158559
H11   H     H_    0.088069 0.508329 0.992766 0.124747
H12   H     H_    0.891456 0.392028 0.976463 0.140883
H13   H     H_    0.793009 0.363336 0.749908 0.160264
H14   H     H_    0.891313 0.504333 0.277128 0.154331
H15   H     H_    0.462314 0.111076 0.273984 0.200591
H16   H     H_    0.462790 0.886378 0.274013 0.173871
H17   H     H_    0.525368 0.892331 0.840103 0.219608
N1    N     N_R   0.500790 0.500930 0.147930 -0.188404
N2    N     N_R   0.500790 0.500890 0.852020 -0.188024
O1    O     O_R   0.500000 0.319640 0.618810 -0.561550
O2    O     O_R   0.500010 0.319680 0.381230 -0.573737
O3    O     O_R   0.319640 0.499980 0.618820 -0.598595
O4    O     O_R   0.319650 0.500020 0.381230 -0.591904
O5    O     O_R   0.499990 0.680320 0.618770 -0.578611
O6    O     O_R   0.500000 0.680360 0.381190 -0.587177
O7    O     O_R   0.680350 0.499980 0.618770 -0.591381
O8    O     O_R   0.680360 0.500020 0.381180 -0.580878
I1    I     I_    0.486868 0.146116 0.931883 -0.450831

loop_
_geom_bond_atom_site_label_1
_geom_bond_atom_site_label_2
_ccdc_geom_bond_type
C10   H16   S    
Cu2   O2    S    
C9    H15   S    
C16   C21   S    
Cu1   O7    S    
C1    C8    S    
C11   C13   A    
Cu2   O6    S    
C19   N2    A    
C11   C22   S    
C12   O4    A    
C21   H9    S    
C17   N1    A    
Cu1   O5    S    
C10   C11   A    
C16   N1    A    
C7    C15   S    
C17   C18   A    
C22   O6    A    
C23   O7    A    
C22   O5    A    
Cu1   N2    S    
C13   C14   S    
C20   C21   S    
C20   H7    S    
C1    O2    A    
C26   C27   A    
C14   H17   S    
C16   C19   A    
C6    C23   S    
C18   H5    S    
Cu2   N1    S    
C12   O3    A    
C5    H14   S    
C1    O1    A    
C2    C3    A    
Cu1   O1    S    
C2    C24   A    
C5    C6    A    
C15   I1    S    
C4    H1    S    
C7    C8    A    
C17   H4    S    
Cu1   Cu2   S    
C3    C4    A    
C20   H6    S    
Cu2   O8    S    
C27   H13   S    
C7    C13   A    
C24   C25   A    
C26   H12   S    
Cu2   O4    S    
C9    C10   A    
C25   H11   S    
C27   C28   A    
C23   O8    A    
C14   C15   S    
C4    C5    A    
C2    C28   A    
C3    C12   S    
C24   H10   S    
C25   C26   A    
C15   H3    S    
C6    C28   A    
C21   H8    S    
C19   C20   S    
C18   N2    A    
C14   H2    S    
C8    C9    A    
Cu1   O3    S    
