data_mof_unit_26489.cif
_audit_creation_date              2013-03-05T15:49:57-0500
_audit_creation_method            fapswitch 2.2
_symmetry_space_group_name_H-M    P1
_symmetry_Int_Tables_number       1
_space_group_crystal_system       triclinic
_cell_length_a                    6.948818
_cell_length_b                    19.866029
_cell_length_c                    23.745117
_cell_angle_alpha                 93.411239
_cell_angle_beta                  91.095726
_cell_angle_gamma                 89.019989
_cell_volume                      3271.07982211

loop_
_atom_site_label
_atom_site_type_symbol
_atom_site_description
_atom_site_fract_x
_atom_site_fract_y
_atom_site_fract_z
_atom_type_partial_charge
O1    O     O_R   0.620100 0.812200 0.810870 -0.576223
O2    O     O_R   0.379900 0.187800 0.189130 -0.579129
O3    O     O_R   0.296960 0.671650 0.794750 -0.583345
O4    O     O_R   0.703040 0.328350 0.205250 -0.581104
O5    O     O_R   0.120160 0.687800 0.689130 -0.574318
O6    O     O_R   0.879840 0.312200 0.310870 -0.575926
C1    C     C_R   0.467559 0.646975 0.805021 1.087393
C2    C     C_R   0.532885 0.353055 0.195131 1.088747
O7    O     O_R   0.290810 0.810670 0.817290 -0.580969
O8    O     O_R   0.709190 0.189330 0.182710 -0.579386
O9    O     O_R   0.113980 0.827820 0.711840 -0.605316
O10   O     O_R   0.886020 0.172180 0.288160 -0.604989
C3    C     C_R   0.460155 0.830854 0.834763 0.995243
C4    C     C_R   0.539679 0.169567 0.164981 0.993764
O11   O     O_R   0.626290 0.672180 0.788160 -0.547840
O12   O     O_R   0.373710 0.327820 0.211840 -0.552232
O13   O     O_3   0.451520 0.755460 0.715370 -0.288845
O14   O     O_3   0.548480 0.244540 0.284630 -0.288458
V1    V     V_3+5 0.179200 0.748980 0.756420 1.255055
V2    V     V_3+5 0.820800 0.251020 0.243580 1.256646
O15   O     O_R   0.783880 0.828350 0.705250 -0.605187
O16   O     O_R   0.216120 0.171650 0.294750 -0.604682
C5    C     C_R   0.950473 0.852945 0.695260 0.899370
C6    C     C_R   0.049527 0.147056 0.304743 0.899982
O17   O     O_R   0.790030 0.689320 0.682700 -0.578737
O18   O     O_R   0.209970 0.310680 0.317300 -0.577163
C7    C     C_R   0.958728 0.667634 0.666331 1.051056
C8    C     C_R   0.041315 0.332447 0.333619 1.047922
V3    V     V_3+5 0.678400 0.751010 0.743570 1.256942
V4    V     V_3+5 0.321600 0.248990 0.256430 1.255408
O19   O     O_3   0.955950 0.744540 0.784620 -0.235174
O20   O     O_3   0.044050 0.255460 0.215380 -0.235751
C9    C     C_R   0.049920 0.453340 0.374074 0.334340
C10   C     C_R   0.952119 0.546608 0.626042 0.336895
C11   C     C_R   0.032606 0.383343 0.381719 -0.267261
C12   C     C_R   0.967577 0.616667 0.618298 -0.268322
C13   C     C_R   0.996965 0.361378 0.435478 -0.293459
C14   C     C_R   0.001965 0.638667 0.564475 -0.295042
C15   C     C_R   0.981420 0.407454 0.482322 0.193638
C16   C     C_R   0.018015 0.592581 0.517662 0.194337
C17   C     C_R   0.005941 0.476883 0.476015 0.022903
C18   C     C_R   0.993998 0.523137 0.523995 0.022759
C19   C     C_R   0.042202 0.500141 0.421934 -0.023040
C20   C     C_R   0.958541 0.499856 0.578117 -0.024014
C21   C     C_R   0.940472 0.384977 0.535504 -0.218349
C22   C     C_R   0.058975 0.615070 0.464488 -0.218116
C23   C     C_R   0.927073 0.430422 0.582530 -0.075208
C24   C     C_R   0.073293 0.569597 0.417511 -0.076722
H1    H     H_    0.979468 0.307939 0.440642 0.120323
H2    H     H_    0.018563 0.692136 0.559260 0.120264
H3    H     H_    0.917381 0.331914 0.540766 0.134043
H4    H     H_    0.081638 0.668155 0.459210 0.134066
H5    H     H_    0.888560 0.410404 0.622036 0.189548
H6    H     H_    0.111934 0.589639 0.378031 0.189354
C25   C     C_R   0.951441 0.914521 0.663765 -0.087417
C26   C     C_R   0.048561 0.085481 0.336239 -0.087591
C27   C     C_R   0.889516 0.034345 0.661485 -0.170007
C28   C     C_R   0.110505 0.965659 0.338521 -0.169911
C29   C     C_R   0.900706 0.976109 0.691228 -0.170013
C30   C     C_R   0.099311 0.023894 0.308777 -0.169908
C31   C     C_R   0.990341 0.911298 0.605796 -0.246813
C32   C     C_R   0.009653 0.088705 0.394207 -0.246816
C33   C     C_R   0.976685 0.969917 0.574067 0.110948
C34   C     C_R   0.023318 0.030086 0.425937 0.110827
C35   C     C_R   0.925756 0.031808 0.603431 0.179542
C36   C     C_R   0.074256 0.968195 0.396574 0.179784
C37   C     C_R   0.009356 0.969315 0.514455 0.061201
C38   C     C_R   0.990647 0.030688 0.485550 0.061216
C39   C     C_R   0.940534 0.090581 0.517247 -0.195646
C40   C     C_R   0.059475 0.909423 0.482758 -0.195712
C41   C     C_R   0.909196 0.090915 0.574799 -0.230014
C42   C     C_R   0.090819 0.909089 0.425206 -0.229970
H7    H     H_    0.870401 0.138228 0.597182 0.139765
H8    H     H_    0.129621 0.861777 0.402824 0.139628
H9    H     H_    0.973461 0.137794 0.413130 0.097391
H10   H     H_    0.026520 0.862208 0.586872 0.097327
H11   H     H_    0.131303 0.021010 0.264202 0.109667
H12   H     H_    0.868722 0.978993 0.735804 0.110072
H13   H     H_    0.849947 0.081547 0.683872 0.125041
H14   H     H_    0.150084 0.918457 0.316135 0.124093
H15   H     H_    0.923641 0.138592 0.498856 0.130022
H16   H     H_    0.076372 0.861412 0.501149 0.130017
C43   C     C_R   0.480862 0.583015 0.834200 -0.332867
C44   C     C_R   0.525643 0.416421 0.165253 -0.331796
C45   C     C_R   0.496105 0.460966 0.833780 -0.169107
C46   C     C_R   0.566762 0.537041 0.163374 -0.165192
C47   C     C_R   0.478297 0.519585 0.803762 0.390049
C48   C     C_R   0.550099 0.479782 0.194575 0.386363
C49   C     C_R   0.500245 0.585663 0.893481 -0.179620
C50   C     C_R   0.514968 0.412544 0.105877 -0.187409
C51   C     C_R   0.529618 0.526444 0.923822 0.125568
C52   C     C_R   0.546808 0.469544 0.073737 0.127452
C53   C     C_R   0.519978 0.463489 0.892877 -0.143976
C54   C     C_R   0.568882 0.532734 0.103984 -0.141215
C55   C     C_R   0.559990 0.527745 0.984013 -0.244748
C56   C     C_R   0.553146 0.466428 0.012894 -0.231612
C57   C     C_R   0.565950 0.404588 0.979547 0.457022
C58   C     C_R   0.610954 0.587520 0.016137 0.429067
C59   C     C_R   0.537206 0.403210 0.920850 0.440316
C60   C     C_R   0.599951 0.591145 0.075067 0.442713
H17   H     H_    0.479104 0.364129 0.086267 0.216379
H18   H     H_    0.485142 0.634717 0.915054 0.193630
H19   H     H_    0.490475 0.412531 0.810427 0.206687
H20   H     H_    0.585037 0.585454 0.186107 0.206647
C61   C     C_R   0.660181 0.068527 0.109557 -0.184681
C62   C     C_R   0.339420 0.932068 0.890082 -0.183000
C63   C     C_R   0.527464 0.122039 0.114489 -0.319329
C64   C     C_R   0.472324 0.878599 0.885146 -0.320351
C65   C     C_R   0.379745 0.127795 0.073031 0.347957
C66   C     C_R   0.620593 0.873092 0.926461 0.339097
C67   C     C_R   0.368940 0.079996 0.025792 -0.181912
C68   C     C_R   0.631180 0.920837 0.973727 -0.186962
C69   C     C_R   0.503864 0.025152 0.022524 -0.050659
C70   C     C_R   0.496196 0.975659 0.976992 -0.048412
C71   C     C_R   0.647149 0.019660 0.064861 0.135254
C72   C     C_R   0.352687 0.981056 0.934706 0.137094
C73   C     C_R   0.228061 0.085242 0.981896 0.632974
C74   C     C_R   0.771458 0.915409 0.017759 0.633980
C75   C     C_R   0.223773 0.035789 0.936860 -0.415541
C76   C     C_R   0.775804 0.964860 0.062771 -0.416245
H21   H     H_    0.771259 0.063807 0.141892 0.147933
H22   H     H_    0.228034 0.936644 0.857819 0.147680
H23   H     H_    0.120776 0.040642 0.902475 0.149323
H24   H     H_    0.878356 0.959883 0.097249 0.150023
N1    N     N_R   0.064232 0.476793 0.317991 0.236320
O21   O     O_R   0.171691 0.444817 0.280656 -0.385263
O22   O     O_R   0.952547 0.525568 0.302001 -0.357749
N2    N     N_R   0.942133 0.523024 0.682221 0.238691
O23   O     O_R   0.840449 0.555628 0.720629 -0.390904
O24   O     O_R   0.054055 0.473813 0.697236 -0.357867
O25   O     O_3   0.541464 0.341740 0.890132 -0.603426
C77   C     C_3   0.358960 0.312165 0.892938 -0.137195
H25   H     H_    0.243267 0.345369 0.876159 0.113902
H26   H     H_    0.326206 0.299575 0.936750 0.180596
H27   H     H_    0.359549 0.264340 0.866328 0.168900
O26   O     O_3   0.641169 0.651386 0.104854 -0.593412
C78   C     C_3   0.476035 0.693626 0.103716 -0.134512
H28   H     H_    0.350397 0.669571 0.122360 0.115686
H29   H     H_    0.439856 0.707962 0.060127 0.155444
H30   H     H_    0.506164 0.740745 0.129573 0.165142
N3    N     N_R   0.556595 0.487800 0.255508 0.265932
O27   O     O_R   0.605879 0.438143 0.286376 -0.375240
O28   O     O_R   0.518093 0.546293 0.280800 -0.355241
N4    N     N_R   0.457144 0.512893 0.742931 0.264705
O29   O     O_R   0.392147 0.562347 0.714064 -0.376709
O30   O     O_R   0.499046 0.455847 0.715725 -0.357763
O31   O     O_3   0.618845 0.344499 0.002471 -0.617680
C79   C     C_3   0.821536 0.340971 0.006842 -0.109066
H31   H     H_    0.879487 0.382843 0.035108 0.121321
H32   H     H_    0.888202 0.340943 0.964575 0.132126
H33   H     H_    0.863768 0.292955 0.025612 0.202843
O32   O     O_3   0.690427 0.641600 0.991407 -0.588586
C80   C     C_3   0.889069 0.628196 0.984407 -0.009671
H34   H     H_    0.914053 0.584183 0.954054 0.094569
H35   H     H_    0.963342 0.619887 0.025456 0.097260
H36   H     H_    0.955535 0.672590 0.966874 0.193908
N5    N     N_R   0.241081 0.181797 0.079701 0.260869
O33   O     O_R   0.293453 0.243823 0.075546 -0.429806
O34   O     O_R   0.068507 0.169609 0.096374 -0.391487
N6    N     N_R   0.759998 0.819359 0.919576 0.264138
O35   O     O_R   0.705009 0.757064 0.918680 -0.408217
O36   O     O_R   0.933969 0.832452 0.904638 -0.391651
O37   O     O_3   0.109770 0.142378 0.980521 -0.597612
C81   C     C_3   0.916016 0.125543 0.968232 -0.118606
H37   H     H_    0.821485 0.165872 0.987407 0.186992
H38   H     H_    0.874490 0.077382 0.985944 0.117675
H39   H     H_    0.888498 0.123385 0.921955 0.119546
O38   O     O_3   0.888258 0.857944 0.019463 -0.580679
C82   C     C_3   0.082428 0.874296 0.031645 -0.107792
H40   H     H_    0.109762 0.877225 0.077939 0.109171
H41   H     H_    0.125454 0.921899 0.013272 0.115861
H42   H     H_    0.175884 0.833274 0.013037 0.173549

loop_
_geom_bond_atom_site_label_1
_geom_bond_atom_site_label_2
_geom_bond_distance
_ccdc_geom_bond_type
C43   C47   1.415077 A    
C33   C35   1.419744 A    
N5    O33   1.300642 A    
C25   C29   1.394847 A    
C49   H18   1.078066 S    
O13   V3    1.703995 S    
C17   C18   1.423257 A    
C27   H13   1.083960 S    
C1    C43   1.483721 S    
C55   C56   1.434929 A    
C79   H33   1.109366 S    
C6    C26   1.471415 S    
O4    C2    1.296126 A    
C65   N5    1.433423 S    
N2    O23   1.299709 A    
C73   C75   1.408688 A    
C68   C70   1.424681 A    
C55   C58   1.419043 A    
C15   C17   1.409771 A    
C58   O32   1.382674 S    
C73   O37   1.391612 S    
C24   H6    1.080369 S    
C78   H29   1.112779 S    
O9    V1    1.983360 S    
C18   C20   1.418773 A    
C34   C38   1.437184 A    
O16   C6    1.295668 A    
C81   H37   1.109362 S    
C11   C13   1.401183 A    
C79   H32   1.113366 S    
O3    C1    1.299375 A    
N3    O28   1.301932 A    
C46   C48   1.401539 A    
C27   C29   1.391176 A    
C67   C73   1.423378 A    
C21   H3    1.083899 S    
C28   C30   1.391172 A    
C22   H4    1.083905 S    
C52   C56   1.443850 A    
C31   C33   1.425028 A    
C82   H40   1.110225 S    
C74   O38   1.391457 S    
C39   C41   1.387551 A    
O7    C3    1.302055 A    
C32   C34   1.425031 A    
C46   C54   1.408071 A    
C65   C67   1.427592 A    
C9    C11   1.420457 A    
O5    C7    1.295467 A    
C45   C53   1.407907 A    
O7    V1    1.992823 S    
C36   C42   1.393417 A    
O31   C79   1.411158 S    
C8    C11   1.481088 S    
O8    V2    1.992824 S    
C77   H25   1.114010 S    
O3    V1    1.988196 S    
O14   V4    1.703995 S    
C47   N4    1.447535 S    
C49   C51   1.425397 A    
C19   C24   1.410638 A    
C53   C59   1.405795 A    
O14   V2    2.154369 S    
C45   H19   1.082507 S    
C20   C23   1.410637 A    
C28   H14   1.083959 S    
C23   H5    1.080449 S    
C61   C63   1.396481 A    
C21   C23   1.397030 A    
V1    O19   1.707102 S    
N5    O34   1.301122 A    
C63   C65   1.416529 A    
C62   H22   1.085105 S    
C44   C50   1.408014 A    
C3    C64   1.483877 S    
C40   H16   1.076097 S    
C29   H12   1.083683 S    
O1    V3    1.993064 S    
C57   C59   1.402938 A    
C28   C36   1.403844 A    
O11   V3    1.983944 S    
C33   C37   1.437183 A    
C45   C47   1.403547 A    
C31   H10   1.077020 S    
O17   V3    1.998072 S    
C43   C49   1.409445 A    
C78   H30   1.109236 S    
C22   C24   1.396947 A    
C30   H11   1.083682 S    
C37   C38   1.437118 A    
V4    O20   2.149612 S    
C77   H27   1.109272 S    
C10   C20   1.426297 A    
C79   H31   1.113219 S    
C42   H8    1.084418 S    
O8    C4    1.302300 A    
C41   H7    1.084416 S    
C38   C39   1.411630 A    
C1    O11   1.298938 A    
C35   C41   1.393420 A    
O15   V3    1.989025 S    
C59   O25   1.384827 S    
C26   C30   1.394847 A    
C62   C72   1.398211 A    
C9    C19   1.426076 A    
C16   C22   1.400030 A    
C50   H17   1.074463 S    
C51   C53   1.414293 A    
C13   H1    1.085035 S    
C50   C52   1.425319 A    
C54   C60   1.404858 A    
C56   C57   1.423844 A    
O10   V2    1.983361 S    
C9    N1    1.442543 S    
C61   H21   1.085134 S    
C67   C69   1.424749 A    
C80   H36   1.108800 S    
C34   C36   1.419745 A    
C77   H26   1.112928 S    
C14   H2    1.085050 S    
C74   C76   1.408270 A    
N4    O30   1.302008 A    
C4    C63   1.483338 S    
O18   V4    1.998071 S    
C58   C60   1.400358 A    
O15   C5    1.295667 A    
N1    O21   1.299656 A    
C82   H42   1.109564 S    
C26   C32   1.405333 A    
C32   H9    1.077021 S    
C80   H35   1.113863 S    
O2    V4    1.993063 S    
C12   C14   1.401130 A    
C48   N3    1.446077 S    
C66   N6    1.433349 S    
C69   C70   1.418305 A    
V2    O20   1.707103 S    
O38   C82   1.413702 S    
O16   V4    1.989023 S    
C2    C44   1.480972 S    
C61   C71   1.397749 A    
C81   H39   1.110201 S    
C17   C19   1.418794 A    
C44   C48   1.412980 A    
C27   C35   1.403844 A    
C16   C18   1.409683 A    
N2    O24   1.300995 A    
C46   H20   1.082727 S    
C70   C72   1.408896 A    
C10   N2    1.443217 S    
C5    C25   1.471410 S    
O5    V1    1.989825 S    
C75   H23   1.082965 S    
C7    C12   1.480873 S    
O17   C7    1.300409 A    
O6    V2    1.989824 S    
C78   H28   1.113895 S    
O10   C6    1.296893 A    
O18   C8    1.300269 A    
C72   C75   1.396126 A    
C15   C21   1.400093 A    
N4    O29   1.300836 A    
C37   C40   1.411630 A    
N6    O35   1.300282 A    
C81   H38   1.112449 S    
V3    O19   2.149613 S    
N3    O27   1.300980 A    
C14   C16   1.402283 A    
C52   C54   1.417852 A    
C62   C64   1.396666 A    
C57   O31   1.382404 S    
C25   C31   1.405330 A    
O9    C5    1.296891 A    
O13   V1    2.154368 S    
C64   C66   1.416380 A    
C10   C12   1.420843 A    
O2    C4    1.295603 A    
C66   C68   1.427324 A    
O37   C81   1.413666 S    
C39   H15   1.076099 S    
C51   C55   1.439499 A    
O4    V2    1.988195 S    
C76   H24   1.082930 S    
O6    C8    1.295758 A    
C13   C15   1.402442 A    
O1    C3    1.295951 A    
O32   C80   1.412366 S    
C2    O12   1.300603 A    
C71   C76   1.396018 A    
C60   O26   1.384835 S    
N1    O22   1.300831 A    
C68   C74   1.423308 A    
O26   C78   1.410736 S    
C40   C42   1.387548 A    
C80   H34   1.112951 S    
O12   V4    1.983944 S    
O25   C77   1.411132 S    
N6    O36   1.301158 A    
C69   C71   1.408874 A    
C82   H41   1.112561 S    
