data_mof_unit_32245.cif
_audit_creation_date              2012-12-10T19:03:07-0500
_audit_creation_method            fapswitch 2.2
_symmetry_space_group_name_H-M    P1
_symmetry_Int_Tables_number       1
_space_group_crystal_system       triclinic
_cell_length_a                    10.757143
_cell_length_b                    10.812691
_cell_length_c                    9.610281
_cell_angle_alpha                 90.202693
_cell_angle_beta                  89.507807
_cell_angle_gamma                 90.283129
_cell_volume                      1117.7452692

loop_
_atom_site_label
_atom_site_type_symbol
_atom_type_description
_atom_site_fract_x
_atom_site_fract_y
_atom_site_fract_z
_atom_type_partial_charge
C1    C     C_R   0.500494 0.262721 0.499522 0.808594
C2    C     C_3   0.878561 0.500724 0.500306 0.068590
C3    C     C_3   0.929375 0.617090 0.579494 -0.159291
C4    C     C_3   0.931417 0.502629 0.349494 -0.387255
C5    C     C_R   0.565776 0.064869 0.601637 0.162344
C6    C     C_R   0.507226 0.129657 0.495949 -0.093522
C7    C     C_R   0.462727 0.064060 0.380037 -0.210115
C8    C     C_R   0.461682 0.935215 0.381033 -0.218354
C9    C     C_R   0.506893 0.870971 0.496885 -0.088943
C10   C     C_R   0.566501 0.937646 0.601644 0.167236
C11   C     C_3   0.554627 0.932177 0.756110 -0.505683
C12   C     C_R   0.260196 0.499838 0.500378 0.765604
C13   C     C_3   0.552556 0.072683 0.755959 -0.472035
C14   C     C_R   0.607809 0.488752 0.071397 0.255116
C15   C     C_R   0.391821 0.504184 0.074942 -0.104428
C16   C     C_R   0.391888 0.505287 0.926988 -0.087813
C17   C     C_R   0.607379 0.484253 0.924728 0.226749
C18   C     C_3   0.722041 0.560367 0.910739 -0.502878
C19   C     C_3   0.719726 0.572657 0.068058 -0.130272
C20   C     C_R   0.500633 0.737468 0.499914 0.802687
C21   C     C_R   0.739931 0.500586 0.499717 0.766045
C22   C     C_3   0.071807 0.383882 0.577116 -0.411351
C23   C     C_3   0.927569 0.382825 0.576072 -0.159009
C24   C     C_3   0.073586 0.617811 0.575445 -0.406591
C25   C     C_3   0.073205 0.498584 0.349698 -0.380146
C26   C     C_3   0.122460 0.500039 0.500966 0.128464
Cu1   Cu    Cu3+1 0.499990 0.499980 0.640670 0.930701
Cu2   Cu    Cu3+1 0.500010 0.500020 0.359330 0.932212
H1    H     H_    0.104132 0.384024 0.686869 0.155392
H2    H     H_    0.902480 0.589156 0.297380 0.167008
H3    H     H_    0.110917 0.701149 0.521050 0.161348
H4    H     H_    0.422157 0.111782 0.292641 0.160698
H5    H     H_    0.419089 0.886594 0.295045 0.155648
H6    H     H_    0.465472 0.889736 0.791430 0.205966
H7    H     H_    0.640262 0.894529 0.803516 0.206266
H8    H     H_    0.461704 0.111735 0.789812 0.204260
H9    H     H_    0.635614 0.115089 0.805386 0.202365
H10   H     H_    0.303835 0.509509 0.129265 0.139731
H11   H     H_    0.110880 0.299270 0.527022 0.159359
H12   H     H_    0.304072 0.511780 0.874023 0.138135
H13   H     H_    0.801297 0.503611 0.873122 0.153688
H14   H     H_    0.708705 0.647070 0.851202 0.216455
H15   H     H_    0.801770 0.526735 0.111783 0.123486
H16   H     H_    0.893917 0.383817 0.685785 0.118521
H17   H     H_    0.108985 0.621709 0.683914 0.153406
H18   H     H_    0.899219 0.612372 0.690042 0.123421
H19   H     H_    0.110191 0.579627 0.290954 0.165196
H20   H     H_    0.104957 0.413480 0.294561 0.169676
H21   H     H_    0.895510 0.422363 0.288988 0.175154
N1    N     N_R   0.500800 0.500930 0.147930 -0.182492
N2    N     N_R   0.500800 0.500890 0.852020 -0.179925
O1    O     O_R   0.500000 0.319640 0.618810 -0.578719
O2    O     O_R   0.500010 0.319680 0.381230 -0.576325
O3    O     O_R   0.317690 0.499960 0.618790 -0.596737
O4    O     O_R   0.317700 0.500000 0.381210 -0.600958
O5    O     O_R   0.499990 0.680320 0.618770 -0.579422
O6    O     O_R   0.500000 0.680360 0.381190 -0.588270
O7    O     O_R   0.682300 0.500000 0.618790 -0.592763
O8    O     O_R   0.682310 0.500040 0.381210 -0.590582
C27   C     C_1   0.879949 0.734251 0.524093 0.192906
N3    N     N_1   0.841299 0.825911 0.480677 -0.291843
C28   C     C_3   0.702879 0.706878 0.121607 -0.290074
C29   C     C_3   0.583887 0.772092 0.075092 -0.787985
H22   H     H_    0.564524 0.755677 0.964048 0.239578
H23   H     H_    0.502021 0.739017 0.134317 0.267133
H24   H     H_    0.593225 0.873191 0.093077 0.232154
H25   H     H_    0.705943 0.707527 0.236885 0.232389
H26   H     H_    0.784097 0.762063 0.084867 0.185035
C30   C     C_1   0.880109 0.267054 0.513112 0.215011
N4    N     N_1   0.842913 0.176503 0.463814 -0.279949

loop_
_geom_bond_atom_site_label_1
_geom_bond_atom_site_label_2
_ccdc_geom_bond_type
C15   C16   A    
C2    C4    S    
Cu2   O2    S    
C29   H23   S    
C15   H10   S    
C25   H19   S    
C28   C29   S    
C22   H1    S    
C9    C10   A    
C23   C30   S    
C9    C20   S    
C5    C13   S    
C14   C17   A    
C16   N2    A    
C28   H26   S    
C4    H21   S    
C20   O5    A    
C3    C27   S    
C17   N2    A    
C2    C21   S    
C11   H7    S    
C17   C18   S    
C20   O6    A    
C29   H24   S    
C4    H2    S    
C21   O7    A    
Cu2   O6    S    
C11   C13   S    
C25   H20   S    
C3    C24   S    
C14   N1    A    
Cu2   N1    S    
C28   H25   S    
C16   H12   S    
C24   H17   S    
Cu2   O4    S    
Cu1   N2    S    
C21   O8    A    
C6    C7    A    
C2    C3    S    
C8    H5    S    
C18   H14   S    
C5    C6    A    
C24   C26   S    
C1    O1    A    
C30   N4    T    
Cu1   O3    S    
C12   O4    A    
C7    C8    A    
C10   C11   S    
C22   H11   S    
C19   C28   S    
C15   N1    A    
C29   H22   S    
C4    C25   S    
C5    C10   A    
Cu1   O1    S    
C13   H8    S    
C18   C19   S    
C22   C26   S    
Cu2   O8    S    
C12   C26   S    
C2    C23   S    
C1    O2    A    
Cu1   O5    S    
C8    C9    A    
C7    H4    S    
C3    H18   S    
C24   H3    S    
C25   C26   S    
C22   C23   S    
C13   H9    S    
C14   C19   S    
C11   H6    S    
C12   O3    A    
C23   H16   S    
C18   H13   S    
C19   H15   S    
C27   N3    T    
Cu1   Cu2   S    
Cu1   O7    S    
C1    C6    S    
