data_mof_unit_14144.cif
_audit_creation_date              2013-03-05T15:46:57-0500
_audit_creation_method            fapswitch 2.2
_symmetry_space_group_name_H-M    P1
_symmetry_Int_Tables_number       1
_space_group_crystal_system       triclinic
_cell_length_a                    10.15866
_cell_length_b                    10.339393
_cell_length_c                    15.063462
_cell_angle_alpha                 90.598342
_cell_angle_beta                  82.129886
_cell_angle_gamma                 93.867537
_cell_volume                      1563.70842928

loop_
_atom_site_label
_atom_site_type_symbol
_atom_site_description
_atom_site_fract_x
_atom_site_fract_y
_atom_site_fract_z
_atom_type_partial_charge
O1    O     O_R   0.431060 0.692470 0.507460 -0.579401
O2    O     O_R   0.568940 0.307530 0.492540 -0.584156
O3    O     O_R   0.651120 0.659650 0.483670 -0.622920
O4    O     O_R   0.348880 0.340350 0.516330 -0.612971
C1    C     C_R   0.554406 0.736415 0.497307 0.880760
C2    C     C_R   0.446108 0.263517 0.507156 0.916347
O5    O     O_R   0.389960 0.516440 0.644050 -0.577904
O6    O     O_R   0.610040 0.483560 0.355950 -0.575822
O7    O     O_R   0.610030 0.483620 0.620260 -0.593711
O8    O     O_R   0.389970 0.516380 0.379740 -0.599117
C3    C     C_R   0.500777 0.498736 0.672942 1.054893
C4    C     C_R   0.498548 0.498181 0.327044 0.967951
Zn1   Zn    Zn3+2 0.353060 0.521920 0.515880 1.024831
Zn2   Zn    Zn3+2 0.646940 0.478080 0.484120 1.020207
C5    C     C_R   0.410399 0.405745 0.193970 0.280955
C6    C     C_R   0.603268 0.568407 0.805275 0.235403
C7    C     C_R   0.497136 0.495320 0.231398 -0.325634
C8    C     C_R   0.502004 0.496326 0.768382 -0.364728
C9    C     C_R   0.587544 0.578898 0.177791 0.293760
C10   C     C_R   0.400875 0.422873 0.822325 0.263633
C11   C     C_R   0.592902 0.573415 0.085188 -0.026121
C12   C     C_R   0.405535 0.414911 0.914238 -0.028214
C13   C     C_R   0.501244 0.489649 0.046298 -0.053263
C14   C     C_R   0.502895 0.491547 0.952919 -0.050189
C15   C     C_R   0.408495 0.404461 0.100610 -0.076836
C16   C     C_R   0.599129 0.573252 0.898709 -0.092858
C17   C     C_R   0.686317 0.654197 0.031402 -0.241774
C18   C     C_R   0.314534 0.331119 0.967829 -0.257034
C19   C     C_R   0.684968 0.660989 0.939675 0.514846
C20   C     C_R   0.318597 0.320368 0.059546 0.479226
H1    H     H_    0.759503 0.716120 0.060256 0.206545
H2    H     H_    0.239675 0.271482 0.938841 0.196530
C21   C     C_2   0.580846 0.877133 0.511601 0.243279
C22   C     C_2   0.423286 0.123272 0.525889 0.249036
C23   C     C_2   0.509256 0.930323 0.583775 0.335577
C24   C     C_2   0.497313 0.073772 0.583824 0.331740
H3    H     H_    0.112168 0.438365 0.431513 0.217441
H4    H     H_    0.889985 0.581978 0.557369 0.217399
N1    N     N_2   0.842700 0.448880 0.462930 -0.191223
N2    N     N_2   0.157300 0.551120 0.537070 -0.184512
C25   C     C_2   0.927105 0.514012 0.506142 -0.133652
C26   C     C_2   0.074308 0.498743 0.487093 -0.147392
H5    H     H_    0.117472 0.606078 0.590328 0.196594
H6    H     H_    0.881528 0.386136 0.414121 0.195721
N3    N     N_R   0.332740 0.310934 0.250813 0.218146
O9    O     O_R   0.386327 0.206585 0.271577 -0.443769
O10   O     O_R   0.210062 0.329807 0.282965 -0.412998
N4    N     N_R   0.711134 0.633704 0.747457 0.251001
O11   O     O_R   0.831215 0.595596 0.744083 -0.378446
O12   O     O_R   0.689397 0.729458 0.697230 -0.432793
N5    N     N_R   0.668339 0.675508 0.217860 0.169719
O13   O     O_R   0.639764 0.796067 0.214894 -0.454150
O14   O     O_R   0.786501 0.648706 0.233094 -0.421278
N6    N     N_R   0.294457 0.355196 0.783483 0.207665
O15   O     O_R   0.316896 0.253835 0.733346 -0.441883
O16   O     O_R   0.174128 0.393349 0.800302 -0.398797
O17   O     O_3   0.763199 0.757347 0.890247 -0.594265
C27   C     C_3   0.723823 0.882278 0.918135 0.104421
H7    H     H_    0.791098 0.953454 0.876544 0.177409
H8    H     H_    0.739269 0.903131 0.988647 0.145249
C28   C     C_3   0.579264 0.903760 0.904435 -0.396023
H9    H     H_    0.565460 0.880719 0.834135 0.255775
H10   H     H_    0.508501 0.838318 0.948877 0.215604
C29   C     C_3   0.544637 0.042883 0.926286 -0.959518
H11   H     H_    0.552101 0.064463 0.997797 0.271208
H12   H     H_    0.441657 0.055793 0.912929 0.258646
H13   H     H_    0.612679 0.112966 0.884415 0.272628
O18   O     O_3   0.225641 0.236132 0.109399 -0.583073
C30   C     C_3   0.257982 0.107086 0.089766 0.120215
H14   H     H_    0.360900 0.092522 0.103610 0.169521
H15   H     H_    0.249230 0.082910 0.018618 0.109112
C31   C     C_3   0.161457 0.013546 0.148540 -0.285788
H16   H     H_    0.169149 0.033895 0.220322 0.252034
H17   H     H_    0.057820 0.027714 0.136563 0.230211
C32   C     C_3   0.192322 0.872972 0.127449 -0.926921
H18   H     H_    0.186725 0.851103 0.055637 0.264728
H19   H     H_    0.118711 0.806350 0.168625 0.284641
H20   H     H_    0.293560 0.855188 0.142636 0.283532
O19   O     O_3   0.554602 0.158672 0.642722 -0.651358
C33   C     C_3   0.665010 0.110664 0.675790 0.083593
H21   H     H_    0.728216 0.057776 0.623368 0.142924
H22   H     H_    0.629998 0.044062 0.732284 0.178561
C34   C     C_3   0.748060 0.226397 0.708302 -0.311195
H23   H     H_    0.785594 0.290275 0.650155 0.250631
H24   H     H_    0.683955 0.283875 0.757389 0.237771
C35   C     C_3   0.866109 0.185837 0.752002 -0.895325
H25   H     H_    0.833871 0.160841 0.823260 0.251849
H26   H     H_    0.942494 0.268153 0.749771 0.320151
H27   H     H_    0.912346 0.101570 0.717234 0.264850
O20   O     O_3   0.448995 0.849173 0.653693 -0.655826
C36   C     C_3   0.344998 0.906397 0.708919 0.076905
H28   H     H_    0.271336 0.941336 0.667993 0.151729
H29   H     H_    0.385733 0.987979 0.747910 0.188107
C37   C     C_3   0.273415 0.804496 0.774504 -0.312038
H30   H     H_    0.230800 0.723000 0.736373 0.255843
H31   H     H_    0.345707 0.765387 0.814657 0.219891
C38   C     C_3   0.161555 0.861673 0.837737 -0.884234
H32   H     H_    0.202358 0.941833 0.877766 0.246001
H33   H     H_    0.111484 0.785380 0.884326 0.287743
H34   H     H_    0.086591 0.899112 0.799077 0.277840
O21   O     O_3   0.352668 0.038455 0.473982 -0.664284
C39   C     C_3   0.232552 0.087817 0.456700 0.147428
H35   H     H_    0.190457 0.023044 0.406909 0.177424
H36   H     H_    0.249334 0.183760 0.423717 0.212650
C40   C     C_3   0.129687 0.089276 0.541565 -0.426416
H37   H     H_    0.084211 0.989379 0.555009 0.213015
H38   H     H_    0.177297 0.119811 0.601180 0.253850
C41   C     C_3   0.022315 0.182312 0.531408 -0.905855
H39   H     H_    0.042296 0.273336 0.568080 0.296894
H40   H     H_    0.924507 0.138809 0.560709 0.257786
H41   H     H_    0.015894 0.204043 0.460117 0.256341
O22   O     O_3   0.656107 0.960207 0.448158 -0.678796
C42   C     C_3   0.755744 0.899165 0.391162 0.179002
H42   H     H_    0.788691 0.964364 0.333046 0.197714
H43   H     H_    0.717557 0.808084 0.362390 0.214848
C43   C     C_3   0.876886 0.879106 0.438508 -0.467351
H44   H     H_    0.922585 0.975272 0.452779 0.241028
H45   H     H_    0.847028 0.827084 0.502975 0.249639
C44   C     C_3   0.980335 0.804267 0.379997 -0.842535
H46   H     H_    0.937365 0.706689 0.363992 0.309136
H47   H     H_    0.066902 0.792498 0.416226 0.258137
H48   H     H_    0.015324 0.858057 0.316949 0.260930

loop_
_geom_bond_atom_site_label_1
_geom_bond_atom_site_label_2
_geom_bond_distance
_ccdc_geom_bond_type
C3    C8    1.439901 S    
O21   C39   1.411019 S    
C17   C19   1.386228 A    
C39   H35   1.110232 S    
C25   C26   1.502278 S    
C23   C24   1.496241 S    
O7    Zn2   2.034522 S    
C6    N4    1.437421 S    
C38   H32   1.110851 S    
O20   C36   1.411242 S    
N1    C25   1.295458 D    
O2    C2    1.289516 A    
N3    O9    1.300429 A    
C43   H44   1.100438 S    
O5    C3    1.286027 A    
C40   H38   1.110162 S    
O1    C1    1.293091 A    
C9    C11   1.389228 A    
C14   C16   1.421471 A    
C30   H14   1.113936 S    
C33   C34   1.532390 S    
C35   H26   1.109950 S    
C5    C15   1.409017 A    
C27   H8    1.111565 S    
O4    Zn1   1.875001 S    
C41   H39   1.107323 S    
C39   C40   1.536970 S    
C28   H10   1.111217 S    
N3    O10   1.300502 A    
H3    C26   1.082530 S    
C30   H15   1.111987 S    
Zn1   N2    2.013193 S    
C21   C23   1.355832 D    
Zn2   N1    2.013193 S    
N2    H5    1.030922 S    
C41   H40   1.099145 S    
O18   C30   1.414189 S    
C1    C21   1.480516 S    
C4    C7    1.442762 S    
C13   C14   1.404742 A    
C8    C10   1.404103 A    
C42   C43   1.531011 S    
C27   C28   1.541572 S    
N2    C26   1.294031 D    
C11   C17   1.396863 A    
C12   C18   1.399661 A    
C37   H30   1.111815 S    
C31   C32   1.528508 S    
O22   C42   1.413093 S    
C38   H33   1.110471 S    
C44   H47   1.110506 S    
C6    C16   1.402767 A    
C40   C41   1.526035 S    
N6    O16   1.300831 A    
C22   O21   1.396237 S    
C17   H1    1.081687 S    
N5    O13   1.301380 A    
C29   H13   1.106006 S    
C18   H2    1.082239 S    
H4    C25   1.084531 S    
C31   H17   1.111661 S    
C36   H28   1.112651 S    
C35   H25   1.106501 S    
C33   H21   1.111018 S    
C37   C38   1.526588 S    
C27   H7    1.107099 S    
O8    Zn1   2.034519 S    
C2    C22   1.476919 S    
C35   H27   1.110106 S    
N5    O14   1.300756 A    
C29   H12   1.108947 S    
C28   C29   1.525730 S    
C39   H36   1.106457 S    
C32   H18   1.111084 S    
C36   H29   1.112134 S    
O7    C3    1.290579 A    
C34   H23   1.111496 S    
O6    C4    1.286387 A    
C21   O22   1.401455 S    
C37   H31   1.111523 S    
C32   H19   1.109414 S    
O3    Zn2   1.874999 S    
O8    C4    1.291210 A    
C10   N6    1.436417 S    
N4    O11   1.301282 A    
C34   H24   1.111384 S    
C19   O17   1.387496 S    
C11   C13   1.410766 A    
C12   C14   1.409970 A    
O4    C2    1.300737 A    
O1    Zn1   1.882052 S    
C5    N3    1.429940 S    
C38   H34   1.111235 S    
C42   H42   1.111076 S    
C44   H48   1.108843 S    
C15   C20   1.417380 A    
C5    C7    1.402529 A    
N6    O15   1.299693 A    
O6    Zn2   2.018565 S    
C10   C12   1.395279 A    
C31   H16   1.111625 S    
O3    C1    1.297676 A    
C24   O19   1.397362 S    
C44   H46   1.109448 S    
C41   H41   1.110938 S    
N1    H6    1.030601 S    
C40   H37   1.111587 S    
C43   C44   1.523737 S    
C29   H11   1.109489 S    
C18   C20   1.393645 A    
C36   C37   1.528568 S    
O17   C27   1.420339 S    
N4    O12   1.300863 A    
C7    C9    1.395255 A    
C33   H22   1.105077 S    
C43   H45   1.110220 S    
C22   C24   1.352795 D    
C13   C15   1.422979 A    
C28   H9    1.108483 S    
O2    Zn2   1.882054 S    
C32   H20   1.111156 S    
O19   C33   1.409163 S    
C23   O20   1.400212 S    
C9    N5    1.431164 S    
O5    Zn1   2.018568 S    
C34   C35   1.528771 S    
C16   C19   1.411766 A    
C6    C8    1.402508 A    
C30   C31   1.527386 S    
C20   O18   1.386629 S    
C42   H43   1.101546 S    
