data_mof_unit_25107.cif
_audit_creation_date              2012-12-10T19:08:35-0500
_audit_creation_method            fapswitch 2.2
_symmetry_space_group_name_H-M    P1
_symmetry_Int_Tables_number       1
_space_group_crystal_system       triclinic
_cell_length_a                    15.975147
_cell_length_b                    10.867549
_cell_length_c                    9.575657
_cell_angle_alpha                 89.993252
_cell_angle_beta                  89.645594
_cell_angle_gamma                 90.871204
_cell_volume                      1662.21243214

loop_
_atom_site_label
_atom_site_type_symbol
_atom_type_description
_atom_site_fract_x
_atom_site_fract_y
_atom_site_fract_z
_atom_type_partial_charge
C1    C     C_R   0.498740 0.262847 0.499882 0.818562
C2    C     C_R   0.043302 0.566501 0.610930 0.269997
C3    C     C_1   0.822621 0.491905 0.504210 0.190515
C4    C     C_1   0.177284 0.496837 0.507533 0.184420
C5    C     C_1   0.252357 0.498518 0.502510 -0.059194
C6    C     C_1   0.747585 0.493952 0.501304 -0.015468
C7    C     C_R   0.498158 0.062917 0.621240 0.017892
C8    C     C_R   0.494708 0.130324 0.498702 -0.074043
C9    C     C_R   0.484701 0.064419 0.372913 -0.132915
C10   C     C_R   0.481787 0.935374 0.374168 -0.077106
C11   C     C_R   0.490469 0.869920 0.500427 -0.085282
C12   C     C_R   0.341422 0.499804 0.500446 0.808150
C13   C     C_R   0.494188 0.938694 0.622945 -0.004075
C14   C     C_3   0.499807 0.933462 0.778867 0.223045
C15   C     C_3   0.505137 0.075285 0.775365 0.141908
C16   C     C_R   0.573191 0.518672 0.071653 0.178254
C17   C     C_R   0.429850 0.469728 0.074907 -0.010049
C18   C     C_R   0.429830 0.469845 0.926607 0.047855
C19   C     C_R   0.572860 0.514722 0.924393 0.165287
C20   C     C_3   0.633009 0.617521 0.905196 -0.468584
C21   C     C_3   0.630838 0.631288 0.062978 0.592366
C22   C     C_R   0.496626 0.737193 0.500285 0.844277
C23   C     C_R   0.658545 0.497952 0.500024 0.856677
C24   C     C_R   0.954982 0.567988 0.604264 0.293719
C25   C     C_R   0.912449 0.491319 0.508919 -0.198231
C26   C     C_R   0.956797 0.414958 0.417586 0.344324
C27   C     C_R   0.044359 0.417120 0.418726 0.319580
C28   C     C_R   0.087494 0.493279 0.513799 -0.219197
Cu1   Cu    Cu3+1 0.500000 0.499980 0.640670 1.036209
Cu2   Cu    Cu3+1 0.500000 0.500020 0.359330 1.053320
H1    H     H_    0.372546 0.446401 0.129866 0.159406
H2    H     H_    0.372414 0.447288 0.872705 0.148144
H3    H     H_    0.692927 0.583939 0.860891 0.237548
H4    H     H_    0.605886 0.694831 0.846165 0.211186
H5    H     H_    0.479007 0.111744 0.273947 0.195470
H6    H     H_    0.472309 0.887686 0.276662 0.239537
H7    H     H_    0.557257 0.888719 0.816777 0.150816
H8    H     H_    0.451168 0.123908 0.822624 0.164569
N1    N     N_R   0.500520 0.500930 0.147930 -0.198639
N2    N     N_R   0.500520 0.500890 0.852020 -0.167851
O1    O     O_R   0.500000 0.319640 0.618810 -0.565763
O2    O     O_R   0.500010 0.319680 0.381230 -0.589225
O3    O     O_R   0.380300 0.499950 0.618760 -0.567157
O4    O     O_R   0.380310 0.499990 0.381180 -0.589527
O5    O     O_R   0.499990 0.680320 0.618770 -0.562449
O6    O     O_R   0.500000 0.680360 0.381190 -0.540994
O7    O     O_R   0.619690 0.500010 0.618820 -0.588378
O8    O     O_R   0.619700 0.500050 0.381240 -0.523094
S1    S     S_3+6 0.097392 0.659030 0.736870 0.111485
O9    O     O_2   0.106646 0.787297 0.679729 -0.182403
O10   O     O_2   0.048762 0.664142 0.871599 -0.159606
O11   O     O_3   0.193190 0.605785 0.772859 -0.511466
H9    H     H_    0.182952 0.526520 0.821618 0.351698
Cl1   Cl    Cl    0.605259 0.134772 0.825702 -0.504358
S2    S     S_3+6 0.732672 0.614691 0.138418 0.090879
O12   O     O_2   0.749857 0.481182 0.164946 -0.247674
O13   O     O_2   0.798217 0.666171 0.040304 -0.188116
O14   O     O_3   0.737044 0.694132 0.288974 -0.500960
H10   H     H_    0.797529 0.705602 0.308106 0.384860
Cl2   Cl    Cl    0.583382 0.771932 0.112567 -0.520190
Cl3   Cl    Cl    0.896000 0.668813 0.710438 -0.409755
Cl4   Cl    Cl    0.902644 0.317559 0.299616 -0.365003
Cl5   Cl    Cl    0.100204 0.324078 0.299561 -0.453697
S3    S     S_3+6 0.404623 0.878584 0.858635 0.043117
O15   O     O_2   0.401582 0.740551 0.855492 -0.248495
O16   O     O_2   0.401398 0.921725 0.007629 -0.264363
O17   O     O_3   0.321971 0.933624 0.771815 -0.503687
H11   H     H_    0.272438 0.893662 0.816267 0.421923

loop_
_geom_bond_atom_site_label_1
_geom_bond_atom_site_label_2
_ccdc_geom_bond_type
C8    C9    A    
C10   H6    S    
S2    O12   D    
C15   Cl1   S    
C15   H8    S    
Cu1   Cu2   S    
C2    S1    S    
C1    C8    S    
C9    C10   A    
C11   C22   S    
C19   C20   S    
C7    C13   A    
S1    O11   S    
C14   S3    S    
S3    O15   D    
C3    C6    T    
C7    C15   S    
C17   C18   A    
C26   Cl4   S    
C20   H4    S    
C7    C8    A    
C12   O4    A    
S3    O16   D    
C13   C14   S    
Cu1   O3    S    
C14   H7    S    
C11   C13   A    
Cu2   O4    S    
C26   C27   A    
C24   Cl3   S    
Cu1   O1    S    
C27   Cl5   S    
Cu1   O7    S    
C16   C19   A    
C20   H3    S    
Cu1   N2    S    
C1    O1    A    
C4    C28   S    
Cu2   N1    S    
C12   O3    A    
S2    O13   D    
C2    C24   A    
C17   H1    S    
C9    H5    S    
O14   H10   S    
C23   O7    A    
C10   C11   A    
C6    C23   S    
C16   N1    A    
O17   H11   S    
S3    O17   S    
C1    O2    A    
C3    C25   S    
C22   O5    A    
C18   H2    S    
C24   C25   A    
C21   Cl2   S    
C20   C21   S    
S1    O9    D    
C19   N2    A    
S2    O14   S    
Cu2   O8    S    
C27   C28   A    
C21   S2    S    
C18   N2    A    
C17   N1    A    
C14   C15   S    
Cu2   O2    S    
C2    C28   A    
C23   O8    A    
C22   O6    A    
C25   C26   A    
C16   C21   S    
Cu2   O6    S    
Cu1   O5    S    
O11   H9    S    
C4    C5    T    
S1    O10   D    
C5    C12   S    
