data_mof_unit_7644.cif
_audit_creation_date              2013-03-05T16:03:27-0500
_audit_creation_method            fapswitch 2.2
_symmetry_space_group_name_H-M    P1
_symmetry_Int_Tables_number       1
_space_group_crystal_system       triclinic
_cell_length_a                    14.092976
_cell_length_b                    14.991325
_cell_length_c                    16.927105
_cell_angle_alpha                 88.106313
_cell_angle_beta                  84.256347
_cell_angle_gamma                 89.35471
_cell_volume                      3556.21865174

loop_
_atom_site_label
_atom_site_type_symbol
_atom_site_description
_atom_site_fract_x
_atom_site_fract_y
_atom_site_fract_z
_atom_type_partial_charge
O1    O     O_R   0.419720 0.632140 0.499990 -0.635518
O2    O     O_R   0.580280 0.367860 0.500010 -0.591892
O3    O     O_R   0.580270 0.632160 0.499980 -0.601952
O4    O     O_R   0.419730 0.367840 0.500020 -0.631936
C1    C     C_R   0.499688 0.673034 0.496070 0.885776
C2    C     C_R   0.500467 0.326728 0.501564 0.906575
O5    O     O_R   0.410240 0.500000 0.615800 -0.618760
O6    O     O_R   0.589760 0.500000 0.384200 -0.640206
O7    O     O_R   0.570790 0.500020 0.615800 -0.561635
O8    O     O_R   0.429210 0.499980 0.384200 -0.562053
C3    C     C_R   0.486241 0.494322 0.652606 0.947222
C4    C     C_R   0.513610 0.502390 0.347099 0.930836
Zn1   Zn    Zn3+2 0.392800 0.499980 0.500010 0.964371
Zn2   Zn    Zn3+2 0.607200 0.500020 0.499990 0.976873
C5    C     C_R   0.476541 0.471026 0.737010 -0.159452
C6    C     C_R   0.521858 0.506535 0.260803 -0.162881
C7    C     C_R   0.547074 0.418391 0.770053 0.325977
C8    C     C_R   0.446106 0.541621 0.220759 0.337327
C9    C     C_R   0.538804 0.400989 0.852685 0.302784
C10   C     C_R   0.449339 0.533043 0.138092 0.308192
C11   C     C_R   0.458039 0.432466 0.899332 0.013675
C12   C     C_R   0.530791 0.495199 0.096819 0.012460
C13   C     C_R   0.383103 0.475893 0.864502 0.173747
C14   C     C_R   0.609789 0.468260 0.136358 0.184818
C15   C     C_R   0.392933 0.494837 0.783186 -0.368610
C16   C     C_R   0.604326 0.473383 0.218530 -0.385669
C17   C     C_2   0.460539 0.435848 0.984805 -0.054456
C18   C     C_2   0.531571 0.480086 0.012401 -0.079676
H1    H     H_    0.662985 0.447599 0.249520 0.182848
H2    H     H_    0.336788 0.531582 0.756720 0.186165
H3    H     H_    0.591755 0.504600 0.972704 0.165614
H4    H     H_    0.399759 0.412059 0.024141 0.168046
C19   C     C_R   0.557138 0.181450 0.553874 0.135754
C20   C     C_R   0.445275 0.818265 0.441226 0.136104
C21   C     C_R   0.501057 0.230805 0.503420 -0.113306
C22   C     C_R   0.497594 0.768575 0.494681 -0.114330
C23   C     C_R   0.442233 0.189032 0.454842 -0.323270
C24   C     C_R   0.547957 0.810040 0.549614 -0.301082
C25   C     C_R   0.440226 0.097056 0.453466 0.129042
C26   C     C_R   0.546976 0.901863 0.553215 0.122750
C27   C     C_R   0.494425 0.046052 0.504431 0.042120
C28   C     C_R   0.493688 0.952977 0.501715 0.025068
C29   C     C_R   0.550732 0.087964 0.556944 0.060566
C30   C     C_R   0.441283 0.911223 0.446424 0.087225
C31   C     C_R   0.385457 0.055588 0.401157 -0.227442
C32   C     C_R   0.598514 0.943040 0.607813 -0.203702
C33   C     C_R   0.386312 0.963360 0.397263 -0.205221
C34   C     C_R   0.600468 0.035282 0.609804 -0.230740
H5    H     H_    0.400021 0.228635 0.416172 0.166619
H6    H     H_    0.587639 0.770286 0.590094 0.161451
H7    H     H_    0.343126 0.094586 0.362318 0.148565
H8    H     H_    0.638497 0.903871 0.648307 0.144502
H9    H     H_    0.343810 0.933328 0.355527 0.180285
H10   H     H_    0.642051 0.064232 0.652595 0.154413
C35   C     C_R   0.195961 0.450802 0.558357 0.289645
C36   C     C_R   0.803565 0.558650 0.449273 0.291492
N1    N     N_R   0.249970 0.499930 0.499970 -0.121190
N2    N     N_R   0.750030 0.500070 0.500030 -0.120374
C37   C     C_R   0.207886 0.548207 0.443708 -0.088096
C38   C     C_R   0.792537 0.446246 0.552228 -0.104298
C39   C     C_R   0.108247 0.549674 0.443497 -0.005253
C40   C     C_R   0.892083 0.446071 0.553870 -0.009049
C41   C     C_R   0.050841 0.497147 0.499393 0.022073
C42   C     C_R   0.949659 0.498514 0.498184 0.025302
C43   C     C_R   0.094334 0.444937 0.557294 -0.084776
C44   C     C_R   0.905890 0.554315 0.443070 -0.084638
C45   C     C_R   0.065656 0.602482 0.387525 -0.253539
C46   C     C_R   0.934501 0.393662 0.610175 -0.251624
C47   C     C_R   0.966335 0.604603 0.385626 0.221333
C48   C     C_R   0.033930 0.390728 0.611836 0.223141
H11   H     H_    0.252237 0.587319 0.399955 0.181762
H12   H     H_    0.747993 0.405949 0.594580 0.207353
H13   H     H_    0.110005 0.641509 0.343398 0.148062
H14   H     H_    0.890156 0.352966 0.652934 0.143625
O9    O     O_3   0.621360 0.383889 0.720426 -0.782722
H15   H     H_    0.646762 0.329457 0.745777 0.328969
O10   O     O_3   0.371065 0.584165 0.263592 -0.793659
H16   H     H_    0.339644 0.626419 0.228147 0.332244
N3    N     N_2   0.240215 0.419673 0.626350 -0.266034
H17   H     H_    0.207945 0.440092 0.680199 0.200192
C49   C     C_3   0.279100 0.329710 0.627601 -0.622754
H18   H     H_    0.244556 0.290160 0.678799 0.215375
H19   H     H_    0.355515 0.331948 0.637537 0.230260
H20   H     H_    0.270102 0.294992 0.571834 0.235007
N4    N     N_2   0.757249 0.635633 0.418770 -0.263360
H21   H     H_    0.786304 0.695708 0.431525 0.206348
C50   C     C_3   0.724896 0.633688 0.340305 -0.633963
H22   H     H_    0.759165 0.687371 0.301111 0.215160
H23   H     H_    0.647671 0.648718 0.344526 0.226191
H24   H     H_    0.740194 0.568356 0.312562 0.233708
N5    N     N_2   0.929871 0.652897 0.321706 -0.311030
H25   H     H_    0.955402 0.717189 0.314565 0.219776
C51   C     C_3   0.939996 0.606381 0.247645 -0.808703
H26   H     H_    0.903587 0.645080 0.202269 0.235441
H27   H     H_    0.906868 0.539348 0.255796 0.247659
H28   H     H_    0.016562 0.598864 0.225624 0.241203
N6    N     N_2   0.071125 0.329273 0.666592 -0.313807
H29   H     H_    0.043084 0.338636 0.724413 0.218318
C52   C     C_3   0.065684 0.236838 0.645071 -0.804223
H30   H     H_    0.101493 0.193643 0.687824 0.235284
H31   H     H_    0.102136 0.227398 0.584576 0.254048
H32   H     H_    0.990168 0.215652 0.646785 0.235901
N7    N     N_2   0.301254 0.506937 0.912061 -0.294731
H33   H     H_    0.238313 0.487762 0.891540 0.216541
C53   C     C_3   0.301798 0.601622 0.926035 -0.696647
H34   H     H_    0.293336 0.640599 0.870138 0.208620
H35   H     H_    0.369608 0.620781 0.948979 0.282988
H36   H     H_    0.241725 0.618410 0.970747 0.239078
N8    N     N_2   0.692838 0.431575 0.094193 -0.303082
H37   H     H_    0.755212 0.448982 0.116709 0.221421
C54   C     C_3   0.688145 0.336484 0.083245 -0.726645
H38   H     H_    0.685069 0.299822 0.141602 0.222721
H39   H     H_    0.752660 0.314382 0.045654 0.236764
H40   H     H_    0.624453 0.319863 0.053110 0.281050
O11   O     O_3   0.374240 0.560212 0.096354 -0.796553
H41   H     H_    0.313812 0.547932 0.129911 0.337018
O12   O     O_3   0.609553 0.357167 0.890101 -0.791310
H42   H     H_    0.672126 0.371664 0.860759 0.336398
N9    N     N_2   0.618117 0.226230 0.601595 -0.277327
H43   H     H_    0.605866 0.209769 0.661311 0.220030
C55   C     C_3   0.718204 0.223439 0.571984 -0.746584
H44   H     H_    0.761212 0.253734 0.615318 0.216209
H45   H     H_    0.730041 0.260902 0.514218 0.260830
H46   H     H_    0.743870 0.153803 0.563679 0.225122
N10   N     N_2   0.401616 0.776976 0.379361 -0.324345
H47   H     H_    0.365760 0.718449 0.393872 0.262972
C56   C     C_3   0.459473 0.775644 0.303822 -0.770469
H48   H     H_    0.512432 0.720447 0.304228 0.231816
H49   H     H_    0.497156 0.839983 0.290606 0.242931
H50   H     H_    0.413054 0.765312 0.255818 0.249427

loop_
_geom_bond_atom_site_label_1
_geom_bond_atom_site_label_2
_geom_bond_distance
_ccdc_geom_bond_type
C50   H22   1.109240 S    
C41   C43   1.416919 A    
C51   H26   1.110205 S    
C27   C28   1.397794 A    
C54   H38   1.111671 S    
O7    Zn2   1.976069 S    
N6    H29   1.031610 S    
C25   C27   1.409763 A    
N4    H21   1.031626 S    
C34   H10   1.080697 S    
C53   H35   1.111048 S    
O1    C1    1.283841 A    
C9    C11   1.405113 A    
C14   C16   1.389971 A    
N8    C54   1.446692 S    
C19   C21   1.407709 A    
C5    C15   1.396900 A    
C44   C47   1.428181 A    
Zn1   N1    2.012978 S    
C38   H12   1.078337 S    
C46   H14   1.084211 S    
O11   H41   0.990736 S    
C1    C22   1.431721 S    
C32   H8    1.084160 S    
C35   N3    1.425824 S    
C2    C21   1.437256 S    
C38   C40   1.405917 A    
O4    Zn1   2.012776 S    
C39   C41   1.407732 A    
C55   H46   1.109696 S    
C40   C42   1.406162 A    
N6    C52   1.449197 S    
C3    C5    1.452891 S    
C13   N7    1.421980 S    
C54   H39   1.110255 S    
C4    C6    1.453049 S    
C45   H13   1.084801 S    
C29   C34   1.407831 A    
C8    C10   1.405594 A    
C30   C33   1.405696 A    
C33   H9    1.082759 S    
N9    C55   1.449515 S    
C11   C17   1.453332 S    
C51   H27   1.111472 S    
C12   C18   1.453109 S    
C27   C29   1.415613 A    
O2    C2    1.286359 A    
C28   C30   1.414442 A    
C49   H19   1.107518 S    
C49   H18   1.108003 S    
C31   C33   1.386229 A    
C6    C16   1.397791 A    
Zn2   N2    2.012977 S    
C53   H36   1.110151 S    
C32   C34   1.384993 A    
C37   C39   1.404500 A    
N4    C50   1.448056 S    
C19   C29   1.404306 A    
C20   C30   1.399386 A    
O4    C2    1.290074 A    
N5    H25   1.031723 S    
N3    C49   1.450329 S    
O10   H16   0.989470 S    
C41   C42   1.428055 A    
C45   C47   1.403280 A    
C42   C44   1.415135 A    
O5    C3    1.292520 A    
O9    H15   0.989546 S    
C56   H49   1.111698 S    
N5    C51   1.448441 S    
C23   H5    1.085882 S    
C39   C45   1.392192 A    
C52   H30   1.110162 S    
O6    C4    1.296125 A    
N7    C53   1.446953 S    
O7    C3    1.290514 A    
C55   H44   1.108569 S    
O3    Zn2   2.012777 S    
O8    C4    1.288576 A    
C46   C48   1.404509 A    
C52   H31   1.111374 S    
C10   C12   1.406643 A    
C19   N9    1.424595 S    
C51   H28   1.111530 S    
C11   C13   1.403742 A    
N10   H47   1.027812 S    
C12   C14   1.404153 A    
O1    Zn1   2.021426 S    
C26   C32   1.394594 A    
C56   H48   1.108397 S    
N7    H33   1.031552 S    
C49   H20   1.111738 S    
C7    O9    1.381917 S    
C15   H2    1.083996 S    
C5    C7    1.409960 A    
O6    Zn2   1.999609 S    
C21   C23   1.392026 A    
C17   H4    1.086868 S    
C35   C43   1.437853 A    
C18   H3    1.087471 S    
C14   N8    1.423363 S    
O3    C1    1.290819 A    
O8    Zn1   1.976069 S    
C10   O11   1.380630 S    
N9    H43   1.030536 S    
C48   N6    1.418657 S    
C24   H6    1.086101 S    
C40   C46   1.391758 A    
C53   H34   1.111466 S    
C25   C31   1.396491 A    
C35   N1    1.382935 A    
C56   H50   1.108699 S    
C23   C25   1.380466 A    
O12   H42   0.990495 S    
C22   C24   1.391059 A    
C24   C26   1.379764 A    
C36   N4    1.426762 S    
C20   N10   1.427827 S    
C36   C44   1.436256 A    
C26   C28   1.408905 A    
C7    C9    1.407839 A    
C36   N2    1.383444 A    
C54   H40   1.110441 S    
C20   C22   1.412054 A    
C13   C15   1.389727 A    
C8    O10   1.383028 S    
O2    Zn2   2.021426 S    
C55   H45   1.110191 S    
N1    C37   1.356595 A    
N3    H17   1.031357 S    
O5    Zn1   1.999609 S    
C52   H32   1.111380 S    
C9    O12   1.382377 S    
C16   H1    1.083593 S    
C6    C8    1.408705 A    
C50   H24   1.109794 S    
N8    H37   1.031923 S    
C17   C18   1.337592 D    
N10   C56   1.446664 S    
C50   H23   1.104670 S    
C31   H7    1.084049 S    
C47   N5    1.417767 S    
N2    C38   1.355935 A    
C43   C48   1.430423 A    
C37   H11   1.081610 S    
