data_mof_unit_11527.cif
_audit_creation_date              2013-03-05T15:46:53-0500
_audit_creation_method            fapswitch 2.2
_symmetry_space_group_name_H-M    P1
_symmetry_Int_Tables_number       1
_space_group_crystal_system       triclinic
_cell_length_a                    15.056386
_cell_length_b                    15.043947
_cell_length_c                    14.922194
_cell_angle_alpha                 108.649507
_cell_angle_beta                  109.645985
_cell_angle_gamma                 109.902669
_cell_volume                      2608.55263003

loop_
_atom_site_label
_atom_site_type_symbol
_atom_site_description
_atom_site_fract_x
_atom_site_fract_y
_atom_site_fract_z
_atom_type_partial_charge
C1    C     C_R   0.197264 0.996338 0.905502 -0.074459
C2    C     C_R   0.757889 0.943661 0.034028 -0.021123
N1    N     N_R   0.293810 0.002730 0.945950 -0.079328
N2    N     N_R   0.706190 0.997270 0.054050 -0.089852
C3    C     C_R   0.800358 0.211794 0.303222 -0.218169
C4    C     C_R   0.252863 0.779865 0.686699 -0.185530
H1    H     H_    0.828398 0.185470 0.361151 0.128245
H2    H     H_    0.237893 0.800672 0.622274 0.135893
N3    N     N_R   0.706160 0.152130 0.208910 -0.059359
N4    N     N_R   0.293840 0.847870 0.791090 -0.067007
C5    C     C_R   0.408410 0.972545 0.222186 -0.116441
C6    C     C_R   0.590538 0.093241 0.789713 -0.092123
H3    H     H_    0.323997 0.939542 0.200475 0.097551
H4    H     H_    0.673961 0.152429 0.821168 0.126210
N5    N     N_R   0.443140 0.945920 0.152090 -0.041378
N6    N     N_R   0.556860 0.054080 0.847910 -0.032075
C7    C     C_R   0.590402 0.314392 0.058478 -0.101168
C8    C     C_R   0.408265 0.704617 0.008954 -0.110267
H5    H     H_    0.673568 0.380366 0.104909 0.142091
H6    H     H_    0.325921 0.655573 0.989246 0.172147
N7    N     N_R   0.556830 0.208940 0.002760 -0.030277
N8    N     N_R   0.443170 0.791060 0.997240 -0.050859
C9    C     C_R   0.591316 0.063965 0.313960 -0.129997
C10   C     C_R   0.408977 0.002774 0.699402 -0.123458
H7    H     H_    0.675662 0.115246 0.377226 0.100552
H8    H     H_    0.325553 0.979596 0.648628 0.086303
N9    N     N_R   0.556790 0.002750 0.208910 -0.044208
N10   N     N_R   0.443210 0.997250 0.791090 -0.041663
C11   C     C_R   0.408161 0.220068 0.974858 -0.134010
C12   C     C_R   0.588518 0.790595 0.096555 -0.076421
H9    H     H_    0.324544 0.199173 0.948144 0.103324
H10   H     H_    0.670303 0.817707 0.155221 0.101214
N11   N     N_R   0.443180 0.152110 0.945950 -0.055918
N12   N     N_R   0.556820 0.847890 0.054050 -0.052397
C13   C     C_R   0.800724 0.300858 0.209006 0.287918
C14   C     C_R   0.245505 0.686105 0.777021 0.351376
N13   N     N_R   0.706170 0.208950 0.152090 -0.081473
N14   N     N_R   0.293830 0.791050 0.847910 -0.081646
C15   C     C_R   0.199935 0.910972 0.003058 -0.153010
C16   C     C_R   0.748358 0.028454 0.934706 -0.124523
H11   H     H_    0.172763 0.857638 0.034165 0.137546
H12   H     H_    0.763548 0.064553 0.885582 0.125537
N15   N     N_R   0.293800 0.945910 0.002760 -0.044559
N16   N     N_R   0.706200 0.054090 0.997240 -0.042854
C17   C     C_R   0.139766 0.943188 0.944001 0.013447
C18   C     C_R   0.780037 0.957973 0.954909 0.110747
C19   C     C_R   0.859473 0.305280 0.304811 -0.088115
C20   C     C_R   0.221330 0.677431 0.675208 -0.096746
C21   C     C_R   0.499683 0.048520 0.324501 0.032899
C22   C     C_R   0.499532 0.062922 0.696279 0.024605
C23   C     C_R   0.497638 0.322421 0.039639 0.024811
C24   C     C_R   0.496666 0.701186 0.069014 0.013397
Ni1   Ni    Ni4+2 0.369690 0.999990 0.869700 0.201633
Ni2   Ni    Ni4+2 0.630310 0.000010 0.130300 0.200876
Ni3   Ni    Ni4+2 0.369670 0.869670 0.000000 0.260450
Ni4   Ni    Ni4+2 0.630330 0.130330 0.000000 0.296815
H13   H     H_    0.143775 0.089607 0.555586 0.112087
H14   H     H_    0.860506 0.985232 0.545341 0.122240
C25   C     C_R   0.310456 0.203635 0.683505 -0.125821
C26   C     C_R   0.691541 0.880716 0.420236 -0.119370
H15   H     H_    0.344156 0.178068 0.633656 0.127684
H16   H     H_    0.665617 0.933785 0.457447 0.123712
C27   C     C_R   0.380159 0.287212 0.791624 -0.099627
C28   C     C_R   0.615019 0.783177 0.322667 -0.130982
H17   H     H_    0.467553 0.325286 0.824467 0.128518
H18   H     H_    0.530136 0.761723 0.285743 0.126111
C29   C     C_R   0.336941 0.322357 0.856505 0.075036
C30   C     C_R   0.647976 0.714023 0.273049 0.102803
C31   C     C_R   0.223221 0.273681 0.811248 -0.120876
C32   C     C_R   0.758714 0.743802 0.323987 -0.157758
H19   H     H_    0.188585 0.300831 0.859783 0.145018
H20   H     H_    0.786430 0.692518 0.287212 0.129835
C33   C     C_R   0.153870 0.189639 0.703161 -0.038585
C34   C     C_R   0.834893 0.841285 0.421822 -0.091793
H21   H     H_    0.066377 0.151976 0.668816 0.123041
H22   H     H_    0.920067 0.864006 0.460273 0.119710
C35   C     C_R   0.197478 0.154445 0.639367 -0.134629
C36   C     C_R   0.801377 0.909741 0.469771 -0.078423
C37   C     C_R   0.408057 0.509015 0.984617 -0.193946
C38   C     C_R   0.566651 0.515237 0.154564 -0.222640
H23   H     H_    0.349650 0.506315 0.915490 0.174650
H24   H     H_    0.625882 0.515209 0.220588 0.125938
C39   C     C_R   0.488736 0.607233 0.079166 0.057229
C40   C     C_R   0.490817 0.418732 0.055286 0.085329
C41   C     C_R   0.567047 0.611606 0.167812 0.043074
C42   C     C_R   0.410429 0.415626 0.969220 0.018599
C43   C     C_R   0.050172 0.395319 0.446581 -0.146993
C44   C     C_R   0.040210 0.585752 0.523475 -0.163050
H25   H     H_    0.052694 0.320990 0.416102 0.125848
H26   H     H_    0.034588 0.658164 0.554757 0.126271
C45   C     C_R   0.141597 0.489323 0.536561 -0.059475
C46   C     C_R   0.950358 0.493264 0.434160 -0.100141
H27   H     H_    0.215678 0.488543 0.577641 0.144869
H28   H     H_    0.876012 0.494618 0.395237 0.106916
C47   C     C_R   0.135023 0.583286 0.574973 0.158154
C48   C     C_R   0.955641 0.398783 0.396585 0.191846
C49   C     C_R   0.597181 0.154782 0.619469 -0.155840
C50   C     C_R   0.399899 0.049553 0.426005 -0.146830
H29   H     H_    0.674945 0.195365 0.692899 0.126502
H30   H     H_    0.322059 0.007106 0.352237 0.115344
C51   C     C_R   0.597220 0.153291 0.526278 -0.166912
C52   C     C_R   0.399799 0.049156 0.518261 -0.183618
H31   H     H_    0.674931 0.192266 0.531043 0.120666
H32   H     H_    0.321875 0.005585 0.511218 0.112750
C53   C     C_R   0.498879 0.090476 0.426681 0.136466
C54   C     C_R   0.498780 0.093670 0.612867 0.129856
C55   C     C_R   0.059106 0.044777 0.010328 -0.027908
C56   C     C_R   0.853542 0.850367 0.874883 -0.001901
C57   C     C_R   0.966657 0.045578 0.005645 -0.186400
C58   C     C_R   0.946519 0.849626 0.878612 -0.207011
H33   H     H_    0.973129 0.120155 0.056818 0.174709
H34   H     H_    0.941125 0.775044 0.829229 0.127511
C59   C     C_R   0.865892 0.949891 0.940173 0.077448
C60   C     C_R   0.047132 0.945466 0.945502 0.113727
C61   C     C_2   0.151664 0.012160 0.811382 0.465828
H35   H     H_    0.200279 0.035447 0.774653 0.017225
O1    O     O_2   0.059419 0.998144 0.773103 -0.592391
C62   C     C_2   0.812705 0.911138 0.108709 0.492594
H36   H     H_    0.827197 0.945117 0.191565 -0.015339
O2    O     O_2   0.843965 0.848071 0.079509 -0.575605
C63   C     C_2   0.167017 0.146636 0.085385 0.505004
H37   H     H_    0.242162 0.145880 0.099401 0.012515
O3    O     O_2   0.173432 0.233279 0.133501 -0.562751
C64   C     C_2   0.747552 0.746926 0.803385 0.572716
H38   H     H_    0.745519 0.672312 0.759970 0.001935
O4    O     O_2   0.661677 0.743185 0.790750 -0.575997
N17   N     N_R   0.846063 0.358152 0.160455 0.223207
O5    O     O_R   0.941308 0.445828 0.219524 -0.388830
O6    O     O_R   0.797285 0.316315 0.054835 -0.432686
N18   N     N_R   0.190908 0.601530 0.795913 0.213901
O7    O     O_R   0.146565 0.618081 0.856261 -0.424835
O8    O     O_R   0.180042 0.506350 0.748830 -0.440638

loop_
_geom_bond_atom_site_label_1
_geom_bond_atom_site_label_2
_geom_bond_distance
_ccdc_geom_bond_type
N6    N10   1.393795 A    
C12   H10   1.074187 S    
C27   H17   1.083225 S    
C20   C47   1.420177 S    
C43   C45   1.383845 A    
N1    Ni1   1.864870 S    
N18   O8    1.300192 A    
C38   C40   1.401632 A    
C13   C19   1.370936 A    
C7    C23   1.384515 A    
N6    Ni4   1.863643 S    
C2    C62   1.472290 S    
N9    Ni2   1.864482 S    
C8    C24   1.360774 A    
C15   H11   1.081214 S    
C2    C18   1.389198 A    
C16   C18   1.376483 A    
C3    C19   1.372210 A    
C26   C36   1.397101 A    
C50   C53   1.400468 A    
C34   H22   1.082589 S    
C28   C30   1.408060 A    
C13   N13   1.324985 A    
C40   C42   1.412251 A    
C57   H33   1.085786 S    
C9    C21   1.390409 A    
N7    N11   1.393795 A    
C61   H35   1.084823 S    
C11   N11   1.321809 A    
C46   C48   1.392215 A    
C26   H16   1.082784 S    
C31   H19   1.083099 S    
N4    Ni1   1.876256 S    
C62   H36   1.084443 S    
N13   Ni4   1.864041 S    
C5    N5    1.330552 A    
C17   C60   1.414214 S    
N14   Ni3   1.864044 S    
C6    N6    1.333511 A    
C61   O1    1.220596 D    
C32   C34   1.398978 A    
C19   C48   1.413705 S    
C31   C33   1.398134 A    
C9    N9    1.333593 A    
C58   C60   1.394890 A    
C57   C59   1.394770 A    
C15   C17   1.366553 A    
C16   H12   1.080444 S    
C44   C47   1.395149 A    
C51   H31   1.080809 S    
N11   Ni1   1.876220 S    
C30   C41   1.487409 S    
C33   H21   1.082213 S    
C25   C35   1.397445 A    
C56   C64   1.486298 S    
C46   H28   1.084769 S    
C49   H29   1.080302 S    
C62   O2    1.220296 D    
C10   C22   1.381886 A    
N8    N12   1.393797 A    
C27   C29   1.403843 A    
C25   H15   1.078143 S    
C51   C53   1.401290 A    
C12   N12   1.341343 A    
H13   C35   1.082407 S    
C38   H24   1.084297 S    
C3    H1    1.081518 S    
C4    H2    1.080654 S    
N2    N16   1.383030 A    
C50   C52   1.379098 A    
C7    N7    1.338428 A    
C1    N1    1.328291 A    
N5    Ni3   1.863640 S    
C56   C59   1.407554 A    
C24   C39   1.438459 S    
C2    N2    1.332398 A    
N17   O6    1.300801 A    
C55   C60   1.405503 A    
C3    N3    1.334544 A    
C38   C41   1.396776 A    
C5    C21   1.389116 A    
C14   N18   1.430800 S    
C45   H27   1.083413 S    
N16   Ni4   1.874984 S    
N5    N9    1.393795 A    
N1    N15   1.383030 A    
C43   C48   1.395140 A    
N3    N13   1.383150 A    
C44   C46   1.364722 A    
C52   H32   1.080126 S    
C63   H37   1.084020 S    
C4    C20   1.381180 A    
C49   C54   1.402321 A    
N15   Ni3   1.874985 S    
C39   C41   1.409653 A    
C44   H26   1.084378 S    
N12   Ni2   1.876220 S    
C50   H30   1.080027 S    
C43   H25   1.083481 S    
C55   C63   1.491975 S    
N17   O5    1.300711 A    
C13   N17   1.437052 S    
C64   O4    1.220759 D    
C11   C23   1.371269 A    
C12   C24   1.374220 A    
C29   C42   1.484670 S    
C18   C59   1.419561 S    
N2    Ni2   1.864872 S    
C8    N8    1.318992 A    
C21   C53   1.457909 S    
C10   N10   1.331240 A    
C10   H8    1.079931 S    
C4    N4    1.326134 A    
N7    Ni4   1.874952 S    
C6    C22   1.382988 A    
N10   Ni1   1.864484 S    
C37   H23   1.085339 S    
N8    Ni3   1.874950 S    
C25   C27   1.396772 A    
N4    N14   1.383150 A    
C26   C28   1.398228 A    
C14   N14   1.331611 A    
N18   O7    1.301069 A    
C6    H4    1.079653 S    
C11   H9    1.075022 S    
C37   C39   1.393445 A    
C5    H3    1.075831 S    
C1    C17   1.369588 A    
C55   C57   1.374445 A    
C7    H5    1.078775 S    
C56   C58   1.386196 A    
C14   C20   1.388068 A    
C8    H6    1.077610 S    
C9    H7    1.077115 S    
C58   H34   1.085109 S    
C63   O3    1.221870 D    
H14   C36   1.082355 S    
C45   C47   1.397046 A    
C16   N16   1.325585 A    
C15   N15   1.331762 A    
C30   C32   1.407086 A    
C34   C36   1.397328 A    
C52   C54   1.401287 A    
C22   C54   1.457963 S    
C33   C35   1.397210 A    
C32   H20   1.083016 S    
N3    Ni2   1.876256 S    
C1    C61   1.475556 S    
C29   C31   1.405893 A    
C23   C40   1.437162 S    
C37   C42   1.364239 A    
C49   C51   1.383808 A    
C28   H18   1.083067 S    
C64   H38   1.085730 S    
