data_mof_unit_46083.cif
_audit_creation_date              2012-12-11T16:31:31-0500
_audit_creation_method            fapswitch 2.2
_symmetry_space_group_name_H-M    P1
_symmetry_Int_Tables_number       1
_space_group_crystal_system       triclinic
_cell_length_a                    7.019708
_cell_length_b                    18.055442
_cell_length_c                    20.43199
_cell_angle_alpha                 68.348072
_cell_angle_beta                  90.557945
_cell_angle_gamma                 91.72306
_cell_volume                      2405.8218936

loop_
_atom_site_label
_atom_site_type_symbol
_atom_type_description
_atom_site_fract_x
_atom_site_fract_y
_atom_site_fract_z
_atom_type_partial_charge
O1    O     O_R   0.488990 0.443920 0.942160 -0.519306
O2    O     O_R   0.823840 0.406530 0.087600 -0.543673
O3    O     O_R   0.999650 0.556080 0.057840 -0.532311
C1    C     C_R   0.652015 0.379876 0.112165 0.753559
O4    O     O_R   0.818390 0.434590 0.944530 -0.533136
O5    O     O_R   0.994160 0.584350 0.913750 -0.544131
C2    C     C_R   0.648544 0.422939 0.922430 0.746943
O6    O     O_R   0.494480 0.415650 0.086250 -0.528182
O7    O     O_3   0.662600 0.549100 0.990070 -0.371257
V1    V     V_3+5 0.935320 0.490890 0.001840 1.582783
O8    O     O_R   0.324240 0.593470 0.912400 -0.533592
C3    C     C_R   0.156713 0.618414 0.886125 0.753355
O9    O     O_R   0.329690 0.565410 0.055470 -0.520124
C4    C     C_R   0.163290 0.576599 0.078133 0.753258
V2    V     V_3+5 0.435990 0.509110 0.998160 1.613541
O10   O     O_3   0.158840 0.450900 0.009930 -0.358899
C5    C     C_3   0.992244 0.666127 0.269885 0.810696
C6    C     C_3   0.342857 0.708837 0.245845 0.960466
C7    C     C_3   0.326994 0.753128 0.298534 0.956838
C8    C     C_1   0.108405 0.874332 0.379033 0.000214
C9    C     C_3   0.145056 0.705666 0.210218 -0.627886
C10   C     C_3   0.970836 0.718974 0.315831 0.147288
C11   C     C_3   0.124895 0.788262 0.295013 -0.550468
C12   C     C_3   0.088072 0.842941 0.216987 0.316586
C13   C     C_3   0.084285 0.793821 0.167815 0.795366
C14   C     C_1   0.114986 0.835755 0.341331 0.393715
C15   C     C_1   0.154765 0.659517 0.162646 0.401291
C16   C     C_1   0.159519 0.621776 0.124140 -0.020418
H1    H     H_    0.828913 0.746771 0.304119 0.267217
H2    H     H_    0.202762 0.890041 0.199974 0.182295
C17   C     C_R   0.074872 0.786591 0.872900 0.250667
C18   C     C_R   0.986271 0.857593 0.866802 0.468452
C19   C     C_R   0.937580 0.911713 0.801148 -0.140547
C20   C     C_R   0.982250 0.897700 0.741008 -0.252814
C21   C     C_R   0.062608 0.825211 0.745032 0.011106
C22   C     C_R   0.096087 0.765191 0.812673 -0.053348
C23   C     C_R   0.113638 0.813523 0.682633 -0.072556
C24   C     C_R   0.177257 0.737774 0.686945 -0.107820
C25   C     C_R   0.192764 0.674850 0.754213 -0.092455
C26   C     C_R   0.152498 0.687880 0.817212 -0.044899
C27   C     C_R   0.219694 0.721597 0.625568 0.444945
C28   C     C_R   0.276129 0.646065 0.630800 0.312714
C29   C     C_R   0.289279 0.585057 0.696331 0.592256
C30   C     C_R   0.248016 0.598918 0.757126 -0.340891
H3    H     H_    0.872671 0.967006 0.796278 0.232293
H4    H     H_    0.950696 0.944631 0.691434 0.143922
H5    H     H_    0.259995 0.548930 0.806464 0.171713
C31   C     C_R   0.583486 0.210138 0.124579 0.173086
C32   C     C_R   0.603491 0.132151 0.127863 0.291493
C33   C     C_R   0.623552 0.070834 0.191996 0.606084
C34   C     C_R   0.622220 0.085134 0.254464 0.129808
C35   C     C_R   0.622301 0.165650 0.253256 -0.146997
C36   C     C_R   0.614251 0.229892 0.185604 -0.100888
C37   C     C_R   0.630107 0.183926 0.316071 -0.028054
C38   C     C_R   0.648091 0.265323 0.310886 -0.101162
C39   C     C_R   0.635976 0.327774 0.243411 -0.060117
C40   C     C_R   0.632411 0.310891 0.181094 0.008173
C41   C     C_R   0.680554 0.288507 0.370270 0.121999
C42   C     C_R   0.667029 0.368127 0.363634 0.666859
C43   C     C_R   0.636334 0.426965 0.298623 0.622716
C44   C     C_R   0.627434 0.407848 0.239042 -0.412648
H6    H     H_    0.611220 0.457134 0.189477 0.181132
O11   O     O_R   0.770890 0.084490 0.414040 -0.512663
O12   O     O_R   0.445980 0.065450 0.555510 -0.537576
O13   O     O_R   0.270670 0.915620 0.586180 -0.532679
C45   C     C_R   0.615631 0.077510 0.577450 0.725707
O14   O     O_R   0.441480 0.093500 0.412450 -0.539427
O15   O     O_R   0.266140 0.943870 0.442100 -0.505870
C46   C     C_R   0.612618 0.118297 0.386400 0.845927
O16   O     O_R   0.775410 0.056240 0.558120 -0.530123
O17   O     O_3   0.602660 0.950990 0.510100 -0.355132
V3    V     V_3+5 0.329740 0.009100 0.498130 1.643816
O18   O     O_R   0.936120 0.934420 0.444240 -0.513326
C47   C     C_R   0.103071 0.920636 0.423896 0.804280
O19   O     O_R   0.940610 0.906370 0.587310 -0.556339
C48   C     C_R   0.108041 0.882368 0.613940 0.784232
V4    V     V_3+5 0.829110 0.990690 0.501470 1.652048
O20   O     O_3   0.106080 0.049010 0.489880 -0.372101
C49   C     C_3   0.845155 0.227306 0.727058 0.797956
C50   C     C_3   0.538809 0.291819 0.668833 0.564977
C51   C     C_3   0.509266 0.332010 0.724398 0.394061
H7    H     H_    0.545925 0.396650 0.699982 0.210248
C52   C     C_1   0.635490 0.377966 0.876549 -0.022723
C53   C     C_3   0.636388 0.209034 0.707100 -0.552917
C54   C     C_3   0.842444 0.289497 0.766059 0.515631
C55   C     C_3   0.634439 0.292297 0.791958 -0.564370
C56   C     C_3   0.565592 0.202518 0.832431 0.849672
C57   C     C_3   0.521170 0.162892 0.777404 0.731427
C58   C     C_1   0.629764 0.339982 0.838308 0.334290
C59   C     C_1   0.635413 0.161797 0.660388 0.343129
C60   C     C_1   0.628275 0.123350 0.622573 -0.029717
Cl1   Cl    Cl    0.961676 0.663268 0.409372 -0.245167
F1    F     F_    0.817388 0.661820 0.239196 -0.491183
F2    F     F_    0.341089 0.511411 0.701454 -0.584452
Cl2   Cl    Cl    0.194273 0.737850 0.952460 -0.555008
Cl3   Cl    Cl    0.941298 0.882725 0.940608 -0.250863
F3    F     F_    0.202328 0.777438 0.559852 -0.662872
Cl4   Cl    Cl    0.328149 0.627418 0.554332 -0.228098
Cl5   Cl    Cl    0.046193 0.563916 0.321269 -0.286200
F4    F     F_    0.624730 0.503950 0.292641 -0.486316
Cl6   Cl    Cl    0.476700 0.274509 0.047094 -0.550540
Cl7   Cl    Cl    0.592569 0.108020 0.051717 -0.208012
F5    F     F_    0.632250 0.994987 0.193760 -0.476191
Cl8   Cl    Cl    0.620782 0.995873 0.329638 -0.525744
Cl9   Cl    Cl    0.774352 0.226727 0.451235 -0.530407
F6    F     F_    0.691971 0.389310 0.420462 -0.472801
Cl10  Cl    Cl    0.928547 0.387450 0.710056 -0.340048
F7    F     F_    0.478760 0.747489 0.195028 -0.499376
F8    F     F_    0.951187 0.258398 0.666366 -0.495666
Cl11  Cl    Cl    0.320765 0.281603 0.626763 -0.200692
Cl12  Cl    Cl    0.671349 0.357901 0.594016 -0.239108
F9    F     F_    0.320508 0.327058 0.743853 -0.486938
Cl13  Cl    Cl    0.554275 0.056871 0.814578 -0.403241
F10   F     F_    0.330795 0.169204 0.762098 -0.527129
F11   F     F_    0.706046 0.160235 0.877664 -0.538259
Cl14  Cl    Cl    0.956272 0.135363 0.777537 -0.320319
Cl15  Cl    Cl    0.001080 0.267199 0.839088 -0.269161
F12   F     F_    0.407892 0.632721 0.281038 -0.484581
Cl16  Cl    Cl    0.372009 0.190504 0.891162 -0.193100
F13   F     F_    0.363350 0.700931 0.366485 -0.504897
F14   F     F_    0.464192 0.814251 0.282329 -0.558078
F15   F     F_    0.901498 0.793159 0.141544 -0.446250
Cl17  Cl    Cl    0.232553 0.843502 0.092081 -0.258743
F16   F     F_    0.917812 0.881841 0.211531 -0.479246

loop_
_geom_bond_atom_site_label_1
_geom_bond_atom_site_label_2
_ccdc_geom_bond_type
C2    C52   S    
C56   C57   S    
C10   H1    S    
C6    C9    S    
C19   H3    S    
O18   C47   A    
O2    C1    A    
C21   C22   A    
C49   C54   S    
C1    O6    A    
C51   H7    S    
C45   O16   A    
V4    O20   S    
O13   C48   A    
C21   C23   A    
C20   C21   A    
C28   Cl4   S    
O5    C3    A    
C49   C53   S    
O15   C47   A    
V2    O10   S    
C12   F16   S    
C29   F2    S    
C39   C40   A    
O14   V3    S    
C27   C28   A    
C11   C14   S    
C57   Cl13  S    
V3    O20   S    
O8    V2    S    
O11   C46   A    
C1    C40   S    
C11   C12   S    
C20   H4    S    
C13   F15   S    
C6    F12   S    
C17   C22   A    
C56   F11   S    
C51   C55   S    
C30   H5    S    
C50   C53   S    
O11   V4    S    
C9    C15   S    
C42   C43   A    
C13   Cl17  S    
O1    C2    A    
O9    C4    A    
O16   V4    S    
C57   F10   S    
C53   C59   S    
O4    V1    S    
C35   C37   A    
C33   C34   A    
C6    F7    S    
C31   C36   A    
C52   C58   T    
C42   F6    S    
C49   F8    S    
C34   C35   A    
C22   C26   A    
C12   C13   S    
C24   C27   A    
C32   Cl7   S    
O4    C2    A    
C36   C40   A    
C55   C56   S    
C6    C7    S    
C34   Cl8   S    
C54   C55   S    
C5    C9    S    
C43   C44   A    
O14   C46   A    
O12   C45   A    
C3    C26   S    
C7    C11   S    
O19   C48   A    
C56   Cl16  S    
C23   C24   A    
C5    Cl5   S    
C17   C18   A    
C51   F9    S    
O15   V3    S    
C38   C39   A    
C19   C20   A    
C8    C47   S    
C54   Cl15  S    
O19   V4    S    
C45   C60   S    
O3    C4    A    
O1    V2    S    
C31   C32   A    
C18   Cl3   S    
C23   C48   S    
C7    F13   S    
O6    V2    S    
O9    V2    S    
C29   C30   A    
C27   F3    S    
C5    F1    S    
C28   C29   A    
O2    V1    S    
O17   V4    S    
C35   C36   A    
O7    V1    S    
C9    C13   S    
C37   C38   A    
C7    F14   S    
O18   V4    S    
C10   C11   S    
C53   C57   S    
C50   C51   S    
C43   F4    S    
C55   C58   S    
O5    V1    S    
O8    C3    A    
C25   C30   A    
O13   V3    S    
C5    C10   S    
C41   Cl9   S    
C18   C19   A    
C41   C42   A    
O17   V3    S    
O3    V1    S    
V1    O10   S    
C49   Cl14  S    
C59   C60   T    
C24   C25   A    
C37   C46   S    
C8    C14   T    
C17   Cl2   S    
C31   Cl6   S    
C50   Cl12  S    
O12   V3    S    
O7    V2    S    
C44   H6    S    
C12   H2    S    
C25   C26   A    
C33   F5    S    
C32   C33   A    
C38   C41   A    
C50   Cl11  S    
C15   C16   T    
C10   Cl1   S    
C39   C44   A    
C4    C16   S    
C54   Cl10  S    
