data_mof_unit_32476.cif
_audit_creation_date              2012-12-10T19:45:43-0500
_audit_creation_method            fapswitch 2.2
_symmetry_space_group_name_H-M    P1
_symmetry_Int_Tables_number       1
_space_group_crystal_system       triclinic
_cell_length_a                    10.870538
_cell_length_b                    14.683614
_cell_length_c                    14.689259
_cell_angle_alpha                 65.130716
_cell_angle_beta                  103.206326
_cell_angle_gamma                 102.593478
_cell_volume                      2051.16510648

loop_
_atom_site_label
_atom_site_type_symbol
_atom_type_description
_atom_site_fract_x
_atom_site_fract_y
_atom_site_fract_z
_atom_type_partial_charge
C1    C     C_R   0.477169 0.119726 0.312118 0.823797
C2    C     C_R   0.660742 0.779214 0.966945 0.536027
C3    C     C_R   0.379683 0.152243 0.131823 -0.269186
C4    C     C_R   0.620315 0.847757 0.868177 -0.269133
C5    C     C_R   0.502191 0.289908 0.175672 -0.236890
C6    C     C_R   0.497803 0.710092 0.824329 -0.236895
C7    C     C_R   0.472229 0.360143 0.076031 -0.010804
C8    C     C_R   0.527763 0.639857 0.923970 -0.010797
C9    C     C_R   0.380887 0.326326 0.006354 -0.044583
C10   C     C_R   0.619104 0.673674 0.993647 -0.044596
C11   C     C_R   0.525127 0.464161 0.046795 0.035804
C12   C     C_R   0.522831 0.880274 0.687882 0.823797
C13   C     C_R   0.474864 0.535840 0.953207 0.035803
C14   C     C_R   0.370780 0.502161 0.892264 -0.328588
C15   C     C_R   0.629209 0.497840 0.107739 -0.328579
C16   C     C_R   0.263019 0.999384 0.502792 0.788493
C17   C     C_R   0.736981 0.000616 0.497207 0.788492
C18   C     C_R   0.327855 0.398676 0.914220 0.503557
C19   C     C_R   0.672134 0.601325 0.085782 0.503549
C20   C     C_R   0.709801 0.283753 0.670722 -0.392686
C21   C     C_R   0.290199 0.716247 0.329278 -0.392695
C22   C     C_R   0.681010 0.202088 0.639311 0.728780
C23   C     C_R   0.870134 0.000237 0.494868 -0.085616
C24   C     C_R   0.318991 0.797913 0.360688 0.728783
C25   C     C_R   0.520855 0.286356 0.507660 -0.084833
C26   C     C_R   0.479144 0.713643 0.492340 -0.084833
C27   C     C_R   0.549837 0.372237 0.533837 -0.020914
C28   C     C_R   0.450162 0.627763 0.466164 -0.020914
C29   C     C_R   0.644464 0.367778 0.618838 0.086002
C30   C     C_R   0.355535 0.632221 0.381163 0.086007
C31   C     C_R   0.485540 0.460009 0.481684 0.080913
C32   C     C_R   0.514457 0.539990 0.518317 0.080914
C33   C     C_R   0.606915 0.529686 0.605526 -0.247002
C34   C     C_R   0.129866 0.999763 0.505130 -0.085617
C35   C     C_R   0.393083 0.470313 0.394475 -0.247001
C36   C     C_R   0.671576 0.446007 0.653614 -0.182430
C37   C     C_R   0.328422 0.553992 0.346387 -0.182431
C38   C     C_R   0.345240 0.144648 0.728305 0.223282
C39   C     C_R   0.654758 0.855350 0.271695 0.223299
C40   C     C_R   0.265150 0.082962 0.681505 -0.135805
C41   C     C_R   0.734849 0.917038 0.318495 -0.135793
C42   C     C_R   0.179842 0.125719 0.592386 0.092650
C43   C     C_R   0.820157 0.874281 0.407614 0.092645
C44   C     C_R   0.172950 0.230147 0.553176 -0.178972
C45   C     C_R   0.908770 0.938831 0.456582 0.012463
C46   C     C_R   0.827050 0.769853 0.446825 -0.178972
C47   C     C_R   0.250823 0.290807 0.601700 -0.209368
C48   C     C_R   0.749176 0.709192 0.398302 -0.209370
C49   C     C_R   0.337155 0.248206 0.689037 -0.094052
C50   C     C_R   0.662843 0.751793 0.310966 -0.094057
C51   C     C_R   0.961865 0.060903 0.536653 -0.241092
C52   C     C_R   0.038134 0.939098 0.463345 -0.241088
C53   C     C_3   0.161532 0.116050 0.993794 -0.257646
C54   C     C_3   0.838540 0.883857 0.006226 -0.257564
C55   C     C_3   0.133459 0.867954 0.265039 -0.407090
C56   C     C_R   0.091230 0.061170 0.543416 0.012462
C57   C     C_3   0.866546 0.132051 0.734952 -0.407061
C58   C     C_3   0.219102 0.422446 0.750991 -0.302847
C59   C     C_3   0.780891 0.577551 0.249013 -0.302874
C60   C     C_R   0.454547 0.187431 0.204352 -0.122152
C61   C     C_R   0.545451 0.812569 0.795648 -0.122177
C62   C     C_R   0.339251 0.220786 0.033054 0.536068
Cu1   Cu    Cu3+1 0.466270 0.918260 0.475690 0.981680
Cu2   Cu    Cu3+1 0.533730 0.081740 0.524310 0.981682
H1    H     H_    0.399092 0.295842 0.725308 0.161788
H2    H     H_    0.219702 0.718396 0.263390 0.160532
H3    H     H_    0.631752 0.585182 0.639000 0.140819
H4    H     H_    0.368245 0.414816 0.361001 0.140820
H5    H     H_    0.270538 0.002416 0.713476 0.130254
H6    H     H_    0.729460 0.997583 0.286523 0.130259
H7    H     H_    0.106930 0.264444 0.485181 0.137100
H8    H     H_    0.893070 0.735556 0.514819 0.137100
H9    H     H_    0.245129 0.371161 0.570882 0.148476
H10   H     H_    0.754869 0.628838 0.429121 0.148477
H11   H     H_    0.933071 0.107468 0.566799 0.177157
H12   H     H_    0.600906 0.704155 0.274695 0.161791
H13   H     H_    0.066929 0.892534 0.433198 0.177159
H14   H     H_    0.442475 0.685585 0.765710 0.160187
H15   H     H_    0.557518 0.314415 0.234291 0.160186
H16   H     H_    0.650979 0.928186 0.846736 0.210662
H17   H     H_    0.349025 0.071813 0.153266 0.210648
H18   H     H_    0.113937 0.137762 0.039926 0.140902
H19   H     H_    0.187927 0.038510 0.036930 0.165719
H20   H     H_    0.090857 0.114117 0.926721 0.178076
H21   H     H_    0.812246 0.961419 0.962989 0.165603
H22   H     H_    0.886152 0.862017 0.960202 0.140938
H23   H     H_    0.317358 0.555927 0.829263 0.150539
H24   H     H_    0.909163 0.885816 0.073316 0.178085
H25   H     H_    0.085920 0.934068 0.248412 0.192702
H26   H     H_    0.078760 0.799781 0.316831 0.164344
H27   H     H_    0.129951 0.862526 0.191311 0.173616
H28   H     H_    0.914086 0.065938 0.751577 0.192691
H29   H     H_    0.870064 0.137482 0.808680 0.173645
H30   H     H_    0.921240 0.200224 0.683155 0.164337
H31   H     H_    0.315482 0.439487 0.728660 0.149300
H32   H     H_    0.176562 0.493084 0.725351 0.150081
H33   H     H_    0.156272 0.376147 0.710799 0.191048
H34   H     H_    0.682632 0.444074 0.170740 0.150537
H35   H     H_    0.823435 0.506917 0.274646 0.150088
H36   H     H_    0.684513 0.560505 0.271347 0.149310
H37   H     H_    0.843721 0.623849 0.289207 0.191047
H38   H     H_    0.742735 0.441943 0.719839 0.152777
H39   H     H_    0.257263 0.558057 0.280162 0.152773
H40   H     H_    0.554465 0.719090 0.552408 0.155754
H41   H     H_    0.445534 0.280909 0.447593 0.155754
H42   H     H_    0.780298 0.281604 0.736610 0.160542
I1    I     I_    0.481011 0.082838 0.856134 -0.331071
I2    I     I_    0.518986 0.917159 0.143868 -0.331087
N1    N     N_R   0.584450 0.204570 0.560790 -0.219330
N2    N     N_R   0.415550 0.795430 0.439210 -0.219330
O1    O     O_R   0.455540 0.022090 0.338120 -0.526933
O2    O     O_3   0.730768 0.813867 0.040895 -0.520772
O3    O     O_3   0.261119 0.885595 0.309702 -0.549874
O4    O     O_3   0.738884 0.114406 0.690297 -0.549877
O5    O     O_3   0.220444 0.366985 0.856369 -0.537322
O6    O     O_3   0.779543 0.633018 0.143634 -0.537350
O7    O     O_R   0.544460 0.977910 0.661880 -0.526934
O8    O     O_R   0.512510 0.160150 0.379180 -0.607889
O9    O     O_R   0.487490 0.839850 0.620820 -0.607887
O10   O     O_R   0.291160 0.930970 0.479480 -0.554133
O11   O     O_R   0.708840 0.069030 0.520520 -0.554133
O12   O     O_R   0.348130 0.069020 0.520540 -0.585438
O13   O     O_R   0.651870 0.930980 0.479460 -0.585440
O14   O     O_3   0.269223 0.186141 0.959096 -0.520773

loop_
_geom_bond_atom_site_label_1
_geom_bond_atom_site_label_2
_ccdc_geom_bond_type
C38   C40   A    
C34   C56   A    
C8    C13   A    
C23   C45   A    
C57   H28   S    
C21   H2    S    
C27   C29   A    
C59   H35   S    
C14   C18   A    
C62   O14   S    
C25   H41   S    
C39   C41   A    
C38   C49   A    
C7    C11   A    
C29   C36   A    
C2    O2    S    
C17   C23   S    
C49   H1    S    
C53   H20   S    
C19   O6    S    
C6    C61   A    
C35   C37   A    
C51   H11   S    
C14   H23   S    
C4    H16   S    
C55   H26   S    
C16   O10   A    
C6    H14   S    
Cu2   O11   S    
C33   C36   A    
Cu2   O8    S    
C44   H7    S    
C36   H38   S    
C51   C56   A    
C38   I1    S    
C58   H32   S    
C55   H27   S    
C26   H40   S    
C15   C19   A    
C11   C15   A    
C17   O13   A    
C59   O6    S    
C3    H17   S    
C5    H15   S    
C26   N2    A    
C46   H8    S    
C44   C47   A    
C25   N1    A    
C42   C56   S    
C3    C60   A    
C40   C42   A    
C24   O3    S    
C57   H29   S    
C13   C14   A    
C59   H36   S    
C41   C43   A    
C58   H33   S    
C42   C44   A    
C20   H42   S    
C20   C29   A    
C39   I2    S    
C46   C48   A    
C40   H5    S    
Cu1   O13   S    
C27   C31   A    
C9    C62   A    
C59   H37   S    
C48   H10   S    
C28   C32   A    
C24   N2    A    
C47   H9    S    
C47   C49   A    
C1    C60   S    
C54   H22   S    
C6    C8    A    
C55   O3    S    
C45   C52   A    
C4    C61   A    
Cu2   O7    S    
Cu1   Cu2   S    
C30   C37   A    
C53   H18   S    
C2    C4    A    
C58   H31   S    
C50   H12   S    
C12   O9    A    
Cu1   O9    S    
C23   C51   A    
C31   C32   A    
C10   C19   A    
C22   N1    A    
C16   C34   S    
C54   O2    S    
C43   C45   S    
C16   O12   A    
C17   O11   A    
C20   C22   A    
C57   H30   S    
C58   O5    S    
C31   C35   A    
C15   H34   S    
C52   H13   S    
C2    C10   A    
C33   H3    S    
C5    C7    A    
C3    C62   A    
C7    C9    A    
C12   C61   S    
C5    C60   A    
C26   C28   A    
C53   O14   S    
C18   O5    S    
C54   H21   S    
C37   H39   S    
C57   O4    S    
C25   C27   A    
C21   C30   A    
C34   C52   A    
C53   H19   S    
C32   C33   A    
Cu1   N2    S    
C28   C30   A    
C55   H25   S    
C1    O1    A    
C54   H24   S    
Cu1   O10   S    
C11   C13   A    
Cu2   N1    S    
C35   H4    S    
Cu2   O12   S    
C48   C50   A    
C1    O8    A    
Cu1   O1    S    
C43   C46   A    
C12   O7    A    
C9    C18   A    
C22   O4    S    
C39   C50   A    
C8    C10   A    
C21   C24   A    
C41   H6    S    
