data_mof_unit_57882.cif
_audit_creation_date              2012-12-10T17:34:26-0500
_audit_creation_method            fapswitch 2.2
_symmetry_space_group_name_H-M    P1
_symmetry_Int_Tables_number       1
_space_group_crystal_system       triclinic
_cell_length_a                    12.454887
_cell_length_b                    13.055512
_cell_length_c                    14.309272
_cell_angle_alpha                 75.798308
_cell_angle_beta                  101.230093
_cell_angle_gamma                 117.307293
_cell_volume                      1995.12988692

loop_
_atom_site_label
_atom_site_type_symbol
_atom_type_description
_atom_site_fract_x
_atom_site_fract_y
_atom_site_fract_z
_atom_type_partial_charge
C1    C     C_R   0.854938 0.284694 0.510274 0.777483
C2    C     C_1   0.998361 0.501489 0.228450 -0.185908
C3    C     C_R   0.286414 0.036665 0.380379 -0.235476
C4    C     C_R   0.228123 0.842472 0.477329 -0.051056
C5    C     C_R   0.809066 0.070809 0.577266 -0.055962
C6    C     C_R   0.727998 0.950296 0.583160 0.008276
C7    C     C_R   0.608175 0.919306 0.541621 -0.173255
C8    C     C_R   0.567297 0.004914 0.495672 0.054249
C9    C     C_R   0.654854 0.119886 0.468041 0.040931
C10   C     C_R   0.442167 0.978584 0.472349 0.009755
C11   C     C_R   0.409276 0.059413 0.401102 0.084214
C12   C     C_R   0.001327 0.500460 0.668666 0.839055
C13   C     C_R   0.500413 0.163913 0.355577 0.150056
C14   C     C_R   0.621653 0.193910 0.391418 -0.223436
C15   C     C_R   0.348572 0.877293 0.520257 0.087341
C16   C     C_R   0.195047 0.930054 0.418576 0.110992
C17   C     C_R   0.773391 0.156910 0.516905 -0.167500
C18   C     C_R   0.354090 0.356881 0.679829 0.059739
C19   C     C_R   0.758020 0.652876 0.374412 0.261689
C20   C     C_R   0.689393 0.714039 0.374598 -0.079121
C21   C     C_R   0.592584 0.660614 0.430690 -0.141133
C22   C     C_R   0.566749 0.551787 0.490014 -0.040660
C23   C     C_R   0.145064 0.715314 0.489046 0.799350
C24   C     C_R   0.659229 0.511165 0.511113 0.179302
C25   C     C_R   0.457125 0.489889 0.537730 -0.101615
C26   C     C_R   0.459173 0.417808 0.628624 0.101171
C27   C     C_R   0.564341 0.403050 0.663733 -0.231862
C28   C     C_R   0.649888 0.428097 0.600935 0.019954
C29   C     C_R   0.345321 0.495824 0.498088 0.109122
C30   C     C_R   0.249458 0.370426 0.638518 0.059080
C31   C     C_R   0.999551 0.500804 0.331198 0.822553
C32   C     C_1   0.003268 0.500950 0.771308 -0.140316
C33   C     C_1   0.003053 0.501349 0.856707 0.007285
C34   C     C_1   0.001659 0.501681 0.957150 0.008944
C35   C     C_1   0.000210 0.501814 0.042409 0.009253
C36   C     C_1   0.998775 0.501763 0.142931 -0.007370
Cu1   Cu    Cu3+1 0.098280 0.475420 0.520190 0.970429
Cu2   Cu    Cu3+1 0.901720 0.524580 0.479810 0.930093
H1    H     H_    0.568617 0.350021 0.734322 0.181445
H2    H     H_    0.539993 0.707152 0.431262 0.209786
H3    H     H_    0.260013 0.101937 0.334309 0.150080
H4    H     H_    0.545223 0.827591 0.547691 0.181868
H5    H     H_    0.690665 0.274242 0.356648 0.157210
H6    H     H_    0.169219 0.327596 0.677240 0.137352
N1    N     N_R   0.246290 0.438200 0.550780 -0.209190
N2    N     N_R   0.754310 0.561180 0.449760 -0.199955
O1    O     O_R   0.972510 0.318130 0.525390 -0.565190
O2    O     O_R   0.806530 0.359650 0.491290 -0.596115
O3    O     O_R   0.083010 0.479240 0.641000 -0.590105
O4    O     O_R   0.917030 0.520750 0.606900 -0.529498
O5    O     O_R   0.193470 0.640350 0.508710 -0.521859
O6    O     O_R   0.027490 0.681870 0.474610 -0.594643
O7    O     O_R   0.082970 0.479250 0.393100 -0.525579
O8    O     O_R   0.916990 0.520760 0.359000 -0.577458
C37   C     C_3   0.066758 0.919347 0.402145 -0.434297
C38   C     C_3   0.022742 0.914359 0.496297 -0.706493
H7    H     H_    0.930445 0.911118 0.481481 0.238255
H8    H     H_    0.018904 0.835823 0.550240 0.252211
H9    H     H_    0.085287 0.993834 0.527450 0.278368
H10   H     H_    0.061038 0.995664 0.349841 0.192029
H11   H     H_    0.004851 0.843116 0.369045 0.202101
C39   C     C_3   0.347500 0.274233 0.776182 -0.425524
C40   C     C_3   0.330577 0.155101 0.762292 -0.794640
H12   H     H_    0.244696 0.113982 0.716533 0.279864
H13   H     H_    0.407003 0.163590 0.727287 0.242712
H14   H     H_    0.325834 0.096592 0.833801 0.245156
H15   H     H_    0.428938 0.313178 0.826713 0.206655
H16   H     H_    0.269297 0.259295 0.812882 0.199725
C41   C     C_2   0.330211 0.549249 0.395702 0.409838
H17   H     H_    0.343209 0.514631 0.339355 0.033796
O9    O     O_2   0.311759 0.636575 0.373721 -0.524788
C42   C     C_3   0.817402 0.678257 0.282728 -0.380232
C43   C     C_3   0.742321 0.582533 0.222079 -0.786675
H18   H     H_    0.725727 0.494809 0.265390 0.255429
H19   H     H_    0.653126 0.584108 0.194847 0.235032
H20   H     H_    0.790970 0.597526 0.159162 0.240907
H21   H     H_    0.822912 0.760521 0.234492 0.153071
H22   H     H_    0.912924 0.693257 0.297369 0.221875
C44   C     C_2   0.717609 0.833938 0.317904 0.354145
H23   H     H_    0.807179 0.890237 0.293967 0.053258
O10   O     O_2   0.641914 0.872805 0.299580 -0.519807
C45   C     C_2   0.684178 0.330991 0.623107 0.420683
H24   H     H_    0.638836 0.262660 0.579678 0.064012
O11   O     O_2   0.746549 0.315845 0.697512 -0.582617
C46   C     C_3   0.472286 0.246200 0.270021 -0.424279
C47   C     C_3   0.424828 0.191225 0.178896 -0.787199
H25   H     H_    0.408415 0.254830 0.117402 0.234173
H26   H     H_    0.492951 0.168527 0.160412 0.265112
H27   H     H_    0.338350 0.110902 0.188887 0.250390
H28   H     H_    0.407307 0.273642 0.287251 0.189009
H29   H     H_    0.554972 0.328232 0.252910 0.197630
C48   C     C_3   0.369493 0.821999 0.625696 -0.415372
C49   C     C_3   0.283073 0.818177 0.690839 -0.823455
H30   H     H_    0.288140 0.906925 0.683902 0.259144
H31   H     H_    0.188031 0.756392 0.672223 0.228939
H32   H     H_    0.309359 0.787948 0.767540 0.247701
H33   H     H_    0.360510 0.732336 0.630462 0.233503
H34   H     H_    0.461336 0.874345 0.658461 0.215973
C50   C     C_2   0.926414 0.107203 0.638615 0.333997
H35   H     H_    0.948454 0.168666 0.686275 0.084718
O12   O     O_2   0.001137 0.073399 0.633315 -0.600900
C51   C     C_2   0.762414 0.855525 0.639166 0.339036
H36   H     H_    0.849862 0.875345 0.680587 0.132086
O13   O     O_2   0.692301 0.752396 0.640192 -0.558044

loop_
_geom_bond_atom_site_label_1
_geom_bond_atom_site_label_2
_ccdc_geom_bond_type
C37   C38   S    
C40   H13   S    
C49   H30   S    
C43   H18   S    
C30   N1    A    
C19   C20   A    
C18   C26   A    
C12   O3    A    
C46   H29   S    
C19   N2    A    
C48   H34   S    
C7    C8    A    
C46   C47   S    
C37   H10   S    
C26   C27   A    
C42   H21   S    
C39   H15   S    
Cu1   Cu2   S    
C10   C15   A    
C5    C6    A    
Cu1   O5    S    
C47   H26   S    
C5    C17   A    
C38   H7    S    
C34   C35   T    
C7    H4    S    
C41   O9    D    
C42   H22   S    
C15   C48   S    
C35   C36   S    
C27   H1    S    
C8    C9    A    
C22   C25   A    
C18   C30   A    
Cu1   O1    S    
Cu2   O2    S    
Cu1   O7    S    
C40   H14   S    
C49   H31   S    
C21   C22   A    
C12   C32   S    
C43   H19   S    
C30   H6    S    
C19   C42   S    
C41   H17   S    
C48   H33   S    
C29   C41   S    
C25   C29   A    
C28   C45   S    
C5    C50   S    
C44   O10   D    
C4    C23   S    
C47   H25   S    
C18   C39   S    
C25   C26   A    
C44   H23   S    
C29   N1    A    
C2    C31   S    
C4    C16   A    
C9    C14   A    
C39   C40   S    
Cu1   O3    S    
C23   O5    A    
C50   H35   S    
Cu2   O8    S    
C33   C34   S    
C31   O7    A    
C51   O13   D    
C9    C17   A    
C50   O12   D    
C49   H32   S    
C45   O11   D    
C43   H20   S    
C22   C24   A    
Cu1   N1    S    
C2    C36   T    
C3    H3    S    
C20   C44   S    
C1    O1    A    
C24   C28   A    
C42   C43   S    
C47   H27   S    
C12   O4    A    
C46   H28   S    
C1    O2    A    
C6    C7    A    
Cu2   O4    S    
C1    C17   S    
C38   H9    S    
C39   H16   S    
C24   N2    A    
C32   C33   T    
C4    C15   A    
C16   C37   S    
C11   C13   A    
C23   O6    A    
C21   H2    S    
C37   H11   S    
C48   C49   S    
C38   H8    S    
C6    C51   S    
C31   O8    A    
C51   H36   S    
Cu2   N2    S    
C3    C11   A    
C10   C11   A    
C40   H12   S    
Cu2   O6    S    
C20   C21   A    
C8    C10   A    
C45   H24   S    
C13   C46   S    
C27   C28   A    
C13   C14   A    
C3    C16   A    
C14   H5    S    
