data_mof_unit_51727.cif
_audit_creation_date              2012-12-11T15:33:34-0500
_audit_creation_method            fapswitch 2.2
_symmetry_space_group_name_H-M    P1
_symmetry_Int_Tables_number       1
_space_group_crystal_system       triclinic
_cell_length_a                    26.762999
_cell_length_b                    7.215554
_cell_length_c                    23.331368
_cell_angle_alpha                 89.220583
_cell_angle_beta                  100.775152
_cell_angle_gamma                 89.109725
_cell_volume                      4424.91860184

loop_
_atom_site_label
_atom_site_type_symbol
_atom_type_description
_atom_site_fract_x
_atom_site_fract_y
_atom_site_fract_z
_atom_type_partial_charge
O1    O     O_R   0.207310 0.594030 0.676830 -0.532679
O2    O     O_R   0.792690 0.405970 0.323170 -0.529776
O3    O     O_R   0.292690 0.094030 0.823170 -0.534437
O4    O     O_R   0.707310 0.905970 0.176830 -0.532141
O5    O     O_R   0.197320 0.262370 0.795700 -0.540554
O6    O     O_R   0.802680 0.737630 0.204300 -0.544288
O7    O     O_R   0.302680 0.762370 0.704300 -0.540102
O8    O     O_R   0.697320 0.237630 0.295700 -0.544894
C1    C     C_R   0.185408 0.431660 0.813118 0.673662
C2    C     C_R   0.816096 0.567975 0.188997 0.676170
C3    C     C_R   0.313307 0.931031 0.685267 0.667137
C4    C     C_R   0.683882 0.068939 0.311114 0.666027
O9    O     O_R   0.201410 0.264250 0.675590 -0.536137
O10   O     O_R   0.798590 0.735750 0.324410 -0.544606
O11   O     O_R   0.298590 0.764250 0.824410 -0.540566
O12   O     O_R   0.701410 0.235750 0.175590 -0.539010
O13   O     O_R   0.296810 0.094940 0.702210 -0.539347
O14   O     O_R   0.703190 0.905060 0.297790 -0.534417
O15   O     O_R   0.203190 0.594940 0.797790 -0.536243
O16   O     O_R   0.796810 0.405060 0.202210 -0.533972
C5    C     C_R   0.190056 0.434462 0.653651 0.672919
C6    C     C_R   0.810976 0.564444 0.345714 0.672874
C7    C     C_R   0.309881 0.930685 0.846341 0.691548
C8    C     C_R   0.689779 0.068875 0.154412 0.684575
O17   O     O_3   0.281300 0.427390 0.758870 -0.373469
O18   O     O_3   0.718700 0.572610 0.241130 -0.370961
O19   O     O_3   0.218700 0.927390 0.741130 -0.371363
O20   O     O_3   0.781300 0.072610 0.258870 -0.373159
V1    V     V_3+5 0.244190 0.152150 0.748350 1.380023
V2    V     V_3+5 0.755810 0.847850 0.251650 1.377768
V3    V     V_3+5 0.255810 0.652150 0.751650 1.382976
V4    V     V_3+5 0.744190 0.347850 0.248350 1.388942
C9    C     C_R   0.652270 0.064645 0.099832 -0.052368
C10   C     C_R   0.344316 0.933311 0.903910 -0.049603
C11   C     C_R   0.845776 0.537451 0.403145 -0.075628
C12   C     C_R   0.155643 0.447110 0.595697 -0.055659
C13   C     C_R   0.637429 0.112171 0.995862 -0.168700
C14   C     C_R   0.353699 0.895034 0.008806 -0.166228
C15   C     C_R   0.858857 0.345595 0.491000 -0.185703
C16   C     C_R   0.148746 0.482824 0.490952 -0.168802
C17   C     C_R   0.670603 0.096772 0.048651 -0.195365
C18   C     C_R   0.322771 0.920184 0.953998 -0.196987
C19   C     C_R   0.826809 0.426680 0.443611 -0.170705
C20   C     C_R   0.178322 0.464328 0.546582 -0.191982
C21   C     C_R   0.599302 0.036752 0.098465 0.022101
C22   C     C_R   0.398118 0.932721 0.909836 0.016546
C23   C     C_R   0.898894 0.576577 0.412950 0.008841
C24   C     C_R   0.101486 0.443310 0.588500 0.024647
C25   C     C_R   0.565842 0.021893 0.042293 0.052334
C26   C     C_R   0.428799 0.951163 0.966547 0.053284
C27   C     C_R   0.933137 0.468621 0.456842 0.061753
C28   C     C_R   0.071563 0.433519 0.530388 0.057095
C29   C     C_R   0.585597 0.081281 0.992461 0.124151
C30   C     C_R   0.406687 0.905652 0.015093 0.121086
C31   C     C_R   0.911467 0.361684 0.497385 0.124685
C32   C     C_R   0.095699 0.471810 0.482561 0.114939
C33   C     C_R   0.513168 0.965853 0.032387 0.049021
C34   C     C_R   0.481236 0.001384 0.976859 0.049665
C35   C     C_R   0.987836 0.464334 0.463917 0.025562
C36   C     C_R   0.018050 0.399176 0.517567 0.035816
C37   C     C_R   0.501512 0.096491 0.934074 -0.198577
C38   C     C_R   0.490898 0.871786 0.074393 -0.178032
C39   C     C_R   0.994792 0.284970 0.553559 -0.171792
C40   C     C_R   0.013513 0.499595 0.417616 -0.177440
C41   C     C_R   0.553111 0.122343 0.939832 -0.199819
C42   C     C_R   0.438213 0.858652 0.068132 -0.202445
C43   C     C_R   0.942456 0.266213 0.543588 -0.208432
C44   C     C_R   0.066532 0.498177 0.426523 -0.194189
H1    H     H_    0.281892 0.915565 0.950079 0.106079
H2    H     H_    0.710741 0.120117 0.050039 0.110107
H3    H     H_    0.219372 0.469434 0.551565 0.109352
H4    H     H_    0.786547 0.397323 0.437235 0.118687
C45   C     C_R   0.643037 0.905742 0.384816 -0.196099
C46   C     C_R   0.346195 0.103709 0.606267 -0.201898
C47   C     C_R   0.856854 0.404666 0.115552 -0.201540
C48   C     C_R   0.152949 0.594439 0.893627 -0.181053
C49   C     C_R   0.606578 0.884698 0.420586 0.095626
C50   C     C_R   0.377265 0.126507 0.564016 0.082642
C51   C     C_R   0.893885 0.380159 0.080679 0.097763
C52   C     C_R   0.120681 0.617136 0.934989 0.085178
C53   C     C_R   0.568988 0.025611 0.420449 -0.028556
C54   C     C_R   0.414143 0.987648 0.558887 -0.022181
C55   C     C_R   0.931740 0.515462 0.081121 -0.029637
C56   C     C_R   0.082323 0.484597 0.936938 -0.046012
C57   C     C_R   0.569608 0.182956 0.384587 -0.174986
C58   C     C_R   0.413971 0.822108 0.590672 -0.194882
C59   C     C_R   0.931982 0.668080 0.117800 -0.169158
C60   C     C_R   0.079904 0.330439 0.900894 -0.178769
C61   C     C_R   0.606088 0.205767 0.348456 0.061037
C62   C     C_R   0.380091 0.791960 0.629061 0.080559
C63   C     C_R   0.895287 0.693069 0.153602 0.067774
C64   C     C_R   0.113213 0.303708 0.861706 0.081122
C65   C     C_R   0.643671 0.062458 0.348372 -0.113254
C66   C     C_R   0.347687 0.940306 0.640756 -0.088912
C67   C     C_R   0.856550 0.558110 0.152168 -0.116727
C68   C     C_R   0.149571 0.441507 0.855922 -0.097222
N1    N     N_R   0.481183 0.088765 0.436145 -0.297303
N2    N     N_R   0.502047 0.936410 0.543673 -0.294764
N3    N     N_R   0.019539 0.560169 0.064446 -0.293964
N4    N     N_R   0.994544 0.446666 0.953843 -0.291085
N5    N     N_R   0.444963 0.083336 0.468429 -0.301609
N6    N     N_R   0.538242 0.942245 0.511499 -0.300992
N7    N     N_R   0.054718 0.556256 0.030778 -0.309872
N8    N     N_R   0.959380 0.450532 0.987458 -0.299183
C69   C     C_R   0.454580 0.006902 0.522972 0.512364
C70   C     C_R   0.528518 0.016353 0.456702 0.508763
C71   C     C_R   0.042991 0.500137 0.974602 0.506964
C72   C     C_R   0.971199 0.505585 0.043701 0.509447
H5    H     H_    0.567417 0.183841 0.903550 0.122924
H6    H     H_    0.422288 0.801828 0.103890 0.123512
H7    H     H_    0.926060 0.176439 0.572521 0.121302
H8    H     H_    0.084813 0.521445 0.389400 0.124073
C73   C     C_3   0.421944 0.856581 0.860688 -0.384331
C74   C     C_3   0.419161 0.993706 0.809355 -0.300472
C75   C     C_3   0.466984 0.982715 0.781941 -0.777473
H9    H     H_    0.486146 0.844688 0.789118 0.226898
H10   H     H_    0.456673 0.008266 0.734159 0.225569
H11   H     H_    0.494765 0.087877 0.801101 0.225010
H12   H     H_    0.385437 0.963808 0.776026 0.172046
H13   H     H_    0.412998 0.137006 0.823287 0.189893
H14   H     H_    0.461723 0.809370 0.877618 0.196755
H15   H     H_    0.402280 0.727263 0.845094 0.162023
C76   C     C_3   0.580104 0.050440 0.156199 -0.354322
C77   C     C_3   0.538706 0.201972 0.155227 -0.279468
C78   C     C_3   0.505167 0.159183 0.199763 -0.771816
H16   H     H_    0.482485 0.033857 0.186991 0.230977
H17   H     H_    0.528744 0.134107 0.243675 0.236707
H18   H     H_    0.478564 0.277585 0.201615 0.219736
H19   H     H_    0.557321 0.337104 0.165282 0.178574
H20   H     H_    0.513845 0.219927 0.111856 0.209943
H21   H     H_    0.569451 0.913746 0.170869 0.167539
H22   H     H_    0.610805 0.086559 0.192888 0.136872
C79   C     C_3   0.076891 0.476196 0.641568 -0.366470
C80   C     C_3   0.039565 0.642985 0.633693 -0.276155
C81   C     C_3   0.003446 0.630915 0.677060 -0.781250
H23   H     H_    0.979280 0.506916 0.668231 0.236996
H24   H     H_    0.025227 0.620729 0.722470 0.229735
H25   H     H_    0.978181 0.755836 0.672369 0.221018
H26   H     H_    0.061681 0.772007 0.639724 0.187298
H27   H     H_    0.015945 0.654042 0.589517 0.202377
H28   H     H_    0.058424 0.349945 0.653186 0.174695
H29   H     H_    0.105750 0.504973 0.680960 0.142411
C82   C     C_3   0.915957 0.750903 0.384638 -0.376231
C83   C     C_3   0.943416 0.885174 0.430492 -0.272355
C84   C     C_3   0.970774 0.035671 0.402741 -0.756247
H30   H     H_    0.992655 0.975975 0.371160 0.230402
H31   H     H_    0.942948 0.141695 0.380788 0.223367
H32   H     H_    0.998326 0.102780 0.437217 0.234670
H33   H     H_    0.915290 0.950640 0.453855 0.195928
H34   H     H_    0.972194 0.813048 0.463870 0.202583
H35   H     H_    0.938738 0.716807 0.351287 0.157490
H36   H     H_    0.883058 0.830178 0.359864 0.188449
H37   H     H_    0.652366 0.151105 0.957376 0.119280
H38   H     H_    0.336214 0.867130 0.046261 0.121238
H39   H     H_    0.842415 0.261535 0.521334 0.118046
H40   H     H_    0.167533 0.505316 0.454191 0.120097
H41   H     H_    0.477586 0.152992 0.895701 0.155720
H42   H     H_    0.513028 0.804526 0.111950 0.131774
H43   H     H_    0.017042 0.197031 0.586734 0.119697
H44   H     H_    0.993433 0.509188 0.373224 0.129147
H45   H     H_    0.671496 0.796724 0.385562 0.128802
H46   H     H_    0.319356 0.213845 0.610996 0.125267
H47   H     H_    0.828018 0.300185 0.114370 0.129190
H48   H     H_    0.181747 0.695437 0.890722 0.122975
C85   C     C_3   0.608370 0.706266 0.455965 -0.369793
C86   C     C_3   0.645838 0.719341 0.514034 -0.280557
C87   C     C_3   0.646138 0.542115 0.550553 -0.739711
H49   H     H_    0.607826 0.519070 0.560918 0.243609
H50   H     H_    0.657350 0.421012 0.526565 0.224029
H51   H     H_    0.673879 0.554391 0.592069 0.213367
H52   H     H_    0.684816 0.741569 0.505444 0.182172
H53   H     H_    0.635437 0.838629 0.539303 0.220957
H54   H     H_    0.569940 0.668743 0.463147 0.192586
H55   H     H_    0.621017 0.589848 0.431034 0.166434
C88   C     C_3   0.369311 0.298360 0.525219 -0.371081
C89   C     C_3   0.333513 0.259511 0.467385 -0.273039
C90   C     C_3   0.328163 0.428356 0.426463 -0.745237
H56   H     H_    0.312729 0.549163 0.447014 0.221982
H57   H     H_    0.365705 0.463882 0.415927 0.244125
H58   H     H_    0.301657 0.397280 0.385276 0.213726
H59   H     H_    0.347744 0.139710 0.445340 0.220130
H60   H     H_    0.295313 0.224364 0.476203 0.183278
H61   H     H_    0.351251 0.410952 0.546598 0.157829
H62   H     H_    0.406340 0.351891 0.517947 0.192652
C91   C     C_3   0.893051 0.202434 0.046728 -0.367800
C92   C     C_3   0.853404 0.214516 0.990124 -0.286231
C93   C     C_3   0.853219 0.036129 0.955689 -0.738835
H63   H     H_    0.890954 0.011663 0.943534 0.242779
H64   H     H_    0.844148 0.916112 0.982046 0.226781
H65   H     H_    0.823970 0.047818 0.915168 0.213412
H66   H     H_    0.814929 0.237983 0.000504 0.181367
H67   H     H_    0.861765 0.332704 0.962601 0.221486
H68   H     H_    0.931179 0.167319 0.037298 0.191384
H69   H     H_    0.883427 0.085338 0.073923 0.169072
C94   C     C_3   0.125641 0.781445 0.976093 -0.343818
C95   C     C_3   0.169347 0.914311 0.972699 -0.358776
C96   C     C_3   0.170529 0.071007 0.016217 -0.719993
H70   H     H_    0.201436 0.167630 0.011411 0.217073
H71   H     H_    0.133821 0.149575 0.008125 0.238119
H72   H     H_    0.177780 0.014267 0.061565 0.227660
H73   H     H_    0.206146 0.836490 0.982985 0.193182
H74   H     H_    0.164857 0.976647 0.928369 0.194992
H75   H     H_    0.089135 0.861825 0.967641 0.181277
H76   H     H_    0.132284 0.726242 0.021567 0.209196
H77   H     H_    0.541242 0.289829 0.386142 0.132401
H78   H     H_    0.440615 0.712366 0.584745 0.135352
H79   H     H_    0.961176 0.769187 0.117167 0.131039
H80   H     H_    0.051232 0.227792 0.903630 0.135377
C97   C     C_3   0.604941 0.380880 0.310433 -0.331958
C98   C     C_3   0.557786 0.509561 0.305891 -0.337511
C99   C     C_3   0.559155 0.669154 0.262723 -0.760520
H81   H     H_    0.594658 0.748419 0.275024 0.237154
H82   H     H_    0.557002 0.615566 0.218026 0.212568
H83   H     H_    0.526151 0.764273 0.262716 0.223125
H84   H     H_    0.522516 0.430830 0.291366 0.206105
H85   H     H_    0.556108 0.570046 0.348883 0.195581
H86   H     H_    0.638966 0.463516 0.327876 0.186988
H87   H     H_    0.607192 0.338141 0.265467 0.187025
C100  C     C_3   0.381524 0.599418 0.655774 -0.355419
C101  C     C_3   0.413341 0.594440 0.716973 -0.297803
C102  C     C_3   0.422689 0.397526 0.739772 -0.781393
H88   H     H_    0.385858 0.328750 0.739793 0.249149
H89   H     H_    0.444686 0.319962 0.711742 0.237904
H90   H     H_    0.445127 0.400082 0.784863 0.212409
H91   H     H_    0.450765 0.656997 0.715897 0.203869
H92   H     H_    0.393446 0.671244 0.746715 0.216409
H93   H     H_    0.342861 0.544526 0.654236 0.186671
H94   H     H_    0.399979 0.501130 0.629658 0.165771
C103  C     C_3   0.897115 0.861463 0.192904 -0.332881
C104  C     C_3   0.945180 0.979728 0.199657 -0.346716
C105  C     C_3   0.941634 0.141390 0.240225 -0.757340
H95   H     H_    0.910249 0.238159 0.220748 0.236671
H96   H     H_    0.934122 0.089284 0.282519 0.228438
H97   H     H_    0.977877 0.217991 0.247748 0.221759
H98   H     H_    0.979172 0.892558 0.218039 0.203345
H99   H     H_    0.949920 0.039122 0.156945 0.198290
H100  H     H_    0.863859 0.953352 0.175512 0.191760
H101  H     H_    0.894011 0.811520 0.237392 0.170849
C106  C     C_3   0.105721 0.130282 0.825655 -0.344662
C107  C     C_3   0.080015 0.177590 0.763031 -0.307995
C108  C     C_3   0.057980 0.005935 0.731923 -0.781146
H102  H     H_    0.088538 0.899574 0.732454 0.243026
H103  H     H_    0.027969 0.949150 0.753863 0.236295
H104  H     H_    0.040582 0.042866 0.686183 0.206955
H105  H     H_    0.048715 0.281262 0.762454 0.200054
H106  H     H_    0.108377 0.235757 0.739205 0.195240
H107  H     H_    0.141927 0.052291 0.827098 0.183758
H108  H     H_    0.081412 0.031814 0.844719 0.172430

loop_
_geom_bond_atom_site_label_1
_geom_bond_atom_site_label_2
_ccdc_geom_bond_type
O17   V3    S    
C81   H25   S    
C55   C59   A    
C64   C106  S    
O1    C5    A    
C19   H4    S    
C106  H107  S    
C59   C63   A    
C76   H22   S    
O19   V1    S    
C9    C21   A    
C46   C66   A    
N3    N7    A    
C106  C107  S    
C10   C18   A    
C45   C65   A    
C91   H69   S    
C52   C56   A    
C11   C23   A    
C58   H78   S    
C74   C75   S    
C33   C34   A    
C57   H77   S    
C81   H23   S    
C87   H50   S    
C5    C12   S    
C21   C76   S    
O7    C3    A    
C6    C11   S    
C79   H29   S    
C26   C30   A    
N2    C69   A    
C63   C103  S    
C36   C39   A    
C97   H87   S    
C40   C44   A    
O9    V1    S    
C60   H80   S    
C14   C18   A    
C102  H90   S    
C101  H91   S    
C80   H27   S    
O4    C8    A    
C25   C29   A    
C33   C38   A    
C94   H75   S    
C49   C85   S    
C98   H84   S    
C23   C82   S    
O1    V3    S    
C56   C71   S    
O13   V1    S    
C55   C72   S    
C20   H3    S    
O2    V4    S    
C108  H102  S    
C44   H8    S    
C54   C69   S    
C92   H66   S    
O3    V1    S    
C79   C80   S    
C93   H65   S    
C83   H34   S    
C28   C36   A    
C28   C32   A    
O3    C7    A    
C1    O15   A    
N4    N8    A    
C15   C31   A    
C73   H15   S    
C60   C64   A    
C2    O16   A    
O20   V2    S    
C16   C32   A    
C49   C53   A    
O2    C6    A    
C78   H18   S    
C45   H45   S    
C38   H42   S    
C104  H99   S    
C10   C22   A    
C39   H43   S    
C100  H94   S    
C11   C19   A    
C16   C20   A    
C74   H12   S    
C13   C29   A    
C75   H11   S    
C34   C37   A    
O11   C7    A    
C48   C68   A    
O15   V3    S    
C35   C36   A    
O12   C8    A    
C81   H24   S    
C86   H53   S    
C107  H106  S    
C86   C87   S    
C104  C105  S    
O10   V2    S    
C101  C102  S    
C84   H31   S    
C87   H49   S    
C84   H30   S    
C87   H51   S    
O5    V1    S    
C64   C68   A    
N5    C69   A    
C89   H59   S    
C39   C43   A    
C77   C78   S    
C62   C66   A    
O7    V3    S    
C38   C42   A    
C47   C67   A    
O8    V4    S    
C92   H67   S    
C48   C52   A    
C24   C79   S    
C76   C77   S    
C58   C62   A    
C80   H26   S    
C46   H46   S    
C57   C61   A    
O18   V4    S    
C95   C96   S    
C23   C27   A    
C94   H76   S    
C75   H10   S    
C85   H55   S    
N2    N6    A    
C76   H21   S    
C61   C65   A    
O4    V2    S    
C15   H39   S    
C106  H108  S    
C108  H103  S    
C26   C34   A    
C96   H72   S    
C89   H60   S    
O5    C1    A    
C103  C104  S    
N3    C72   A    
C37   H41   S    
C102  H88   S    
C50   C54   A    
N1    N5    A    
C31   C43   A    
C99   H81   S    
C14   C30   A    
C21   C25   A    
O8    C4    A    
C90   H58   S    
C41   H5    S    
C40   H44   S    
C97   C98   S    
C35   C40   A    
C77   H20   S    
C104  H98   S    
C105  H96   S    
C42   H6    S    
N4    C71   A    
C1    C68   S    
C59   H79   S    
C62   C100  S    
C86   H52   S    
O14   V2    S    
N1    C70   A    
C3    C66   S    
C43   H7    S    
C82   H36   S    
O6    V2    S    
C98   C99   S    
C50   C88   S    
C4    C65   S    
C12   C20   A    
C27   C35   A    
C14   H38   S    
C103  H100  S    
N8    C72   A    
C84   H32   S    
C29   C41   A    
C88   H61   S    
C73   C74   S    
O16   V4    S    
C100  C101  S    
C52   C94   S    
C53   C70   S    
C89   C90   S    
C7    C10   S    
C45   C49   A    
C51   C91   S    
C22   C73   S    
C99   H82   S    
C56   C60   A    
C91   H68   S    
C83   C84   S    
C3    O13   A    
C107  H105  S    
O6    C2    A    
C25   C33   A    
C15   C19   A    
O11   V3    S    
C80   C81   S    
C30   C42   A    
O12   V4    S    
C22   C26   A    
C79   H28   S    
C8    C9    S    
C108  H104  S    
C9    C17   A    
O10   C6    A    
C13   H37   S    
C96   H71   S    
C92   C93   S    
C97   H86   S    
C93   H63   S    
C102  H89   S    
C88   C89   S    
C54   C58   A    
O9    C5    A    
C51   C55   A    
C95   H73   S    
C91   C92   S    
C78   H16   S    
C47   H47   S    
C2    C67   S    
C98   H85   S    
C101  H92   S    
C82   H35   S    
C107  C108  S    
C32   C44   A    
C90   H57   S    
C77   H19   S    
C12   C24   A    
C105  H97   S    
C27   C31   A    
C18   H1    S    
C13   C17   A    
C96   H70   S    
C83   H33   S    
C74   H13   S    
C93   H64   S    
C48   H48   S    
C63   C67   A    
C94   C95   S    
C100  H93   S    
C37   C41   A    
C85   C86   S    
C24   C28   A    
C99   H83   S    
C73   H14   S    
C90   H56   S    
C46   C50   A    
N6    C70   A    
C4    O14   A    
C105  H95   S    
C78   H17   S    
C61   C97   S    
C16   H40   S    
N7    C71   A    
C75   H9    S    
C103  H101  S    
C85   H54   S    
C47   C51   A    
C53   C57   A    
C82   C83   S    
C95   H74   S    
C17   H2    S    
C88   H62   S    
