data_mof_unit_37647.cif
_audit_creation_date              2012-12-11T14:44:20-0500
_audit_creation_method            fapswitch 2.2
_symmetry_space_group_name_H-M    P1
_symmetry_Int_Tables_number       1
_space_group_crystal_system       triclinic
_cell_length_a                    24.88041
_cell_length_b                    16.734324
_cell_length_c                    15.632978
_cell_angle_alpha                 89.999466
_cell_angle_beta                  49.752078
_cell_angle_gamma                 89.999419
_cell_volume                      4967.95432643

loop_
_atom_site_label
_atom_site_type_symbol
_atom_type_description
_atom_site_fract_x
_atom_site_fract_y
_atom_site_fract_z
_atom_type_partial_charge
C1    C     C_R   0.353818 0.148663 0.752466 -0.107558
C2    C     C_3   0.750441 0.786698 0.607203 -0.168991
C3    C     C_2   0.352319 0.712769 0.375005 0.977845
C4    C     C_2   0.908824 0.873473 0.375392 0.996788
C5    C     C_2   0.091780 0.125431 0.621709 0.997945
C6    C     C_2   0.091169 0.873440 0.624756 0.996816
C7    C     C_2   0.908087 0.125190 0.379045 0.998120
C8    C     C_3   0.749799 0.214395 0.607392 -0.168851
C9    C     C_3   0.249537 0.786730 0.392803 -0.168995
C10   C     C_3   0.804581 0.802516 0.392497 -0.175543
C11   C     C_3   0.194939 0.196342 0.607614 -0.175495
C12   C     C_3   0.195455 0.802434 0.607490 -0.175556
C13   C     C_3   0.805194 0.196028 0.392357 -0.175469
C14   C     C_2   0.636415 0.268327 0.158856 -0.187019
C15   C     C_2   0.363568 0.731695 0.841200 -0.186217
C16   C     C_2   0.363578 0.268317 0.841164 -0.187190
C17   C     C_R   0.646195 0.851348 0.247498 -0.107963
C18   C     C_2   0.636435 0.731698 0.158796 -0.186175
C19   C     C_2   0.197154 0.648044 0.013278 -0.214077
C20   C     C_2   0.802848 0.351954 0.986724 -0.214060
C21   C     C_2   0.802846 0.648042 0.986722 -0.214073
C22   C     C_2   0.197152 0.351951 0.013279 -0.214060
C23   C     C_2   0.686521 0.310329 0.147423 -0.085103
C24   C     C_2   0.313481 0.689678 0.852599 -0.085699
C25   C     C_2   0.313481 0.310328 0.852581 -0.085195
C26   C     C_2   0.686521 0.689679 0.147400 -0.085661
C27   C     C_2   0.266848 0.639954 0.951675 -0.110674
C28   C     C_R   0.646179 0.148665 0.247544 -0.107541
C29   C     C_2   0.733153 0.360043 0.048332 -0.110803
C30   C     C_2   0.733153 0.639954 0.048325 -0.110659
C31   C     C_2   0.266846 0.360041 0.951671 -0.110774
C32   C     C_R   0.615008 0.108187 0.591737 -0.131213
C33   C     C_R   0.385040 0.891656 0.408256 -0.130210
C34   C     C_R   0.385005 0.108229 0.408260 -0.131029
C35   C     C_R   0.614968 0.891677 0.591742 -0.130222
C36   C     C_R   0.086051 0.650040 0.592429 -0.140537
C37   C     C_R   0.913871 0.350005 0.407579 -0.140816
C38   C     C_R   0.913944 0.650037 0.407571 -0.140558
C39   C     C_R   0.353805 0.851348 0.752503 -0.107969
C40   C     C_R   0.086108 0.349992 0.592424 -0.140738
C41   C     C_R   0.689610 0.107873 0.405435 -0.112623
C42   C     C_R   0.310459 0.891872 0.594566 -0.114312
C43   C     C_R   0.310407 0.107934 0.594564 -0.112958
C44   C     C_R   0.689548 0.891895 0.405432 -0.114244
C45   C     C_R   0.162392 0.648084 0.405673 -0.103133
C46   C     C_R   0.837536 0.351969 0.594354 -0.102293
C47   C     C_R   0.837604 0.648081 0.594328 -0.103057
C48   C     C_R   0.162444 0.351955 0.405653 -0.102507
C49   C     C_R   0.557338 0.145156 0.245282 -0.119212
C50   C     C_R   0.833244 0.610905 0.802792 -0.120058
C51   C     C_R   0.442652 0.854857 0.754749 -0.118802
C52   C     C_R   0.442662 0.145153 0.754722 -0.119269
C53   C     C_R   0.557350 0.854859 0.245248 -0.118788
C54   C     C_R   0.078305 0.607383 0.195795 -0.137503
C55   C     C_R   0.921697 0.392614 0.804202 -0.137664
C56   C     C_R   0.921695 0.607381 0.804205 -0.137496
C57   C     C_R   0.078302 0.392612 0.195799 -0.137695
C58   C     C_R   0.386961 0.191534 0.782532 0.142047
C59   C     C_R   0.613054 0.808481 0.217424 0.141773
C60   C     C_R   0.613035 0.191540 0.217479 0.142024
C61   C     C_R   0.166755 0.389094 0.197208 -0.119960
C62   C     C_R   0.386948 0.808480 0.782574 0.141777
C63   C     C_R   0.851432 0.627141 0.867633 0.153717
C64   C     C_R   0.148566 0.372853 0.132369 0.153705
C65   C     C_R   0.148568 0.627142 0.132367 0.153705
C66   C     C_R   0.851434 0.372856 0.867633 0.153720
C67   C     C_R   0.682074 0.126464 0.497786 0.071554
C68   C     C_R   0.318039 0.873130 0.502202 0.072303
C69   C     C_R   0.317955 0.126563 0.502209 0.071690
C70   C     C_R   0.681975 0.873172 0.497794 0.072290
C71   C     C_R   0.136747 0.693903 0.498224 0.086525
C72   C     C_R   0.166755 0.610905 0.197208 -0.120071
C73   C     C_R   0.863101 0.306201 0.501807 0.086207
C74   C     C_R   0.863244 0.693898 0.501776 0.086493
C75   C     C_R   0.136860 0.306175 0.498201 0.086293
C76   C     C_3   0.283338 0.243606 0.442170 -0.019493
C77   C     C_3   0.716403 0.756713 0.559135 -0.019574
C78   C     C_3   0.716730 0.243661 0.557480 -0.019480
C79   C     C_3   0.283616 0.756704 0.440788 -0.019581
C80   C     C_3   0.839235 0.832112 0.440263 -0.031989
C81   C     C_3   0.161040 0.167311 0.558373 -0.032920
C82   C     C_3   0.160761 0.832073 0.559806 -0.032070
C83   C     C_R   0.833245 0.389095 0.802794 -0.119893
C84   C     C_3   0.838896 0.167161 0.441985 -0.032996
C85   C     C_3   0.768416 0.867487 0.544676 -0.204458
C86   C     C_3   0.232296 0.132821 0.453840 -0.205451
C87   C     C_3   0.231560 0.867486 0.455400 -0.204469
C88   C     C_3   0.767531 0.132889 0.546540 -0.205621
C89   C     C_3   0.213307 0.276848 0.546190 -0.215968
C90   C     C_3   0.786007 0.722596 0.455239 -0.215527
C91   C     C_3   0.786867 0.276685 0.453436 -0.216054
C92   C     C_3   0.214032 0.722546 0.544677 -0.215518
C93   C     C_3   0.734182 0.835843 0.497467 0.073883
C94   C     C_3   0.250068 0.214179 0.392644 -0.168876
C95   C     C_3   0.265763 0.163910 0.502537 0.074373
C96   C     C_3   0.265834 0.835800 0.502524 0.073937
C97   C     C_3   0.734263 0.163817 0.497454 0.074402
C98   C     C_3   0.179222 0.246930 0.497647 0.077675
C99   C     C_3   0.820854 0.753072 0.502300 0.077175
C100  C     C_3   0.820752 0.246930 0.502370 0.077750
C101  C     C_3   0.179143 0.753066 0.497702 0.077201
C102  C     C_2   0.351725 0.288031 0.377995 0.978586
C103  C     C_2   0.647717 0.712755 0.624821 0.977888
C104  C     C_2   0.648420 0.288200 0.621245 0.978778
H1    H     H_    0.307648 0.164998 0.763725 0.094829
H2    H     H_    0.405571 0.892429 0.322603 0.096154
H3    H     H_    0.405558 0.107490 0.322595 0.096330
H4    H     H_    0.594435 0.892449 0.677395 0.096147
H5    H     H_    0.058438 0.665923 0.678833 0.110343
H6    H     H_    0.941494 0.334115 0.321173 0.110194
H7    H     H_    0.941558 0.665922 0.321166 0.110359
H8    H     H_    0.058487 0.334103 0.678830 0.110193
H9    H     H_    0.737752 0.106666 0.319014 0.092702
H10   H     H_    0.262303 0.893053 0.680977 0.093281
H11   H     H_    0.262261 0.106732 0.680983 0.092833
H12   H     H_    0.692375 0.835017 0.236210 0.094796
H13   H     H_    0.737702 0.893080 0.319021 0.093231
H14   H     H_    0.205333 0.662309 0.318945 0.102020
H15   H     H_    0.794625 0.337757 0.681097 0.101500
H16   H     H_    0.794664 0.662306 0.681056 0.101997
H17   H     H_    0.205360 0.337740 0.318914 0.101607
H18   H     H_    0.520741 0.160835 0.232758 0.113249
H19   H     H_    0.479245 0.839184 0.767283 0.113434
H20   H     H_    0.479262 0.160829 0.767241 0.113231
H21   H     H_    0.520759 0.839187 0.232710 0.113433
H22   H     H_    0.050211 0.602223 0.164743 0.094310
H23   H     H_    0.692344 0.165000 0.236299 0.094858
H24   H     H_    0.949793 0.397772 0.835251 0.094171
H25   H     H_    0.949789 0.602221 0.835256 0.094306
H26   H     H_    0.050206 0.397769 0.164752 0.094165
H27   H     H_    0.760229 0.927922 0.580409 0.130372
H28   H     H_    0.241084 0.072755 0.416842 0.130252
H29   H     H_    0.239729 0.927933 0.419714 0.130334
H30   H     H_    0.758601 0.072913 0.583847 0.130276
H31   H     H_    0.205876 0.336704 0.583247 0.142229
H32   H     H_    0.792884 0.662388 0.419382 0.142557
H33   H     H_    0.794437 0.336445 0.416065 0.142166
H34   H     H_    0.307625 0.835018 0.763794 0.094787
H35   H     H_    0.207180 0.662318 0.580470 0.142560
H36   H     H_    0.272126 0.221571 0.304686 0.147663
H37   H     H_    0.728839 0.780091 0.695014 0.147941
H38   H     H_    0.727616 0.221999 0.695387 0.147604
H39   H     H_    0.271115 0.780173 0.305000 0.147952
H40   H     H_    0.826316 0.809390 0.304648 0.147142
H41   H     H_    0.172799 0.188614 0.695568 0.147147
H42   H     H_    0.173741 0.809255 0.695334 0.147130
H43   H     H_    0.827442 0.188071 0.304376 0.147188
H44   H     H_    0.296721 0.705292 0.805577 0.135489
H45   H     H_    0.780738 0.608574 0.830409 0.085453
H46   H     H_    0.703292 0.294710 0.194427 0.135805
H47   H     H_    0.703279 0.705290 0.194424 0.135503
H48   H     H_    0.296721 0.294719 0.805561 0.135752
H49   H     H_    0.711229 0.389790 0.015256 0.130397
H50   H     H_    0.288770 0.610201 0.984752 0.130446
H51   H     H_    0.288769 0.389789 0.984748 0.130404
H52   H     H_    0.711230 0.610203 0.015249 0.130445
H53   H     H_    0.379611 0.716052 0.889344 0.135241
H54   H     H_    0.620363 0.283977 0.110728 0.135126
H55   H     H_    0.620394 0.716058 0.110649 0.135231
H56   H     H_    0.219262 0.391429 0.169586 0.085351
H57   H     H_    0.379619 0.283955 0.889310 0.135188
H58   H     H_    0.824101 0.321825 0.020821 0.137300
H59   H     H_    0.175904 0.678180 0.979181 0.137403
H60   H     H_    0.175900 0.321820 0.979182 0.137295
H61   H     H_    0.824098 0.678177 0.020818 0.137404
H62   H     H_    0.436104 0.333002 0.229663 0.326860
H63   H     H_    0.563505 0.669048 0.774347 0.326705
H64   H     H_    0.563997 0.333512 0.769243 0.326906
H65   H     H_    0.436523 0.669152 0.225398 0.326704
H66   H     H_    0.993939 0.917050 0.226669 0.330854
H67   H     H_    0.219261 0.608575 0.169592 0.085463
H68   H     H_    0.006636 0.080290 0.769084 0.331400
H69   H     H_    0.006114 0.917059 0.773509 0.330910
H70   H     H_    0.993314 0.079808 0.231972 0.331438
H71   H     H_    0.780738 0.391431 0.830416 0.085306
H72   H     H_    0.594450 0.107454 0.677405 0.096373
N1    N     N_R   0.389620 0.081040 0.705440 -0.049773
N2    N     N_R   0.417680 0.920160 0.443370 -0.037360
N3    N     N_R   0.417680 0.079840 0.443370 -0.037254
N4    N     N_R   0.582320 0.920160 0.556630 -0.037350
N5    N     N_R   0.082320 0.579840 0.556630 -0.045377
N6    N     N_R   0.917680 0.420160 0.443370 -0.045303
N7    N     N_R   0.917680 0.579840 0.443370 -0.045370
N8    N     N_R   0.082320 0.420160 0.556630 -0.045323
N9    N     N_R   0.627920 0.078930 0.443400 -0.040146
N10   N     N_R   0.372080 0.921070 0.556600 -0.040174
N11   N     N_R   0.372080 0.078930 0.556600 -0.040147
N12   N     N_R   0.610380 0.918960 0.294560 -0.049728
N13   N     N_R   0.627920 0.921070 0.443400 -0.040179
N14   N     N_R   0.127920 0.578930 0.443400 -0.046542
N15   N     N_R   0.872080 0.421070 0.556600 -0.046555
N16   N     N_R   0.872080 0.578930 0.556600 -0.046544
N17   N     N_R   0.127920 0.421070 0.443400 -0.046552
N18   N     N_R   0.555090 0.077730 0.294590 -0.048879
N19   N     N_R   0.444910 0.922270 0.705410 -0.048941
N20   N     N_R   0.444910 0.077730 0.705410 -0.048866
N21   N     N_R   0.555090 0.922270 0.294590 -0.048944
N22   N     N_R   0.055090 0.577730 0.294590 -0.039830
N23   N     N_R   0.610380 0.081040 0.294560 -0.049788
N24   N     N_R   0.944910 0.422270 0.705410 -0.039810
N25   N     N_R   0.944910 0.577730 0.705410 -0.039831
N26   N     N_R   0.055090 0.422270 0.294590 -0.039807
N27   N     N_R   0.389620 0.918960 0.705440 -0.049722
N28   N     N_R   0.889620 0.581040 0.705440 -0.043501
N29   N     N_R   0.110380 0.418960 0.294560 -0.043510
N30   N     N_R   0.110380 0.581040 0.294560 -0.043495
N31   N     N_R   0.889620 0.418960 0.705440 -0.043517
N32   N     N_R   0.582320 0.079840 0.556630 -0.037231
Ni1   Ni    Ni4+2 0.382970 1.000000 0.629840 0.223524
Ni2   Ni    Ni4+2 0.617030 1.000000 0.370160 0.223507
Ni3   Ni    Ni4+2 0.882970 0.500000 0.629840 0.222849
Ni4   Ni    Ni4+2 0.117030 0.500000 0.370160 0.222837
Ni5   Ni    Ni4+2 0.514540 1.000000 0.629840 0.220138
Ni6   Ni    Ni4+2 0.485460 1.000000 0.370160 0.220141
Ni7   Ni    Ni4+2 0.014540 0.500000 0.629840 0.214747
Ni8   Ni    Ni4+2 0.985460 0.500000 0.370160 0.214753
O1    O     O_2   0.372933 0.310722 0.425887 -0.628141
O2    O     O_R   0.947862 0.888854 0.261347 -0.802405
O3    O     O_2   0.070114 0.105893 0.573422 -0.591285
O4    O     O_R   0.052412 0.108793 0.735521 -0.802590
O5    O     O_2   0.068889 0.893633 0.577595 -0.592137
O6    O     O_R   0.052187 0.888831 0.738785 -0.802499
O7    O     O_2   0.929583 0.105786 0.427626 -0.591244
O8    O     O_R   0.947590 0.108326 0.265262 -0.802477
O9    O     O_R   0.390835 0.303040 0.263838 -0.815337
O10   O     O_2   0.625897 0.689528 0.578041 -0.628128
O11   O     O_R   0.609033 0.698786 0.739103 -0.815470
O12   O     O_2   0.627373 0.310731 0.573055 -0.628169
O13   O     O_R   0.609198 0.303497 0.735361 -0.815286
O14   O     O_2   0.374173 0.689496 0.421718 -0.628111
O15   O     O_R   0.390979 0.698877 0.260713 -0.815484
O16   O     O_2   0.931057 0.893658 0.422623 -0.592218

loop_
_geom_bond_atom_site_label_1
_geom_bond_atom_site_label_2
_ccdc_geom_bond_type
C45   H14   S    
C25   C31   S    
C73   C100  S    
C8    C78   S    
C33   H2    S    
N32   Ni5   S    
C6    C82   S    
N1    N20   A    
C83   H71   S    
C48   N17   A    
C45   C71   A    
C94   H36   S    
C87   H29   S    
C17   H12   S    
C18   C26   D    
C24   C27   S    
C46   N15   A    
C3    C79   S    
N7    N16   A    
C9    H39   S    
C18   C59   S    
C41   C67   A    
C54   C65   A    
C11   C81   S    
C103  O10   D    
C54   H22   S    
C13   C84   S    
C68   C96   S    
C49   C60   A    
C14   H54   S    
C25   H48   S    
C89   H31   S    
C34   H3    S    
C4    O16   D    
C20   C66   S    
N4    Ni5   S    
C32   H72   S    
N15   Ni3   S    
C15   H53   S    
C39   N27   A    
N13   Ni2   S    
C76   C95   S    
C5    O4    S    
N19   N27   A    
C81   C98   S    
C49   H18   S    
C17   N12   A    
C103  O11   S    
N8    N17   A    
C16   C25   D    
N24   Ni7   S    
C21   H61   S    
N28   Ni3   S    
C2    C85   S    
C9    C79   S    
C12   H42   S    
C47   N16   A    
N14   Ni4   S    
C54   N22   A    
N25   Ni7   S    
C83   N31   A    
C18   H55   S    
C86   C94   S    
C102  O1    D    
C43   H11   S    
H64   O13   S    
C91   H33   S    
N12   Ni2   S    
C42   H10   S    
N11   Ni1   S    
C35   C70   A    
N26   N29   A    
C52   N20   A    
C57   N26   A    
C46   H15   S    
C44   H13   S    
C44   C70   A    
C35   H4    S    
C91   C100  S    
C32   N32   A    
C19   C27   D    
N4    N13   A    
N1    Ni1   S    
C56   H25   S    
H68   O4    S    
C28   H23   S    
C76   C89   S    
C6    O5    D    
C76   C94   S    
C42   N10   A    
C27   H50   S    
C30   H52   S    
C7    C84   S    
C66   C83   A    
C39   H34   S    
N22   Ni8   S    
C43   C69   A    
C13   C91   S    
N31   Ni3   S    
C50   C63   A    
C48   C75   A    
C34   N3    A    
C51   C62   A    
C85   C93   S    
H69   O6    S    
C3    O14   D    
C104  O12   D    
C20   C29   D    
C28   C60   A    
C53   C59   A    
C52   C58   A    
C77   C90   S    
C28   N23   A    
C21   C63   S    
C22   C31   D    
N2    Ni6   S    
C78   C104  S    
C84   C100  S    
C72   H67   S    
C57   H26   S    
C70   C93   S    
H70   O8    S    
C36   C71   A    
C40   H8    S    
C24   H44   S    
C61   H56   S    
C3    O15   S    
C48   H17   S    
C10   C80   S    
C11   H41   S    
N8    Ni7   S    
C72   N30   A    
C56   N25   A    
C10   C93   S    
C75   C98   S    
C7    O8    S    
C38   N7    A    
H65   O15   S    
C8    C88   S    
C6    O6    S    
C14   C23   D    
C61   C64   A    
N16   Ni3   S    
C80   C85   S    
C42   C68   A    
C44   N13   A    
C7    O7    D    
N5    N14   A    
C11   C89   S    
H63   O11   S    
C55   N24   A    
C43   N11   A    
C20   H58   S    
C87   C96   S    
C51   H19   S    
C78   C97   S    
C79   C92   S    
C56   C63   A    
C12   C82   S    
N5    Ni7   S    
C13   C97   S    
C19   H59   S    
N9    N32   A    
C34   C69   A    
C37   H6    S    
C53   H21   S    
C92   C101  S    
C17   C59   A    
C32   C67   A    
C15   C24   D    
C23   H46   S    
C2    C99   S    
C26   C30   S    
N24   N31   A    
C4    O2    S    
C80   C99   S    
N26   Ni8   S    
C16   H57   S    
N25   N28   A    
C77   C103  S    
N6    N15   A    
C13   H43   S    
N17   Ni4   S    
C5    C81   S    
C23   C29   S    
C90   C99   S    
C41   N9    A    
C55   C66   A    
C57   C64   A    
C29   H49   S    
C38   C74   A    
C11   C95   S    
N7    Ni8   S    
C39   C62   A    
C37   C73   A    
C47   H16   S    
C33   N2    A    
C10   H40   S    
N27   Ni1   S    
C82   C101  S    
C12   C92   S    
C12   C96   S    
C26   H47   S    
C84   C88   S    
C47   C74   A    
C41   H9    S    
C69   C95   S    
C16   C58   S    
N18   Ni6   S    
C31   H51   S    
N6    Ni8   S    
C4    C80   S    
C74   C99   S    
C50   N28   A    
C78   C91   S    
C65   C72   A    
C14   C60   S    
C21   C30   D    
C35   N4    A    
N29   Ni4   S    
C40   C75   A    
C89   C98   S    
C81   C86   S    
N23   Ni2   S    
C53   N21   A    
C22   H60   S    
C8    C100  S    
C88   C97   S    
C88   H30   S    
C79   C96   S    
C2    C77   S    
C51   N19   A    
C1    C58   A    
C9    C87   S    
N20   Ni5   S    
C52   H20   S    
C50   H45   S    
C86   H28   S    
C104  O13   S    
C5    O3    D    
N12   N21   A    
H62   O9    S    
C37   N6    A    
N3    Ni6   S    
C77   C93   S    
C15   C62   S    
C90   H32   S    
C19   C65   S    
C102  O9    S    
C71   C101  S    
N19   Ni5   S    
C86   C95   S    
C67   C97   S    
C22   C64   S    
N2    N10   A    
N18   N23   A    
N30   Ni4   S    
C45   N14   A    
N3    N11   A    
C55   H24   S    
C10   C90   S    
C9    C101  S    
C49   N18   A    
N10   Ni1   S    
C61   N29   A    
C36   H5    S    
C2    H37   S    
C94   C98   S    
N9    Ni2   S    
N22   N30   A    
C8    H38   S    
C36   N5    A    
C76   C102  S    
H66   O2    S    
C38   H7    S    
C92   H35   S    
C1    N1    A    
C46   C73   A    
C85   H27   S    
N21   Ni6   S    
C82   C87   S    
C33   C68   A    
C1    H1    S    
C40   N8    A    
