data_mof_unit_55297.cif
_audit_creation_date              2013-03-05T16:11:43-0500
_audit_creation_method            fapswitch 2.2
_symmetry_space_group_name_H-M    P1
_symmetry_Int_Tables_number       1
_space_group_crystal_system       triclinic
_cell_length_a                    10.667535
_cell_length_b                    9.868789
_cell_length_c                    10.500199
_cell_angle_alpha                 89.624385
_cell_angle_beta                  89.464827
_cell_angle_gamma                 89.163444
_cell_volume                      1105.22647779

loop_
_atom_site_label
_atom_site_type_symbol
_atom_site_description
_atom_site_fract_x
_atom_site_fract_y
_atom_site_fract_z
_atom_type_partial_charge
O1    O     O_R   0.316770 0.614620 0.499990 -0.581215
O2    O     O_R   0.683230 0.385380 0.500010 -0.581213
O3    O     O_R   0.683230 0.614620 0.500010 -0.602801
O4    O     O_R   0.316770 0.385380 0.499990 -0.602789
C1    C     C_R   0.872125 0.496054 0.497153 -0.370060
C2    C     C_R   0.127875 0.503946 0.502841 -0.370067
C3    C     C_R   0.260362 0.501077 0.500399 1.000018
C4    C     C_R   0.739638 0.498923 0.499601 1.000056
O5    O     O_R   0.499970 0.614650 0.313950 -0.607387
O6    O     O_R   0.500030 0.385350 0.686050 -0.607394
O7    O     O_R   0.500030 0.614650 0.686050 -0.651238
O8    O     O_R   0.499970 0.385350 0.313950 -0.651239
C5    C     C_R   0.499623 0.500468 0.257283 0.940190
C6    C     C_R   0.500375 0.499532 0.742716 0.940147
Zn1   Zn    Zn3+2 0.500000 0.653120 0.500000 1.027392
Zn2   Zn    Zn3+2 0.500000 0.346880 0.500000 1.027401
H1    H     H_    0.586903 0.123215 0.680172 0.165902
H2    H     H_    0.413097 0.876784 0.319828 0.165907
H3    H     H_    0.412263 0.128474 0.320196 0.142813
H4    H     H_    0.587737 0.871526 0.679804 0.142814
N1    N     N_R   0.500000 0.857200 0.500000 -0.094273
N2    N     N_R   0.500000 0.142800 0.500000 -0.094270
C7    C     C_3   0.393854 0.443532 0.043671 -0.111935
C8    C     C_3   0.606142 0.556468 0.956329 -0.111934
C9    C     C_3   0.399998 0.571210 0.958163 -0.082118
C10   C     C_3   0.599998 0.428789 0.041836 -0.082112
C11   C     C_3   0.493862 0.370884 0.960572 -0.153136
C12   C     C_3   0.506134 0.629115 0.039428 -0.153121
H5    H     H_    0.488809 0.265640 0.924358 0.175923
H6    H     H_    0.511187 0.734359 0.075642 0.175919
H7    H     H_    0.307648 0.397542 0.083950 0.196433
H8    H     H_    0.692349 0.602455 0.916049 0.196424
H9    H     H_    0.318785 0.629384 0.919608 0.201911
H10   H     H_    0.681211 0.370615 0.080391 0.201914
C13   C     C_3   0.500038 0.498662 0.877743 -0.035412
C14   C     C_3   0.499959 0.501338 0.122256 -0.035410
C15   C     C_R   0.548380 0.070356 0.599954 0.000047
C16   C     C_R   0.451620 0.929644 0.400046 0.000034
C17   C     C_R   0.451422 0.073272 0.400134 -0.043859
C18   C     C_R   0.548577 0.926728 0.599866 -0.043868
C19   C     C_R   0.064766 0.429348 0.597354 0.225734
C20   C     C_R   0.935234 0.570647 0.402635 0.225710
C21   C     C_R   0.935260 0.425099 0.594017 0.209116
C22   C     C_R   0.064742 0.574897 0.405974 0.209132
N3    N     N_R   0.131655 0.360135 0.697376 0.250836
O9    O     O_R   0.212057 0.424819 0.765635 -0.417582
O10   O     O_R   0.107722 0.234328 0.724821 -0.296838
N4    N     N_R   0.868344 0.639839 0.302598 0.250816
O11   O     O_R   0.787899 0.575151 0.234394 -0.417629
O12   O     O_R   0.892349 0.765608 0.275050 -0.296791
N5    N     N_R   0.867630 0.357967 0.694301 0.229615
O13   O     O_R   0.823573 0.237557 0.675809 -0.351240
O14   O     O_R   0.868317 0.406999 0.808987 -0.366829
N6    N     N_R   0.132377 0.642015 0.305685 0.229628
O15   O     O_R   0.176445 0.762422 0.324170 -0.351247
O16   O     O_R   0.131689 0.592972 0.191004 -0.366824

loop_
_geom_bond_atom_site_label_1
_geom_bond_atom_site_label_2
_geom_bond_distance
_ccdc_geom_bond_type
O4    Zn2   1.985747 S    
C1    C4    1.413179 S    
C1    C20   1.404468 A    
C8    H8    1.110385 S    
C2    C3    1.413176 S    
O1    Zn1   1.996638 S    
C7    C11   1.543371 S    
C11   H5    1.110607 S    
O2    Zn2   1.996637 S    
N4    O12   1.301150 A    
C1    C21   1.402884 A    
C20   N4    1.438454 S    
N3    O9    1.300118 A    
C9    C12   1.542691 S    
C19   C21   1.383532 A    
C21   N5    1.434865 S    
C10   C11   1.542690 S    
N1    C18   1.367077 A    
C20   C22   1.383554 A    
C9    C13   1.527512 S    
O4    C3    1.282862 A    
N2    C17   1.367079 A    
H3    C17   1.081543 S    
C12   H6    1.110607 S    
N4    O11   1.300123 A    
C8    C10   1.544210 S    
O3    C4    1.282864 A    
C15   C18   1.417407 A    
C7    C9    1.544212 S    
H2    C16   1.081189 S    
C16   C17   1.417407 A    
H4    C18   1.081543 S    
O7    C6    1.278975 A    
N6    O16   1.300863 A    
C8    C13   1.526417 S    
C9    H9    1.110417 S    
H1    C15   1.081189 S    
O5    C5    1.277796 A    
N5    O13   1.300650 A    
C22   N6    1.434861 S    
Zn1   N1    2.014022 S    
C12   C14   1.529002 S    
O3    Zn1   1.985746 S    
O8    C5    1.278974 A    
C2    C22   1.402885 A    
C5    C14   1.417752 S    
C7    C14   1.526417 S    
O6    C6    1.277795 A    
N3    O10   1.301112 A    
C10   C14   1.527513 S    
C6    C13   1.417751 S    
O6    Zn2   1.992555 S    
C19   N3    1.438434 S    
N6    O15   1.300649 A    
Zn2   N2    2.014022 S    
C11   C13   1.529003 S    
O1    C3    1.279560 A    
N2    C15   1.366938 A    
O7    Zn1   1.987667 S    
C10   H10   1.110417 S    
O2    C4    1.279559 A    
N1    C16   1.366938 A    
O8    Zn2   1.987668 S    
O5    Zn1   1.992556 S    
C8    C12   1.543370 S    
N5    O14   1.300864 A    
C2    C19   1.404452 A    
C7    H7    1.110384 S    
