data_mof_unit_61599.cif
_audit_creation_date              2012-10-26T17:23:08-0400
_audit_creation_method            fapswitch 2.2
_symmetry_space_group_name_H-M    P1
_symmetry_Int_Tables_number       1
_space_group_crystal_system       triclinic
_cell_length_a                    42.552149
_cell_length_b                    29.422158
_cell_length_c                    30.738664
_cell_angle_alpha                 90.000012
_cell_angle_beta                  136.25306
_cell_angle_gamma                 90.0
_cell_volume                      26610.7529264

loop_
_atom_site_label
_atom_site_type_symbol
_atom_type_description
_atom_site_fract_x
_atom_site_fract_y
_atom_site_fract_z
_atom_type_partial_charge
C1    C     C_R   0.585494 0.500000 0.585944 0.550885
C2    C     C_1   0.999998 1.000000 0.335275 -0.078888
C3    C     C_3   0.524772 0.542887 0.246512 -0.214964
C4    C     C_3   0.024759 0.957106 0.246499 -0.214966
C5    C     C_3   0.024772 0.042887 0.246512 -0.214964
C6    C     C_1   0.500012 0.500000 0.119988 -0.033975
C7    C     C_1   0.000012 1.000000 0.119988 -0.033975
C8    C     C_3   0.500001 0.500000 0.288840 0.069329
C9    C     C_3   0.000001 0.000000 0.288840 0.069329
C10   C     C_3   0.500005 0.500000 0.204775 0.069385
C11   C     C_3   0.000005 0.000000 0.204775 0.069385
C12   C     C_1   0.499994 0.500000 0.373628 -0.033319
C13   C     C_1   0.999994 0.000000 0.373628 -0.033319
C14   C     C_1   0.636539 0.500000 0.636903 -0.043037
C15   C     C_1   0.136539 0.000000 0.636903 -0.043037
C16   C     C_1   0.678860 0.500000 0.679152 -0.036291
C17   C     C_1   0.178860 0.000000 0.679152 -0.036291
C18   C     C_1   0.729023 0.500000 0.729233 0.001840
C19   C     C_1   0.229023 0.000000 0.729233 0.001840
C20   C     C_1   0.771344 0.500000 0.771488 0.002113
C21   C     C_R   0.085494 0.000000 0.585944 0.550885
C22   C     C_1   0.271344 0.000000 0.771488 0.002113
C23   C     C_1   0.821507 0.500000 0.821581 -0.034522
C24   C     C_1   0.321507 0.000000 0.821581 -0.034522
C25   C     C_R   0.499989 0.500000 0.418792 0.569431
C26   C     C_R   0.999989 0.000000 0.418792 0.569431
C27   C     C_1   0.863828 0.500000 0.863858 -0.039336
C28   C     C_1   0.363828 0.000000 0.863858 -0.039336
C29   C     C_1   0.499984 0.500000 0.635288 -0.043759
C30   C     C_1   0.999984 0.000000 0.635288 -0.043759
C31   C     C_1   0.499993 0.500000 0.676681 -0.029566
C32   C     C_3   0.450482 0.500008 0.172215 -0.214256
C33   C     C_1   0.999993 0.000000 0.676681 -0.029566
C34   C     C_1   0.500005 0.500000 0.726116 0.002935
C35   C     C_1   0.000005 0.000000 0.726116 0.002935
C36   C     C_1   0.500014 0.500000 0.767510 0.002892
C37   C     C_1   0.000014 0.000000 0.767510 0.002892
C38   C     C_1   0.500025 0.500000 0.816944 -0.029576
C39   C     C_1   0.000025 0.000000 0.816944 -0.029576
C40   C     C_1   0.500031 0.500000 0.858333 -0.043171
C41   C     C_1   0.000031 1.000000 0.858333 -0.043171
C42   C     C_1   0.363416 0.500000 0.363770 -0.043055
C43   C     C_3   0.950482 0.000008 0.172215 -0.214256
C44   C     C_1   0.863416 0.000000 0.363770 -0.043055
C45   C     C_1   0.321097 0.500000 0.321383 -0.036318
C46   C     C_1   0.821096 0.000000 0.321383 -0.036318
C47   C     C_1   0.270936 0.500000 0.271145 0.001827
C48   C     C_1   0.770936 0.000000 0.271145 0.001827
C49   C     C_R   0.414458 0.500000 0.414897 0.550894
C50   C     C_R   0.914458 0.000000 0.414897 0.550894
C51   C     C_1   0.228617 0.500000 0.228766 0.002105
C52   C     C_1   0.728617 0.000000 0.228766 0.002105
C53   C     C_1   0.178457 0.500000 0.178541 -0.034538
C54   C     C_3   0.450479 0.500008 0.222345 -0.215220
C55   C     C_1   0.678457 0.000000 0.178541 -0.034538
C56   C     C_1   0.136138 0.500000 0.136180 -0.039350
C57   C     C_1   0.636138 0.000000 0.136180 -0.039350
C58   C     C_R   0.500033 0.585446 0.994562 0.550717
C59   C     C_R   0.500033 0.414554 0.994562 0.550716
C60   C     C_R   0.000033 0.085446 0.994562 0.550717
C61   C     C_R   0.000033 0.914554 0.994562 0.550716
C62   C     C_R   0.500018 0.500000 0.074824 0.569829
C63   C     C_R   0.000018 0.000000 0.074824 0.569829
C64   C     C_R   0.500032 0.500000 0.908670 0.545154
C65   C     C_3   0.950479 0.000008 0.222345 -0.215220
C66   C     C_R   0.000032 0.000000 0.908670 0.545154
C67   C     C_R   0.000015 0.414862 0.999130 0.547704
C68   C     C_R   0.000015 0.585137 0.999130 0.547705
C69   C     C_R   0.500015 0.914862 0.999130 0.547704
C70   C     C_R   0.500015 0.085137 0.999130 0.547705
C71   C     C_R   0.914873 0.500000 0.914885 0.547763
C72   C     C_R   0.414873 0.000000 0.914885 0.547763
C73   C     C_R   0.085095 0.500000 0.085119 0.547803
C74   C     C_R   0.585095 0.000000 0.085119 0.547803
C75   C     C_1   0.500047 0.636497 0.995397 -0.043287
C76   C     C_1   0.500009 0.500000 0.158340 -0.078920
C77   C     C_1   0.500047 0.363503 0.995397 -0.043287
C78   C     C_1   0.000047 0.136497 0.995397 -0.043287
C79   C     C_1   0.000047 0.863503 0.995397 -0.043287
C80   C     C_R   0.499975 0.500000 0.584943 0.545472
C81   C     C_R   0.999975 0.000000 0.584943 0.545472
C82   C     C_1   0.500049 0.678820 0.996119 -0.036347
C83   C     C_1   0.500049 0.321180 0.996119 -0.036347
C84   C     C_1   0.000049 0.178819 0.996119 -0.036347
C85   C     C_1   0.000049 0.821180 0.996119 -0.036347
C86   C     C_1   0.500046 0.728987 0.996977 0.001776
C87   C     C_1   0.000009 0.000000 0.158340 -0.078920
C88   C     C_1   0.500046 0.271013 0.996977 0.001776
C89   C     C_1   0.000046 0.228987 0.996977 0.001776
C90   C     C_1   0.000046 0.771013 0.996977 0.001776
C91   C     C_1   0.000041 0.271309 0.997674 0.002058
C92   C     C_1   0.000041 0.728690 0.997674 0.002058
C93   C     C_1   0.500041 0.771309 0.997674 0.002058
C94   C     C_1   0.500041 0.228690 0.997674 0.002058
C95   C     C_1   0.000033 0.321479 0.998423 -0.034517
C96   C     C_1   0.000033 0.678521 0.998423 -0.034517
C97   C     C_1   0.500033 0.821479 0.998423 -0.034517
C98   C     C_1   0.499998 0.500000 0.335275 -0.078888
C99   C     C_1   0.500033 0.178521 0.998423 -0.034517
C100  C     C_1   0.000026 0.363805 0.998907 -0.039367
C101  C     C_1   0.000026 0.636195 0.998907 -0.039367
C102  C     C_1   0.500026 0.863805 0.998907 -0.039367
C103  C     C_1   0.500026 0.136195 0.998907 -0.039367
C104  C     C_3   0.524770 0.542887 0.296643 -0.214501
C105  C     C_3   0.524756 0.457106 0.296629 -0.214501
C106  C     C_3   0.024770 0.042887 0.296643 -0.214501
C107  C     C_3   0.024757 0.957106 0.296629 -0.214501
C108  C     C_3   0.524759 0.457106 0.246499 -0.214966
Cu1   Cu    Cu3+1 0.499970 0.542470 0.500570 0.947006
Cu2   Cu    Cu3+1 0.499990 0.000000 0.958110 0.952114
Cu3   Cu    Cu3+1 0.999980 0.500000 0.041890 0.947336
Cu4   Cu    Cu3+1 0.499980 0.000000 0.041890 0.947336
Cu5   Cu    Cu3+1 0.499970 0.457530 0.500570 0.947005
Cu6   Cu    Cu3+1 0.999970 0.042470 0.500570 0.947005
Cu7   Cu    Cu3+1 0.999970 0.957530 0.500570 0.947005
Cu8   Cu    Cu3+1 0.542500 0.500000 0.035600 0.946909
Cu9   Cu    Cu3+1 0.042500 0.000000 0.035600 0.946909
Cu10  Cu    Cu3+1 0.457550 0.500000 0.950640 0.946974
Cu11  Cu    Cu3+1 0.957550 0.000000 0.950640 0.946974
Cu12  Cu    Cu3+1 0.999990 0.500000 0.958110 0.952114
H1    H     H_    0.560427 0.543578 0.270044 0.119760
H2    H     H_    0.507550 0.574116 0.291547 0.120016
H3    H     H_    0.007527 0.925882 0.291524 0.120016
H4    H     H_    0.007550 0.074116 0.291547 0.120016
H5    H     H_    0.507531 0.425882 0.217144 0.118703
H6    H     H_    0.507554 0.574116 0.217167 0.118703
H7    H     H_    0.007531 0.925882 0.217144 0.118703
H8    H     H_    0.007554 0.074116 0.217167 0.118703
H9    H     H_    0.432053 0.530540 0.216043 0.119103
H10   H     H_    0.432043 0.469480 0.216033 0.119102
H11   H     H_    0.932053 0.030541 0.216043 0.119103
H12   H     H_    0.560413 0.456404 0.270031 0.119760
H13   H     H_    0.932043 0.969480 0.216033 0.119102
H14   H     H_    0.432057 0.530541 0.141664 0.119648
H15   H     H_    0.432048 0.469480 0.141654 0.119648
H16   H     H_    0.932057 0.030541 0.141664 0.119648
H17   H     H_    0.932048 0.969480 0.141654 0.119648
H18   H     H_    0.060426 0.043578 0.270044 0.119760
H19   H     H_    0.060413 0.956404 0.270031 0.119760
H20   H     H_    0.560423 0.543577 0.344424 0.118991
H21   H     H_    0.560409 0.456404 0.344410 0.118991
H22   H     H_    0.060423 0.043577 0.344424 0.118991
H23   H     H_    0.060409 0.956404 0.344410 0.118991
H24   H     H_    0.507527 0.425882 0.291524 0.120016
O1    O     O_R   0.561950 0.535860 0.562460 -0.483564
O2    O     O_R   0.500010 0.061990 0.963800 -0.481934
O3    O     O_R   0.000000 0.438000 0.034540 -0.482402
O4    O     O_R   1.000000 0.562000 0.034540 -0.482403
O5    O     O_R   0.500000 0.938000 0.034540 -0.482402
O6    O     O_R   0.500000 0.062000 0.034540 -0.482403
O7    O     O_R   0.938010 0.500000 0.902650 -0.481556
O8    O     O_R   0.438010 0.000000 0.902650 -0.481556
O9    O     O_R   0.938010 0.500000 0.973390 -0.482830
O10   O     O_R   0.438010 0.000000 0.973390 -0.482830
O11   O     O_R   0.061960 0.500000 0.026610 -0.481479
O12   O     O_R   0.561950 0.464140 0.562460 -0.483564
O13   O     O_R   0.561960 0.000000 0.026610 -0.481479
O14   O     O_R   0.061960 0.500000 0.097350 -0.482795
O15   O     O_R   0.561960 0.000000 0.097350 -0.482795
O16   O     O_R   0.499980 0.535870 0.439370 -0.496074
O17   O     O_R   0.499980 0.464130 0.439370 -0.496074
O18   O     O_R   0.999980 0.035870 0.439370 -0.496074
O19   O     O_R   0.999980 0.964130 0.439370 -0.496074
O20   O     O_R   0.438000 0.535860 0.438500 -0.483554
O21   O     O_R   0.438000 0.464140 0.438500 -0.483554
O22   O     O_R   0.938000 0.035860 0.438500 -0.483554
O23   O     O_R   0.061950 0.035860 0.562460 -0.483564
O24   O     O_R   0.938000 0.964140 0.438500 -0.483554
O25   O     O_R   0.499970 0.535850 0.561590 -0.480432
O26   O     O_R   0.499970 0.464150 0.561590 -0.480432
O27   O     O_R   0.999970 0.035850 0.561590 -0.480432
O28   O     O_R   0.999970 0.964150 0.561590 -0.480432
O29   O     O_R   0.535890 0.561890 0.029840 -0.483339
O30   O     O_R   0.535890 0.438110 0.029840 -0.483339
O31   O     O_R   0.035890 0.061890 0.029840 -0.483339
O32   O     O_R   0.035890 0.938110 0.029840 -0.483339
O33   O     O_R   0.464160 0.561920 0.958100 -0.483426
O34   O     O_R   0.061950 0.964140 0.562460 -0.483564
O35   O     O_R   0.464160 0.438080 0.958100 -0.483426
O36   O     O_R   0.964160 0.061920 0.958100 -0.483426
O37   O     O_R   0.964160 0.938080 0.958100 -0.483426
O38   O     O_R   0.535890 0.500000 0.090110 -0.494664
O39   O     O_R   0.035890 0.000000 0.090110 -0.494664
O40   O     O_R   0.464150 0.500000 0.018360 -0.494710
O41   O     O_R   0.964150 1.000000 0.018360 -0.494710
O42   O     O_R   0.535900 0.500000 0.967880 -0.481689
O43   O     O_R   0.035900 0.000000 0.967880 -0.481689
O44   O     O_R   0.464160 0.500000 0.896130 -0.481716
O45   O     O_R   0.964160 0.000000 0.896130 -0.481716
O46   O     O_R   0.000010 0.438010 0.963800 -0.481934
O47   O     O_R   0.000010 0.561990 0.963800 -0.481934
O48   O     O_R   0.500010 0.938010 0.963800 -0.481934

loop_
_geom_bond_atom_site_label_1
_geom_bond_atom_site_label_2
_ccdc_geom_bond_type
C3    C104  S    
C99   C103  T    
C64   O42   A    
Cu4   O15   S    
C10   C108  S    
C70   O6    A    
C80   O26   A    
C59   O30   A    
C8    C105  S    
C59   C77   S    
C105  H24   S    
Cu6   Cu7   S    
C3    H6    S    
C27   C71   S    
Cu6   O23   S    
C39   C41   T    
C69   C102  S    
C60   C78   S    
C74   O15   A    
C10   C32   S    
C84   C89   S    
C35   C37   T    
Cu3   O14   S    
C5    C11   S    
Cu2   O8    S    
Cu9   Cu11  S    
C105  H21   S    
Cu6   O18   S    
C104  H2    S    
C77   C83   T    
C71   O9    A    
C66   O45   A    
C26   O19   A    
C92   C96   S    
C62   O40   A    
Cu11  O37   S    
C81   O28   A    
Cu2   O48   S    
C2    C13   T    
C8    C98   S    
C49   O20   A    
C17   C19   S    
C10   C76   S    
C7    C87   T    
C4    C107  S    
C11   C87   S    
C72   O8    A    
Cu8   O38   S    
C50   O22   A    
C11   C43   S    
C70   O2    A    
C14   C16   T    
C107  H3    S    
C108  H5    S    
C89   C91   T    
C12   C98   T    
C97   C102  T    
C74   O13   A    
C52   C55   S    
Cu1   Cu5   S    
Cu10  O35   S    
Cu9   O31   S    
C83   C88   S    
C30   C33   T    
C38   C40   T    
Cu4   O10   S    
C96   C101  T    
C23   C27   T    
C28   C72   S    
C61   O32   A    
C80   O25   A    
C69   O48   A    
C32   C54   S    
C65   H11   S    
C44   C46   T    
C58   C75   S    
C106  H22   S    
C9    C65   S    
C5    C106  S    
C45   C47   S    
Cu6   O27   S    
C54   H10   S    
C105  C108  S    
C88   C94   T    
C67   O46   A    
C63   O39   A    
C24   C28   T    
C5    H18   S    
C19   C22   T    
C72   O10   A    
C68   C101  S    
Cu9   O43   S    
Cu12  O47   S    
C8    C54   S    
Cu10  O44   S    
C95   C100  T    
C47   C51   T    
C68   O47   A    
C63   O41   A    
C9    C106  S    
C82   C86   S    
Cu5   O17   S    
C73   O14   A    
C26   O18   A    
Cu12  O11   S    
C104  H20   S    
Cu3   Cu12  S    
C51   C53   S    
C42   C45   T    
C57   C74   S    
C1    O12   A    
Cu11  O41   S    
C49   O21   A    
C86   C93   T    
Cu3   O3    S    
C62   O38   A    
C8    C104  S    
C90   C92   T    
C20   C23   S    
C48   C52   T    
C43   C65   S    
Cu6   O22   S    
C66   O43   A    
C73   O11   A    
C25   O16   A    
Cu12  O46   S    
C31   C34   S    
C4    C11   S    
Cu3   O9    S    
C7    C63   S    
C64   O44   A    
Cu2   O13   S    
C67   C100  S    
Cu8   O29   S    
Cu9   O32   S    
C16   C18   S    
C21   O34   A    
C25   O17   A    
C55   C57   T    
C50   O24   A    
C22   C24   S    
C13   C26   S    
C58   O29   A    
C9    C107  S    
C1    O1    A    
Cu5   O12   S    
C107  H23   S    
C93   C97   S    
C79   C85   T    
C71   O7    A    
Cu1   O25   S    
C53   C56   T    
C44   C50   S    
C15   C17   T    
C54   H9    S    
Cu12  O7    S    
C56   C73   S    
C4    H7    S    
Cu4   O6    S    
C70   C103  S    
C46   C48   S    
Cu1   O1    S    
Cu11  O45   S    
Cu5   O21   S    
Cu7   O28   S    
Cu1   O20   S    
C68   O4    A    
C32   H15   S    
C85   C90   S    
Cu9   O39   S    
C75   C82   T    
C6    C76   T    
C41   C66   S    
Cu10  O40   S    
C60   O36   A    
Cu5   O26   S    
C61   O37   A    
C40   C64   S    
Cu8   O30   S    
C12   C25   S    
C69   O5    A    
C6    C62   S    
C30   C81   S    
C59   O35   A    
C37   C39   S    
C3    C10   S    
Cu3   O4    S    
C4    H19   S    
C32   H14   S    
Cu1   O16   S    
C29   C80   S    
Cu8   O42   S    
C94   C99   S    
C61   C79   S    
C5    H8    S    
C36   C38   S    
C33   C35   S    
C34   C36   T    
Cu8   Cu10  S    
C43   H17   S    
C58   O33   A    
C18   C20   T    
C21   O23   A    
C81   O27   A    
Cu7   O19   S    
C43   H16   S    
Cu2   Cu4   S    
C108  H12   S    
Cu7   O34   S    
C42   C49   S    
C91   C95   S    
Cu10  O33   S    
C78   C84   T    
C15   C21   S    
C29   C31   T    
Cu11  O36   S    
C67   O3    A    
C106  H4    S    
C60   O31   A    
Cu4   O5    S    
C1    C14   S    
Cu7   O24   S    
Cu2   O2    S    
C2    C9    S    
C65   H13   S    
C3    H1    S    
