data_mof_unit_27843.cif
_audit_creation_date              2012-10-26T20:48:44-0400
_audit_creation_method            fapswitch 2.2
_symmetry_space_group_name_H-M    P1
_symmetry_Int_Tables_number       1
_space_group_crystal_system       triclinic
_cell_length_a                    15.21025
_cell_length_b                    13.995482
_cell_length_c                    9.072552
_cell_angle_alpha                 89.999926
_cell_angle_beta                  94.054189
_cell_angle_gamma                 90.0
_cell_volume                      1926.48464101

loop_
_atom_site_label
_atom_site_type_symbol
_atom_type_description
_atom_site_fract_x
_atom_site_fract_y
_atom_site_fract_z
_atom_type_partial_charge
C1    C     C_R   0.330301 0.499670 0.509358 0.563834
C2    C     C_R   0.573893 0.892379 0.559086 0.182410
C3    C     C_R   0.499654 0.499993 0.220776 0.576071
C4    C     C_R   0.500346 0.499993 0.779224 0.576071
C5    C     C_R   0.500000 0.054019 0.500000 -0.070746
C6    C     C_R   0.500000 0.945192 0.500000 -0.069300
C7    C     C_1   0.499882 0.499956 0.065573 0.021028
C8    C     C_1   0.500118 0.499956 0.934427 0.021027
C9    C     C_R   0.098088 0.587207 0.561785 -0.094259
C10   C     C_R   0.909527 0.429184 0.544636 -0.111891
C11   C     C_R   0.901911 0.587207 0.438211 -0.094259
C12   C     C_R   0.669699 0.499670 0.490642 0.563833
C13   C     C_R   0.090473 0.429184 0.455363 -0.111891
C14   C     C_R   0.190325 0.581404 0.577840 0.047960
C15   C     C_R   0.818726 0.419175 0.524345 0.033727
C16   C     C_R   0.809675 0.581404 0.422157 0.047959
C17   C     C_R   0.181274 0.419175 0.475655 0.033727
C18   C     C_R   0.233586 0.499052 0.524574 -0.026960
C19   C     C_R   0.766414 0.499052 0.475426 -0.026960
C20   C     C_R   0.048323 0.511457 0.500671 -0.019761
C21   C     C_R   0.951677 0.511457 0.499326 -0.019761
C22   C     C_2   0.580332 0.253497 0.751603 0.666744
C23   C     C_R   0.532130 0.207366 0.623140 0.208236
C24   C     C_2   0.362795 0.743961 0.332445 0.688541
C25   C     C_2   0.419667 0.253497 0.248398 0.666744
C26   C     C_2   0.637206 0.743961 0.667553 0.688542
C27   C     C_2   0.237524 0.658121 0.664745 0.619456
C28   C     C_2   0.785024 0.320849 0.542542 0.635294
C29   C     C_2   0.762475 0.658120 0.335251 0.619455
C30   C     C_2   0.214976 0.320849 0.457461 0.635294
C31   C     C_R   0.431767 0.791789 0.428299 0.209335
C32   C     C_R   0.467869 0.207366 0.376860 0.208235
C33   C     C_R   0.568232 0.791789 0.571701 0.209334
C34   C     C_R   0.522542 0.106658 0.630281 0.183654
C35   C     C_R   0.426107 0.892379 0.440914 0.182410
C36   C     C_R   0.477457 0.106659 0.369719 0.183654
Cu1   Cu    Cu3+1 0.500000 0.596430 0.500000 1.107459
Cu2   Cu    Cu3+1 0.500000 0.403570 0.500000 1.106556
H1    H     H_    0.064481 0.648507 0.604488 0.174497
H2    H     H_    0.790420 0.199596 0.663232 0.363116
H3    H     H_    0.757404 0.797407 0.277796 0.360223
H4    H     H_    0.209580 0.199594 0.336775 0.363115
H5    H     H_    0.507052 0.000979 0.765671 0.357390
H6    H     H_    0.343029 0.998244 0.440684 0.351268
H7    H     H_    0.492947 0.000979 0.234329 0.357390
H8    H     H_    0.656970 0.998244 0.559316 0.351268
H9    H     H_    0.948620 0.369500 0.588615 0.161559
H10   H     H_    0.935518 0.648507 0.395506 0.174498
H11   H     H_    0.051380 0.369500 0.411384 0.161559
H12   H     H_    0.598099 0.266262 0.973068 0.353683
H13   H     H_    0.329752 0.679298 0.137821 0.345266
H14   H     H_    0.401900 0.266262 0.026933 0.353683
H15   H     H_    0.670251 0.679294 0.862175 0.345265
H16   H     H_    0.242595 0.797408 0.722197 0.360223
N1    N     N_R   0.500000 0.258690 0.500000 -0.317629
N2    N     N_R   0.500000 0.741310 0.500000 -0.340951
O1    O     O_R   0.371460 0.581430 0.500010 -0.489763
O2    O     O_R   0.559712 0.230931 0.894988 -0.595699
O3    O     O_2   0.286712 0.743012 0.367635 -0.451595
O4    O     O_R   0.382858 0.708322 0.195093 -0.657036
O5    O     O_2   0.359527 0.308749 0.266625 -0.485125
O6    O     O_R   0.440287 0.230932 0.105012 -0.595699
O7    O     O_2   0.713289 0.743014 0.632361 -0.451594
O8    O     O_R   0.617144 0.708319 0.804904 -0.657035
O9    O     O_2   0.302038 0.639056 0.747690 -0.500185
O10   O     O_R   0.205344 0.751745 0.657388 -0.638729
O11   O     O_2   0.736926 0.284143 0.444646 -0.478377
O12   O     O_R   0.628540 0.418570 0.499990 -0.446172
O13   O     O_R   0.815360 0.266819 0.665538 -0.650464
O14   O     O_2   0.697961 0.639055 0.252308 -0.500184
O15   O     O_R   0.794656 0.751744 0.342605 -0.638729
O16   O     O_2   0.263074 0.284144 0.555359 -0.478378
O17   O     O_R   0.184641 0.266818 0.334467 -0.650464
O18   O     O_3   0.540217 0.061813 0.765010 -0.595814
O19   O     O_3   0.348404 0.936284 0.389531 -0.619328
O20   O     O_3   0.459782 0.061813 0.234990 -0.595814
O21   O     O_3   0.651595 0.936284 0.610469 -0.619327
O22   O     O_R   0.628540 0.581430 0.499990 -0.489763
O23   O     O_R   0.371460 0.418570 0.500010 -0.446173
O24   O     O_R   0.500000 0.581420 0.288390 -0.445910
O25   O     O_R   0.500000 0.418580 0.711610 -0.503919
O26   O     O_R   0.500000 0.581420 0.711610 -0.445909
O27   O     O_R   0.500000 0.418580 0.288390 -0.503919
O28   O     O_2   0.640472 0.308749 0.733375 -0.485124

loop_
_geom_bond_atom_site_label_1
_geom_bond_atom_site_label_2
_ccdc_geom_bond_type
Cu2   O27   S    
C14   C18   A    
C28   O13   S    
C26   O7    D    
C7    C8    T    
C15   C19   A    
C12   O12   A    
C35   O19   S    
C1    C18   S    
H7    O20   S    
C32   C36   A    
C3    C7    S    
C10   C15   A    
C24   O3    D    
C5    C6    S    
H15   O8    S    
Cu2   O23   S    
C5    C36   A    
C9    H1    S    
C6    C35   A    
C26   O8    S    
C36   O20   S    
Cu1   N2    S    
Cu2   N1    S    
C12   O22   A    
C31   N2    A    
C32   N1    A    
C4    C8    S    
H3    O15   S    
C25   C32   S    
C17   C30   S    
C11   H10   S    
C2    C6    A    
C3    O24   A    
C10   C21   A    
Cu1   O24   S    
H2    O13   S    
C4    O25   A    
H12   O2    S    
C28   O11   D    
C30   O17   S    
C16   C29   S    
C11   C21   A    
H5    O18   S    
C22   O28   D    
H6    O19   S    
C9    C14   A    
Cu1   Cu2   S    
C27   O9    D    
C1    O1    A    
C11   C16   A    
C9    C20   A    
C24   O4    S    
C23   C34   A    
C5    C34   A    
C17   C18   A    
C25   O5    D    
C34   O18   S    
C13   H11   S    
C2    C33   A    
Cu2   O12   S    
Cu2   O25   S    
C3    O27   A    
C14   C27   S    
C31   C35   A    
Cu1   O26   S    
C29   O14   D    
H4    O17   S    
C13   C20   A    
C22   O2    S    
H8    O21   S    
C30   O16   D    
C23   N1    A    
H16   O10   S    
Cu1   O22   S    
C13   C17   A    
C24   C31   S    
C2    O21   S    
H14   O6    S    
C15   C28   S    
C33   N2    A    
C16   C19   A    
C1    O23   A    
C12   C19   S    
C25   O6    S    
C4    O26   A    
C20   C21   S    
C10   H9    S    
C27   O10   S    
C22   C23   S    
H13   O4    S    
Cu1   O1    S    
C26   C33   S    
C29   O15   S    
