data_mof_unit_20208.cif
_audit_creation_date              2012-12-11T14:48:12-0500
_audit_creation_method            fapswitch 2.2
_symmetry_space_group_name_H-M    P1
_symmetry_Int_Tables_number       1
_space_group_crystal_system       triclinic
_cell_length_a                    11.555227
_cell_length_b                    11.477458
_cell_length_c                    19.568507
_cell_angle_alpha                 90.356453
_cell_angle_beta                  89.907803
_cell_angle_gamma                 60.029709
_cell_volume                      2248.16203838

loop_
_atom_site_label
_atom_site_type_symbol
_atom_type_description
_atom_site_fract_x
_atom_site_fract_y
_atom_site_fract_z
_atom_type_partial_charge
C1    C     C_R   0.640214 0.117570 0.599307 0.545396
C2    C     C_1   0.652512 0.150049 0.668678 0.005893
C3    C     C_R   0.534061 0.709819 0.293853 -0.145153
C4    C     C_R   0.612185 0.746093 0.598671 0.545415
C5    C     C_R   0.542213 0.706044 0.224372 -0.139577
C6    C     C_R   0.664323 0.667687 0.192837 0.043427
C7    C     C_R   0.776055 0.644479 0.231694 -0.079942
C8    C     C_R   0.765082 0.656305 0.302207 -0.098531
C9    C     C_R   0.643513 0.690681 0.333202 0.010950
C10   C     C_R   0.224554 0.264146 0.288010 0.040955
C11   C     C_R   0.188788 0.279248 0.220290 -0.144119
C12   C     C_1   0.640697 0.703972 0.668023 0.006054
C13   C     C_R   0.165846 0.185879 0.186333 -0.012034
C14   C     C_R   0.198534 0.063234 0.218314 -0.028201
C15   C     C_R   0.243444 0.042202 0.285681 -0.147237
C16   C     C_R   0.240611 0.145415 0.598196 0.556393
C17   C     C_R   0.253853 0.142246 0.321941 -0.012026
C18   C     C_R   0.763671 0.037838 0.290167 0.011756
C19   C     C_R   0.742018 0.052976 0.219596 0.024267
C20   C     C_R   0.668802 0.184421 0.193312 -0.014965
C21   C     C_R   0.596082 0.293994 0.237709 -0.149929
C22   C     C_R   0.596605 0.273309 0.307584 -0.123445
C23   C     C_1   0.126849 0.198765 0.859254 0.007011
C24   C     C_R   0.675873 0.144797 0.334218 -0.007278
C25   C     C_R   0.082062 0.231092 0.928551 0.545138
C26   C     C_R   0.684009 0.604673 0.929447 0.551550
C27   C     C_R   0.708595 0.206729 0.930035 0.550325
C28   C     C_R   0.647511 0.112984 0.402798 0.549852
C29   C     C_R   0.088098 0.232940 0.123512 0.546121
C30   C     C_R   0.682646 0.613419 0.124914 0.566068
C31   C     C_R   0.705965 0.210026 0.125962 0.561199
C32   C     C_R   0.616607 0.738135 0.402681 0.538743
C33   C     C_R   0.297301 0.118337 0.393494 0.560322
C34   C     C_1   0.171444 0.170124 0.727725 -0.029470
C35   C     C_1   0.670722 0.646677 0.860062 0.008076
C36   C     C_1   0.654439 0.683777 0.728420 -0.029552
C37   C     C_1   0.663553 0.666828 0.799639 -0.029228
C38   C     C_2   0.797015 0.934493 0.172615 0.611530
C39   C     C_2   0.212332 0.387449 0.320640 0.603776
C40   C     C_1   0.186268 0.958143 0.184118 0.233236
C41   C     C_2   0.887660 0.921213 0.316919 0.641611
C42   C     C_1   0.150203 0.182199 0.798925 -0.028682
C43   C     C_1   0.195110 0.160782 0.667406 0.004598
C44   C     C_1   0.679023 0.191153 0.860705 0.007367
C45   C     C_1   0.658320 0.167453 0.729037 -0.029106
C46   C     C_1   0.665900 0.180889 0.800314 -0.028812
Cr1   Cr    Cr6+3 0.404720 0.198220 0.499960 1.062194
Cr2   Cr    Cr6+3 0.698290 0.897110 0.500380 1.063203
Cr3   Cr    Cr6+3 0.396970 0.904720 0.499610 1.037214
Cr4   Cr    Cr6+3 0.926180 0.152240 0.028110 1.083584
Cr5   Cr    Cr6+3 0.921340 0.452070 0.027460 1.046432
Cr6   Cr    Cr6+3 0.626260 0.447120 0.028700 1.048122
H1    H     H_    0.439151 0.733323 0.316323 0.141513
H2    H     H_    0.297513 0.475351 0.373737 0.324621
H3    H     H_    0.051529 0.858406 0.375502 0.336925
H4    H     H_    0.542989 0.396056 0.218779 0.153289
H5    H     H_    0.539651 0.358206 0.341279 0.165329
H6    H     H_    0.455309 0.722530 0.195662 0.156017
H7    H     H_    0.872672 0.611024 0.208172 0.178256
H8    H     H_    0.850001 0.638969 0.332693 0.215496
H9    H     H_    0.167657 0.372335 0.195724 0.164892
H10   H     H_    0.264996 0.949844 0.310769 0.138581
H11   H     H_    0.958004 0.768317 0.135216 0.337064
N1    N     N_1   0.176964 0.873604 0.156698 -0.242010
O1    O     O_R   0.267740 0.231990 0.575440 -0.499941
O2    O     O_R   0.596140 0.579600 0.952720 -0.501446
O3    O     O_R   0.639070 0.321380 0.958660 -0.495136
O4    O     O_R   0.527280 0.186680 0.570530 -0.498383
O5    O     O_R   0.821240 0.124490 0.104360 -0.476360
O6    O     O_R   0.036900 0.167320 0.097830 -0.483830
O7    O     O_R   0.056190 0.349890 0.102870 -0.527139
O8    O     O_R   0.797670 0.565150 0.097930 -0.500554
O9    O     O_R   0.595880 0.584540 0.104260 -0.520491
O10   O     O_R   0.638830 0.325960 0.099140 -0.505837
O11   O     O_3   0.824590 0.350480 0.028090 -0.268403
O12   O     O_R   0.685970 0.784630 0.430010 -0.493258
O13   O     O_R   0.728090 0.003480 0.576380 -0.499394
O14   O     O_R   0.682970 0.789220 0.570490 -0.492459
O15   O     O_R   0.499290 0.771920 0.575530 -0.503981
O16   O     O_R   0.285330 0.030900 0.569730 -0.487187
O17   O     O_R   0.270980 0.227040 0.423900 -0.465948
O18   O     O_R   0.530280 0.182090 0.430050 -0.481247
O19   O     O_R   0.731330 0.998530 0.424830 -0.483928
O20   O     O_2   0.721481 0.921053 0.133889 -0.532100
O21   O     O_R   0.934150 0.843092 0.169860 -0.628471
O22   O     O_2   0.107442 0.494033 0.315815 -0.518781
O23   O     O_R   0.502530 0.766960 0.423990 -0.534902
O24   O     O_R   0.319939 0.384376 0.354154 -0.681968
O25   O     O_2   0.917842 0.806227 0.301667 -0.481242
O26   O     O_R   0.969818 0.944645 0.360508 -0.678679
O27   O     O_R   0.288330 0.026310 0.429250 -0.495439
O28   O     O_3   0.499990 0.000020 0.499980 -0.284988
O29   O     O_R   0.821500 0.119550 0.952820 -0.498402
O30   O     O_R   0.037130 0.162750 0.957360 -0.495813
O31   O     O_R   0.056440 0.344950 0.951330 -0.504228
O32   O     O_R   0.797900 0.560570 0.957460 -0.490528

loop_
_geom_bond_atom_site_label_1
_geom_bond_atom_site_label_2
_ccdc_geom_bond_type
C41   O25   D    
C1    O13   A    
Cr1   O28   S    
Cr2   O12   S    
C19   C20   A    
C34   C42   S    
Cr6   O11   S    
C22   H5    S    
C7    C8    A    
C45   C46   S    
C23   C42   T    
Cr5   O7    S    
C5    H6    S    
C18   C24   A    
C13   C29   S    
C36   C37   S    
C35   C37   T    
Cr4   O5    S    
Cr5   O11   S    
C18   C19   A    
H3    O26   S    
Cr6   O10   S    
C33   O27   A    
C5    C6    A    
C10   C17   A    
C1    O4    A    
C1    C2    S    
Cr1   O18   S    
Cr2   O14   S    
Cr3   O23   S    
C9    C32   S    
C27   C44   S    
C8    C9    A    
C4    C12   S    
Cr5   O32   S    
C23   C25   S    
C41   O26   S    
C25   O30   A    
C21   C22   A    
H11   O21   S    
C28   O19   A    
C17   C33   S    
C39   O24   S    
Cr3   O27   S    
C7    H7    S    
C44   C46   T    
C2    C45   T    
C26   O32   A    
C38   O21   S    
C28   O18   A    
C26   O2    A    
C4    O15   A    
Cr6   O9    S    
C18   C41   S    
C30   O9    A    
Cr4   O30   S    
C31   O10   A    
C11   H9    S    
C32   O23   A    
Cr3   O15   S    
C10   C39   S    
C16   O16   A    
Cr2   O13   S    
C4    O14   A    
C3    C9    A    
C19   C38   S    
C3    H1    S    
C16   C43   S    
Cr6   O3    S    
C6    C30   S    
C25   O31   A    
C22   C24   A    
C27   O29   A    
C12   C36   T    
Cr5   O8    S    
Cr3   O28   S    
Cr1   O4    S    
Cr6   O2    S    
C29   O6    A    
C15   C17   A    
C38   O20   D    
C34   C43   T    
C24   C28   S    
C3    C5    A    
C32   O12   A    
C21   H4    S    
C30   O8    A    
Cr3   O16   S    
Cr4   O29   S    
C6    C7    A    
C40   N1    T    
Cr2   O19   S    
Cr4   O6    S    
Cr4   O11   S    
C8    H8    S    
H2    O24   S    
C11   C13   A    
C15   H10   S    
Cr1   O17   S    
C27   O3    A    
C10   C11   A    
C14   C40   S    
C26   C35   S    
C31   O5    A    
C20   C21   A    
Cr2   O28   S    
C14   C15   A    
C16   O1    A    
C39   O22   D    
C13   C14   A    
C33   O17   A    
Cr1   O1    S    
Cr5   O31   S    
C29   O7    A    
C20   C31   S    
