data_mof_unit_8469.cif
_audit_creation_date              2012-12-11T16:08:57-0500
_audit_creation_method            fapswitch 2.2
_symmetry_space_group_name_H-M    P1
_symmetry_Int_Tables_number       1
_space_group_crystal_system       triclinic
_cell_length_a                    12.967305
_cell_length_b                    13.262762
_cell_length_c                    27.69405
_cell_angle_alpha                 94.828228
_cell_angle_beta                  90.175971
_cell_angle_gamma                 119.299093
_cell_volume                      4133.49212082

loop_
_atom_site_label
_atom_site_type_symbol
_atom_type_description
_atom_site_fract_x
_atom_site_fract_y
_atom_site_fract_z
_atom_type_partial_charge
C1    C     C_R   0.627973 0.895673 0.427300 0.546949
C2    C     C_R   0.158259 0.735890 0.301541 0.027356
C3    C     C_R   0.148459 0.730193 0.200514 -0.003835
C4    C     C_R   0.601218 0.222289 0.440644 0.545484
C5    C     C_R   0.147572 0.638370 0.222159 -0.108822
C6    C     C_R   0.149295 0.638389 0.272531 0.012409
C7    C     C_R   0.139168 0.725007 0.150478 -0.128179
C8    C     C_R   0.120274 0.806325 0.128366 -0.002717
C9    C     C_R   0.194838 0.939163 0.358102 -0.135125
C10   C     C_R   0.171633 0.928177 0.308137 0.014642
C11   C     C_R   0.159650 0.829161 0.279571 0.048685
C12   C     C_R   0.599514 0.359554 0.230787 -0.115559
C13   C     C_R   0.167768 0.017572 0.285891 -0.126141
C14   C     C_R   0.153060 0.009678 0.235510 -0.125297
C15   C     C_R   0.146292 0.914247 0.206756 0.018405
C16   C     C_R   0.267527 0.875490 0.426076 0.547411
C17   C     C_R   0.151633 0.824666 0.228970 0.057007
C18   C     C_R   0.128900 0.903722 0.156317 -0.132529
C19   C     C_R   0.203238 0.851070 0.379329 -0.010129
C20   C     C_R   0.750336 0.943777 0.356543 -0.128235
C21   C     C_R   0.755166 0.936900 0.306243 0.025862
C22   C     C_R   0.753231 0.922411 0.205005 -0.001787
C23   C     C_R   0.591172 0.346798 0.280344 -0.108907
C24   C     C_R   0.841456 0.020943 0.232223 -0.109297
C25   C     C_R   0.844987 0.028724 0.282810 0.009054
C26   C     C_R   0.757091 0.912132 0.154997 -0.129888
C27   C     C_R   0.681858 0.806260 0.127904 -0.003595
C28   C     C_R   0.627490 0.898322 0.564797 0.547629
C29   C     C_R   0.565894 0.760505 0.351817 -0.133693
C30   C     C_R   0.572527 0.747500 0.301602 0.016011
C31   C     C_R   0.664441 0.838051 0.278620 0.048843
C32   C     C_R   0.485786 0.648221 0.273762 -0.127577
C33   C     C_R   0.489827 0.638161 0.223341 -0.130230
C34   C     C_R   0.671508 0.324986 0.304876 0.024747
C35   C     C_R   0.579094 0.728494 0.200164 0.017467
C36   C     C_R   0.665088 0.829941 0.227948 0.057891
C37   C     C_R   0.588602 0.716737 0.149997 -0.134874
C38   C     C_R   0.651742 0.861365 0.378934 -0.009029
C39   C     C_R   0.733805 0.287287 0.652742 -0.150441
C40   C     C_R   0.603573 0.228248 0.578309 0.544845
C41   C     C_R   0.744699 0.306060 0.703224 -0.007076
C42   C     C_R   0.762735 0.336044 0.805062 0.028830
C43   C     C_R   0.853205 0.329208 0.778846 0.003670
C44   C     C_R   0.841778 0.312151 0.728138 -0.108006
C45   C     C_R   0.687692 0.349819 0.205085 0.053126
C46   C     C_R   0.774532 0.362279 0.855638 -0.136071
C47   C     C_R   0.685457 0.371320 0.880511 -0.013461
C48   C     C_R   0.563448 0.317080 0.653196 0.001579
C49   C     C_R   0.557000 0.308503 0.703620 0.028580
C50   C     C_R   0.653760 0.312070 0.728954 0.020213
C51   C     C_R   0.456197 0.293330 0.728966 0.014176
C52   C     C_R   0.271719 0.879433 0.563426 0.546288
C53   C     C_R   0.464128 0.309509 0.780162 0.010448
C54   C     C_R   0.566529 0.323593 0.805393 0.006689
C55   C     C_R   0.660252 0.322379 0.779788 0.025939
C56   C     C_1   0.696329 0.370092 0.154493 -0.056705
C57   C     C_R   0.578722 0.341849 0.855943 -0.132122
C58   C     C_R   0.640036 0.287274 0.627625 0.003144
C59   C     C_1   0.222277 0.863297 0.610208 -0.016428
C60   C     C_R   0.073296 0.752539 0.718330 -0.103600
C61   C     C_R   0.058413 0.742553 0.767988 -0.107587
C62   C     C_R   0.237856 0.927602 0.786184 -0.109734
C63   C     C_R   0.252921 0.937414 0.736479 -0.111318
C64   C     C_1   0.634614 0.271502 0.395309 -0.016882
C65   C     C_R   0.171046 0.849602 0.702463 0.032190
C66   C     C_R   0.141308 0.829359 0.802004 0.026867
C67   C     C_1   0.655033 0.300745 0.354816 -0.061214
C68   C     C_1   0.124764 0.816369 0.852897 -0.068319
C69   C     C_1   0.193735 0.855412 0.651679 -0.063115
C70   C     C_1   0.101159 0.798315 0.894442 -0.018293
C71   C     C_1   0.649334 0.858377 0.608293 -0.018395
C72   C     C_R   0.790606 0.880884 0.721526 -0.082046
C73   C     C_R   0.804526 0.867511 0.770522 0.019986
C74   C     C_R   0.605216 0.701054 0.765337 -0.116120
C75   C     C_R   0.592380 0.715345 0.716619 -0.113629
C76   C     C_R   0.760573 0.315924 0.279617 -0.079399
C77   C     C_R   0.684342 0.806286 0.694824 0.022771
C78   C     C_1   0.704277 0.395800 0.113408 -0.018586
C79   C     C_R   0.709841 0.777936 0.792762 0.050433
C80   C     C_1   0.718135 0.766270 0.843849 -0.060387
C81   C     C_1   0.665833 0.831214 0.646888 -0.061856
C82   C     C_1   0.729274 0.759691 0.886565 -0.017775
C83   C     C_R   0.064303 0.772204 0.079475 0.549882
C84   C     C_R   0.717032 0.441301 0.067305 0.548230
C85   C     C_R   0.719908 0.782976 0.080754 0.558918
C86   C     C_R   0.056817 0.766525 0.941302 0.539309
C87   C     C_R   0.709725 0.432972 0.929227 0.536155
C88   C     C_R   0.769842 0.328599 0.229621 0.029364
C89   C     C_R   0.173459 0.746046 0.351842 -0.127703
C90   C     C_R   0.749571 0.753904 0.937020 0.566410
C91   C     C_3   0.943911 0.135808 0.310572 -0.415996
C92   C     C_3   0.866412 0.319131 0.203123 -0.401329
C93   C     C_3   0.961991 0.339514 0.803878 -0.410203
C94   C     C_3   0.365796 0.315599 0.807788 -0.410096
C95   C     C_3   0.335866 0.240934 0.702407 -0.408519
C96   C     C_3   0.506562 0.376396 0.628136 -0.375929
C97   C     C_3   0.918818 0.950379 0.798772 -0.396022
C98   C     C_3   0.143605 0.535030 0.294108 -0.412715
Cr1   Cr    Cr6+3 0.416430 0.829200 0.492370 1.019335
Cr2   Cr    Cr6+3 0.674630 0.087020 0.504170 1.016525
Cr3   Cr    Cr6+3 0.408920 0.083740 0.503490 1.012986
Cr4   Cr    Cr6+3 0.914010 0.832750 0.013970 1.013900
Cr5   Cr    Cr6+3 0.922310 0.578600 0.003000 1.013147
Cr6   Cr    Cr6+3 0.656280 0.574630 0.003870 1.017696
H1    H     H_    0.821657 0.297676 0.298771 0.104673
H2    H     H_    0.910017 0.305616 0.707843 0.105599
H3    H     H_    0.508498 0.342446 0.876610 0.141649
H4    H     H_    0.982912 0.666550 0.779884 0.119000
H5    H     H_    0.301967 0.995613 0.812122 0.116022
H6    H     H_    0.329601 0.012290 0.724570 0.122463
H7    H     H_    0.861218 0.951538 0.704514 0.108535
H8    H     H_    0.532420 0.631569 0.781949 0.113999
H9    H     H_    0.509538 0.657555 0.696372 0.110425
H10   H     H_    0.134337 0.650268 0.129119 0.132817
H11   H     H_    0.143038 0.565243 0.199594 0.098168
H12   H     H_    0.176739 0.093762 0.307439 0.101306
H13   H     H_    0.115182 0.967202 0.139292 0.120582
H14   H     H_    0.148397 0.078702 0.219028 0.100912
H15   H     H_    0.214957 0.019352 0.379644 0.124595
H16   H     H_    0.906797 0.182432 0.333118 0.126250
H17   H     H_    0.994992 0.110551 0.334246 0.127407
H18   H     H_    0.006530 0.197199 0.286012 0.113095
H19   H     H_    0.923404 0.303192 0.227842 0.111942
H20   H     H_    0.826588 0.245975 0.174025 0.135656
H21   H     H_    0.923146 0.401071 0.186687 0.137108
H22   H     H_    0.490511 0.695897 0.369263 0.119842
H23   H     H_    0.827531 0.982774 0.137865 0.128333
H24   H     H_    0.855336 0.382703 0.875596 0.132660
H25   H     H_    0.935462 0.271797 0.829462 0.132558
H26   H     H_    0.020815 0.327769 0.777651 0.121303
H27   H     H_    0.013828 0.426961 0.823980 0.134867
H28   H     H_    0.296623 0.315512 0.784225 0.128935
H29   H     H_    0.322580 0.240984 0.829990 0.125196
H30   H     H_    0.403046 0.398468 0.831614 0.129153
H31   H     H_    0.265845 0.176438 0.723737 0.130028
H32   H     H_    0.314229 0.309922 0.695571 0.122210
H33   H     H_    0.331744 0.190006 0.667877 0.143176
H34   H     H_    0.817783 0.019320 0.378283 0.140298
H35   H     H_    0.565148 0.429257 0.600340 0.132152
H36   H     H_    0.419724 0.312550 0.610019 0.151910
H37   H     H_    0.494640 0.437473 0.654412 0.124395
H38   H     H_    0.010044 0.683736 0.692418 0.114618
H39   H     H_    0.537021 0.377321 0.212434 0.109367
H40   H     H_    0.984514 0.013663 0.775648 0.119078
H41   H     H_    0.901505 0.999576 0.829076 0.139354
H42   H     H_    0.958035 0.901029 0.813822 0.148084
H43   H     H_    0.521092 0.352537 0.299414 0.110133
H44   H     H_    0.174949 0.676944 0.369413 0.136562
H45   H     H_    0.909606 0.090725 0.213887 0.096520
H46   H     H_    0.225279 0.562631 0.316891 0.123401
H47   H     H_    0.065144 0.495386 0.316550 0.129440
H48   H     H_    0.135721 0.466970 0.265693 0.114474
H49   H     H_    0.529232 0.635343 0.128953 0.124319
H50   H     H_    0.423466 0.559784 0.202514 0.100759
H51   H     H_    0.415446 0.578048 0.291012 0.099304
H52   H     H_    0.795981 0.268888 0.633179 0.128862
O1    O     O_R   0.296680 0.802170 0.437540 -0.523425
O2    O     O_R   0.637200 0.461990 0.052510 -0.510141
O3    O     O_R   0.664790 0.681920 0.057970 -0.495696
O4    O     O_R   0.525380 0.838530 0.443500 -0.500454
O5    O     O_R   0.815840 0.852920 0.961840 -0.506545
O6    O     O_R   0.012100 0.822630 0.963670 -0.513485
O7    O     O_R   0.037010 0.668460 0.953040 -0.507803
O8    O     O_R   0.813390 0.478970 0.949660 -0.504220
O9    O     O_R   0.632250 0.456930 0.945520 -0.528781
O10   O     O_R   0.660200 0.677230 0.958780 -0.491771
O11   O     O_3   0.830870 0.661990 0.006950 -0.263240
O12   O     O_R   0.662610 0.183990 0.557860 -0.504225
O13   O     O_R   0.702130 0.995190 0.446810 -0.522737
O14   O     O_R   0.661770 0.181390 0.458760 -0.495437
O15   O     O_R   0.499820 0.198480 0.455280 -0.512343
O16   O     O_R   0.311660 0.976250 0.449080 -0.500336
O17   O     O_R   0.297580 0.804960 0.544440 -0.508181
O18   O     O_R   0.526220 0.841130 0.542590 -0.494833
O19   O     O_R   0.703030 0.997990 0.553710 -0.511557
O20   O     O_R   0.500730 0.201280 0.562180 -0.517302
O21   O     O_R   0.312500 0.978850 0.548170 -0.497403
O22   O     O_3   0.499990 0.999990 0.500010 -0.238612
O23   O     O_R   0.820790 0.857990 0.068830 -0.518623
O24   O     O_R   0.016700 0.827330 0.062850 -0.499839
O25   O     O_R   0.041970 0.673520 0.060040 -0.518894
O26   O     O_R   0.817980 0.483660 0.048840 -0.492563

loop_
_geom_bond_atom_site_label_1
_geom_bond_atom_site_label_2
_ccdc_geom_bond_type
C89   H44   S    
C66   C68   S    
C63   C65   A    
Cr5   O11   S    
Cr4   O11   S    
C4    O15   A    
C15   C18   A    
Cr5   O26   S    
Cr4   O24   S    
C97   H42   S    
C35   C36   A    
Cr2   O22   S    
C92   H21   S    
C96   H35   S    
C7    C8    A    
C39   C41   A    
C98   H48   S    
C53   C54   A    
C73   C97   S    
C21   C31   A    
C12   C23   A    
Cr5   O8    S    
C72   C77   A    
C4    O14   A    
C83   O24   A    
C6    C98   S    
C7    H10   S    
C46   H24   S    
C35   C37   A    
C62   H5    S    
C3    C7    A    
C92   H20   S    
C74   H8    S    
C5    C6    A    
C8    C83   S    
C94   H29   S    
C56   C78   T    
C83   O25   A    
Cr3   O16   S    
C42   C46   A    
C20   H34   S    
C27   C85   S    
C61   H4    S    
C52   O21   A    
Cr3   O22   S    
C60   H38   S    
C96   H37   S    
C46   C47   A    
C61   C66   A    
C9    C19   A    
C88   C92   S    
C45   C56   S    
C49   C51   A    
C91   H18   S    
C29   C38   A    
C53   C94   S    
Cr3   O15   S    
C86   O6    A    
C29   C30   A    
C9    C10   A    
C76   C88   A    
C31   C36   A    
C85   O23   A    
C87   O8    A    
Cr6   O9    S    
C72   H7    S    
Cr5   O25   S    
C13   C14   A    
C90   O10   A    
Cr4   O23   S    
C2    C6    A    
C93   H25   S    
C2    C11   A    
C43   C93   S    
C98   H47   S    
C95   H33   S    
C40   C58   S    
C74   C75   A    
C62   C66   A    
C90   O5    A    
Cr2   O14   S    
C64   C67   T    
C37   H49   S    
C45   C88   A    
C24   C25   A    
Cr1   O22   S    
C80   C82   T    
C24   H45   S    
C92   H19   S    
C40   O20   A    
C84   O2    A    
C33   H50   S    
C72   C73   A    
Cr3   O20   S    
C14   H14   S    
C39   C58   A    
C23   H43   S    
C8    C18   A    
C60   C61   A    
C51   C53   A    
C47   C87   S    
C2    C89   A    
C43   C44   A    
C97   H40   S    
C62   C63   A    
C19   C89   A    
C52   C59   S    
C42   C55   A    
C47   C57   A    
C32   H51   S    
C20   C38   A    
C16   O16   A    
Cr1   O17   S    
C77   C81   S    
Cr4   O6    S    
C23   C34   A    
Cr2   O19   S    
C95   H31   S    
C73   C79   A    
C94   H30   S    
C75   C77   A    
C18   H13   S    
C1    C38   S    
C59   C69   T    
C75   H9    S    
C48   C49   A    
C57   H3    S    
C60   C65   A    
C74   C79   A    
Cr1   O1    S    
C26   C27   A    
C9    H15   S    
C41   C44   A    
C22   C24   A    
C28   C71   S    
C42   C43   A    
Cr6   O3    S    
C93   H26   S    
C70   C86   S    
C41   C50   A    
C98   H46   S    
Cr2   O13   S    
C15   C17   A    
C21   C25   A    
C54   C55   A    
C11   C17   A    
C48   C96   S    
C16   O1    A    
C14   C15   A    
C97   H41   S    
C1    O4    A    
Cr6   O2    S    
C12   C45   A    
C3    C5    A    
C10   C13   A    
C34   C67   S    
C96   H36   S    
C28   O19   A    
C48   C58   A    
C44   H2    S    
C22   C36   A    
C4    C64   S    
Cr5   O7    S    
C50   C55   A    
C82   C90   S    
C12   H39   S    
C39   H52   S    
Cr2   O12   S    
C32   C33   A    
C63   H6    S    
C84   O26   A    
Cr6   O11   S    
C30   C32   A    
C28   O18   A    
C30   C31   A    
Cr1   O18   S    
C27   C37   A    
C16   C19   S    
C65   C69   S    
C1    O13   A    
C95   H32   S    
C33   C35   A    
C3    C17   A    
C91   H17   S    
C26   H23   S    
C94   H28   S    
C40   O12   A    
C13   H12   S    
Cr3   O21   S    
C10   C11   A    
C87   O9    A    
Cr6   O10   S    
C79   C80   S    
C78   C84   S    
C20   C21   A    
C68   C70   T    
C49   C50   A    
C22   C26   A    
C51   C95   S    
Cr4   O5    S    
C91   H16   S    
C25   C91   S    
C29   H22   S    
C86   O7    A    
C85   O3    A    
C93   H27   S    
C52   O17   A    
C76   H1    S    
C5    H11   S    
Cr1   O4    S    
C34   C76   A    
C71   C81   T    
C54   C57   A    
