data_mof_unit_8933.cif
_audit_creation_date              2012-12-11T14:44:36-0500
_audit_creation_method            fapswitch 2.2
_symmetry_space_group_name_H-M    P1
_symmetry_Int_Tables_number       1
_space_group_crystal_system       triclinic
_cell_length_a                    20.01584
_cell_length_b                    7.23181
_cell_length_c                    19.484503
_cell_angle_alpha                 90.008529
_cell_angle_beta                  98.597881
_cell_angle_gamma                 89.988541
_cell_volume                      2788.70051589

loop_
_atom_site_label
_atom_site_type_symbol
_atom_type_description
_atom_site_fract_x
_atom_site_fract_y
_atom_site_fract_z
_atom_type_partial_charge
O1    O     O_R   0.673210 0.377390 0.686390 -0.531888
O2    O     O_R   0.326790 0.622610 0.313610 -0.531795
O3    O     O_R   0.826790 0.877390 0.813610 -0.531410
O4    O     O_R   0.173210 0.122610 0.186390 -0.531737
O5    O     O_R   0.810750 0.706450 0.681250 -0.540184
O6    O     O_R   0.189250 0.293550 0.318750 -0.540089
O7    O     O_R   0.689250 0.206450 0.818750 -0.540206
O8    O     O_R   0.310750 0.793550 0.181250 -0.540022
C1    C     C_R   0.830987 0.538473 0.665309 0.696455
C2    C     C_R   0.169041 0.461527 0.334720 0.696618
C3    C     C_R   0.668982 0.038512 0.834647 0.696981
C4    C     C_R   0.331013 0.961482 0.165324 0.696930
O9    O     O_R   0.672750 0.707060 0.678240 -0.538105
O10   O     O_R   0.327250 0.292940 0.321760 -0.538058
O11   O     O_R   0.827250 0.207060 0.821760 -0.538002
O12   O     O_R   0.172750 0.792940 0.178240 -0.537982
O13   O     O_R   0.687800 0.877990 0.810580 -0.539308
O14   O     O_R   0.312200 0.122010 0.189420 -0.539453
O15   O     O_R   0.812200 0.377990 0.689420 -0.539562
O16   O     O_R   0.187800 0.622010 0.310580 -0.539491
C5    C     C_R   0.648252 0.539139 0.661686 0.682144
C6    C     C_R   0.351698 0.460867 0.338381 0.682406
C7    C     C_R   0.851715 0.039124 0.838356 0.682940
C8    C     C_R   0.148255 0.960871 0.161677 0.682526
O17   O     O_3   0.755100 0.544060 0.793420 -0.373542
O18   O     O_3   0.244900 0.455940 0.206580 -0.374167
O19   O     O_3   0.744900 0.044060 0.706580 -0.374508
O20   O     O_3   0.255100 0.955940 0.293420 -0.374277
V1    V     V_3+5 0.749050 0.818670 0.741950 1.385539
V2    V     V_3+5 0.250950 0.181330 0.258050 1.383923
V3    V     V_3+5 0.750950 0.318670 0.758050 1.384640
V4    V     V_3+5 0.249050 0.681330 0.241950 1.384028
C9    C     C_R   0.085390 0.965921 0.110371 -0.082578
C10   C     C_R   0.914548 0.034091 0.889691 -0.083123
C11   C     C_R   0.414528 0.465830 0.389729 -0.082682
C12   C     C_R   0.585386 0.534119 0.610390 -0.082651
C13   C     C_R   0.033073 0.113240 0.926559 -0.172137
C14   C     C_R   0.966850 0.886776 0.073522 -0.171416
C15   C     C_R   0.466921 0.613987 0.573454 -0.172483
C16   C     C_R   0.532961 0.385725 0.426712 -0.172727
C17   C     C_R   0.975799 0.111657 0.874212 0.070624
C18   C     C_R   0.024153 0.888240 0.125845 0.070079
C19   C     C_R   0.524185 0.612213 0.625818 0.070507
C20   C     C_R   0.475686 0.387362 0.374368 0.070796
C21   C     C_R   0.912418 0.957262 0.955615 -0.243513
C22   C     C_R   0.087483 0.042889 0.044469 -0.244916
C23   C     C_R   0.587437 0.456696 0.544544 -0.245172
C24   C     C_R   0.412477 0.543351 0.455563 -0.245251
C25   C     C_R   0.969652 0.960488 0.007319 0.120222
C26   C     C_R   0.030249 0.039635 0.992770 0.120149
C27   C     C_R   0.530211 0.460027 0.492837 0.120222
C28   C     C_R   0.469689 0.539898 0.507296 0.120269
H1    H     H_    0.134414 0.101921 0.033071 0.108576
H2    H     H_    0.865476 0.898291 0.967013 0.111894
H3    H     H_    0.365598 0.602941 0.466886 0.108683
H4    H     H_    0.634325 0.397212 0.533199 0.108646
H5    H     H_    0.080330 0.172210 0.916674 0.108021
H6    H     H_    0.919600 0.827743 0.083407 0.109037
H7    H     H_    0.419719 0.673481 0.583285 0.108090
H8    H     H_    0.580147 0.326088 0.416900 0.108078
C29   C     C_R   0.574292 0.173175 0.889082 -0.225034
C30   C     C_R   0.425742 0.826768 0.110879 -0.230458
C31   C     C_R   0.925560 0.673300 0.610776 -0.227778
C32   C     C_R   0.074587 0.326570 0.389385 -0.227737
C33   C     C_R   0.619999 0.028516 0.884617 -0.075463
C34   C     C_R   0.379972 0.971395 0.115285 -0.076456
C35   C     C_R   0.879929 0.528485 0.615270 -0.076235
C36   C     C_R   0.120170 0.471466 0.384832 -0.076229
C37   C     C_R   0.617842 0.871831 0.926859 -0.229226
C38   C     C_R   0.381984 0.127801 0.072843 -0.226201
C39   C     C_R   0.882076 0.371894 0.572928 -0.226265
C40   C     C_R   0.118069 0.627998 0.427218 -0.226297
C41   C     C_R   0.570990 0.858141 0.974158 0.072618
C42   C     C_R   0.428861 0.141442 0.025566 0.061092
C43   C     C_R   0.929003 0.358239 0.525698 0.063479
C44   C     C_R   0.071198 0.641557 0.474513 0.063465
C45   C     C_R   0.524316 0.004761 0.977140 0.026146
C46   C     C_R   0.475687 0.995067 0.022771 0.021526
C47   C     C_R   0.975731 0.504772 0.522863 0.021887
C48   C     C_R   0.024475 0.495012 0.477357 0.021921
C49   C     C_R   0.526176 0.161460 0.934338 0.065426
C50   C     C_R   0.473884 0.838439 0.065631 0.075797
C51   C     C_R   0.973711 0.661643 0.565558 0.067343
C52   C     C_R   0.026488 0.338145 0.434657 0.067422
C53   C     C_R   0.569083 0.702232 0.018314 0.066665
C54   C     C_R   0.430647 0.296994 0.981209 0.120871
C55   C     C_R   0.930955 0.202508 0.481449 0.119649
C56   C     C_R   0.069285 0.797213 0.518808 0.119623
C57   C     C_R   0.520400 0.695037 0.063197 -0.224125
C58   C     C_R   0.479649 0.304737 0.936719 -0.227112
C59   C     C_R   0.980079 0.194646 0.437095 -0.227240
C60   C     C_R   0.020157 0.805074 0.563160 -0.227199
H9    H     H_    0.575123 0.293569 0.856028 0.121135
H10   H     H_    0.424931 0.706432 0.143964 0.122408
H11   H     H_    0.924661 0.793763 0.643797 0.122319
H12   H     H_    0.075471 0.206115 0.356356 0.122373
H13   H     H_    0.653725 0.762359 0.922695 0.136883
H14   H     H_    0.346008 0.237140 0.076852 0.130240
H15   H     H_    0.846198 0.262389 0.577004 0.130077
H16   H     H_    0.153932 0.737531 0.423119 0.130075
H17   H     H_    0.518761 0.576116 0.096758 0.122645
H18   H     H_    0.481206 0.423499 0.903071 0.127727
H19   H     H_    0.981759 0.075745 0.403523 0.126968
H20   H     H_    0.018488 0.923942 0.596745 0.126932
C61   C     C_3   0.021826 0.809722 0.198231 -0.336414
C62   C     C_3   0.951334 0.759587 0.214932 -0.338945
C63   C     C_3   0.955051 0.693475 0.289859 -0.755060
H21   H     H_    0.985624 0.565167 0.297832 0.240061
H22   H     H_    0.978051 0.801200 0.326595 0.223612
H23   H     H_    0.903403 0.663267 0.301149 0.213652
H24   H     H_    0.917805 0.882802 0.207362 0.198096
H25   H     H_    0.929138 0.646413 0.180195 0.195093
H26   H     H_    0.054130 0.684094 0.205103 0.184741
H27   H     H_    0.043979 0.914213 0.237000 0.158433
C64   C     C_3   0.978182 0.189914 0.801794 -0.335950
C65   C     C_3   0.048711 0.239735 0.785100 -0.339828
C66   C     C_3   0.045068 0.305598 0.710152 -0.755543
H28   H     H_    0.022046 0.197822 0.673450 0.223743
H29   H     H_    0.014542 0.433981 0.702102 0.240319
H30   H     H_    0.096745 0.335589 0.698891 0.213215
H31   H     H_    0.070935 0.352964 0.819790 0.195765
H32   H     H_    0.082195 0.116438 0.792744 0.198075
H33   H     H_    0.956005 0.085362 0.763062 0.158315
H34   H     H_    0.945925 0.315626 0.794853 0.184725
C67   C     C_3   0.477953 0.308119 0.302079 -0.336655
C68   C     C_3   0.548436 0.258061 0.285339 -0.340663
C69   C     C_3   0.544667 0.191778 0.210426 -0.749196
H35   H     H_    0.514252 0.063207 0.202587 0.238922
H36   H     H_    0.521453 0.299209 0.173666 0.222825
H37   H     H_    0.596321 0.161971 0.199047 0.214832
H38   H     H_    0.581918 0.381337 0.292860 0.198250
H39   H     H_    0.570700 0.144998 0.320089 0.195301
H40   H     H_    0.445732 0.182339 0.295422 0.184778
H41   H     H_    0.455686 0.412174 0.263190 0.158401
C70   C     C_3   0.521835 0.690822 0.698196 -0.335792
C71   C     C_3   0.451281 0.740143 0.714970 -0.340081
C72   C     C_3   0.454918 0.805829 0.789944 -0.755320
H42   H     H_    0.478067 0.698109 0.826601 0.224038
H43   H     H_    0.485322 0.934388 0.798002 0.240216
H44   H     H_    0.403227 0.835463 0.801257 0.213181
H45   H     H_    0.428923 0.853325 0.680335 0.195668
H46   H     H_    0.417909 0.616654 0.707310 0.198175
H47   H     H_    0.544181 0.586605 0.736980 0.158383
H48   H     H_    0.553958 0.816775 0.704999 0.184371
C73   C     C_3   0.617752 0.541139 0.019429 -0.347115
C74   C     C_3   0.687107 0.588919 0.060347 -0.309687
C75   C     C_3   0.736608 0.428947 0.058739 -0.768612
H49   H     H_    0.717514 0.303206 0.082222 0.228645
H50   H     H_    0.743730 0.398199 0.004410 0.231778
H51   H     H_    0.786285 0.466805 0.088830 0.213065
H52   H     H_    0.708357 0.713776 0.038412 0.191177
H53   H     H_    0.681604 0.618867 0.115208 0.197613
H54   H     H_    0.597704 0.418483 0.044171 0.182722
H55   H     H_    0.622326 0.498033 0.965692 0.174470
C76   C     C_3   0.381081 0.456624 0.978832 -0.338718
C77   C     C_3   0.311390 0.407436 0.938566 -0.313400
C78   C     C_3   0.313271 0.382497 0.860970 -0.726380
H56   H     H_    0.333510 0.508747 0.838942 0.222709
H57   H     H_    0.345229 0.262058 0.851849 0.234750
H58   H     H_    0.261302 0.357320 0.833659 0.204470
H59   H     H_    0.291464 0.279310 0.959515 0.188459
H60   H     H_    0.275716 0.521436 0.945380 0.181843
H61   H     H_    0.375975 0.501030 0.032279 0.142717
H62   H     H_    0.400627 0.580367 0.954307 0.180282
C79   C     C_3   0.881345 0.043004 0.478938 -0.339666
C80   C     C_3   0.811706 0.092463 0.438607 -0.312532
C81   C     C_3   0.813751 0.118284 0.361081 -0.726716
H63   H     H_    0.845735 0.238875 0.352239 0.234935
H64   H     H_    0.834054 0.992292 0.338895 0.222685
H65   H     H_    0.761817 0.143737 0.333703 0.204160
H66   H     H_    0.776032 0.978297 0.445155 0.181568
H67   H     H_    0.791697 0.220308 0.459710 0.188297
H68   H     H_    0.900884 0.919272 0.454373 0.179723
H69   H     H_    0.876151 0.998529 0.532348 0.142762
C82   C     C_3   0.118923 0.956663 0.521353 -0.339757
C83   C     C_3   0.188573 0.907045 0.561628 -0.312647
C84   C     C_3   0.186585 0.881154 0.639166 -0.725789
H70   H     H_    0.166297 0.007123 0.661392 0.222700
H71   H     H_    0.154612 0.760532 0.648010 0.234728
H72   H     H_    0.238537 0.855684 0.666509 0.204259
H73   H     H_    0.208531 0.779181 0.540483 0.188304
H74   H     H_    0.224268 0.021157 0.555070 0.181699
H75   H     H_    0.124094 0.001277 0.467953 0.142802
H76   H     H_    0.099422 0.080353 0.545977 0.179708

loop_
_geom_bond_atom_site_label_1
_geom_bond_atom_site_label_2
_ccdc_geom_bond_type
C67   H41   S    
O17   V3    S    
C24   H3    S    
C39   C43   A    
O1    C5    A    
C68   C69   S    
C16   H8    S    
C55   C59   A    
O19   V1    S    
O13   V1    S    
C61   C62   S    
O3    C7    A    
C75   H49   S    
C40   C44   A    
O15   V3    S    
C69   H36   S    
C73   C74   S    
C70   C71   S    
C81   H64   S    
C5    C12   S    
C62   H25   S    
C45   C46   A    
C80   H67   S    
C6    C11   S    
C72   H43   S    
C78   H56   S    
C50   C57   A    
C65   H32   S    
C9    C18   A    
C32   C36   A    
O9    V1    S    
C77   C78   S    
C75   H50   S    
C53   C73   S    
C14   C18   A    
C66   H29   S    
O16   V4    S    
O4    C8    A    
C29   H9    S    
C62   C63   S    
C79   H68   S    
C64   C65   S    
C31   H11   S    
O1    V3    S    
C65   C66   S    
C12   C23   A    
O2    V4    S    
O3    V1    S    
C32   C52   A    
C71   H46   S    
C14   H6    S    
C1    O15   A    
C58   H18   S    
C56   C60   A    
C2    O16   A    
C84   H71   S    
C38   C42   A    
C63   H21   S    
C37   C41   A    
O14   V2    S    
C52   C59   A    
C45   C49   A    
C44   C56   A    
C16   C20   A    
C48   C52   A    
C73   H54   S    
C7    C10   S    
C70   H47   S    
C15   C28   A    
C30   C50   A    
C77   H60   S    
C80   H66   S    
O12   C8    A    
C9    C22   A    
C63   H22   S    
C10   C17   A    
C67   C68   S    
O10   V2    S    
C11   C24   A    
C81   H65   S    
O5    V1    S    
C62   H24   S    
C83   H73   S    
C72   H44   S    
C31   C35   A    
C20   C67   S    
C64   H33   S    
C65   H31   S    
C17   C64   S    
C27   C28   A    
O8    V4    S    
C61   H27   S    
C75   H51   S    
O7    V3    S    
C32   H12   S    
C54   C58   A    
C66   H30   S    
C81   H63   S    
C14   C25   A    
C53   C57   A    
O18   V4    S    
C15   C19   A    
C76   H61   S    
C79   H69   S    
C4    C34   S    
C74   H52   S    
C31   C51   A    
C36   C40   A    
O7    C3    A    
C54   C76   S    
C1    C35   S    
O5    C1    A    
C71   H45   S    
C51   C60   A    
C46   C50   A    
C60   H20   S    
C82   C83   S    
C68   H39   S    
O8    C4    A    
C84   H72   S    
C15   H7    S    
C21   C25   A    
O9    C5    A    
C10   C21   A    
C42   C54   A    
C19   C70   S    
C11   C20   A    
C56   C82   S    
C41   C53   A    
C74   H53   S    
C73   H55   S    
C43   C55   A    
C83   C84   S    
O6    V2    S    
C55   C79   S    
C77   H59   S    
C84   H70   S    
C78   H58   S    
C30   H10   S    
C80   C81   S    
C63   H23   S    
C49   C58   A    
C69   H35   S    
C82   H75   S    
C74   C75   S    
C40   H16   S    
C61   H26   S    
C70   H48   S    
C64   H34   S    
C57   H17   S    
C3    C33   S    
C44   C48   A    
C59   H19   S    
C71   C72   S    
C3    O13   A    
C21   H2    S    
C23   C27   A    
O11   V3    S    
C2    C36   S    
C76   H62   S    
O12   V4    S    
C16   C27   A    
C72   H42   S    
C22   C26   A    
C67   H40   S    
C8    C9    S    
O10   C6    A    
O20   V2    S    
C69   H37   S    
C29   C49   A    
O2    C6    A    
C47   C51   A    
C13   C26   A    
C34   C38   A    
C39   H15   S    
C68   H38   S    
C33   C37   A    
C22   H1    S    
O11   C7    A    
C35   C39   A    
C13   C17   A    
C18   C61   S    
C13   H5    S    
C30   C34   A    
O6    C2    A    
C83   H74   S    
C47   C48   A    
C29   C33   A    
C79   C80   S    
C24   C28   A    
C78   H57   S    
C25   C26   A    
C42   C46   A    
C4    O14   A    
C76   C77   S    
C41   C45   A    
C23   H4    S    
C12   C19   A    
C66   H28   S    
C43   C47   A    
O4    V2    S    
C38   H14   S    
C82   H76   S    
C37   H13   S    
