data_mof_unit_16466.cif
_audit_creation_date              2012-12-11T16:27:24-0500
_audit_creation_method            fapswitch 2.2
_symmetry_space_group_name_H-M    P1
_symmetry_Int_Tables_number       1
_space_group_crystal_system       monoclinic
_cell_length_a                    21.904407
_cell_length_b                    6.932228
_cell_length_c                    14.703717
_cell_angle_alpha                 90.0
_cell_angle_beta                  104.844305
_cell_angle_gamma                 90.0
_cell_volume                      2158.19038725

loop_
_atom_site_label
_atom_site_type_symbol
_atom_type_description
_atom_site_fract_x
_atom_site_fract_y
_atom_site_fract_z
_atom_type_partial_charge
O1    O     O_R   0.835850 0.638310 0.002120 -0.535688
O2    O     O_R   0.164150 0.361690 0.997880 -0.539964
O3    O     O_R   0.664150 0.138310 0.997880 -0.535688
O4    O     O_R   0.335850 0.861690 0.002120 -0.539964
O5    O     O_R   0.717530 0.306070 0.861970 -0.547316
O6    O     O_R   0.282470 0.693930 0.138030 -0.546130
O7    O     O_R   0.782470 0.806070 0.138030 -0.547316
O8    O     O_R   0.217530 0.193930 0.861970 -0.546130
C1    C     C_R   0.702442 0.476104 0.824825 0.743761
C2    C     C_R   0.298312 0.523521 0.174695 0.745453
C3    C     C_R   0.797558 0.976105 0.175175 0.743760
C4    C     C_R   0.201687 0.023521 0.825305 0.745453
O9    O     O_R   0.838690 0.308440 0.993250 -0.541549
O10   O     O_R   0.161310 0.691560 0.006750 -0.538540
O11   O     O_R   0.661310 0.808440 0.006750 -0.541549
O12   O     O_R   0.338690 0.191560 0.993250 -0.538540
O13   O     O_R   0.786170 0.140510 0.130090 -0.545781
O14   O     O_R   0.213830 0.859490 0.869910 -0.550428
O15   O     O_R   0.713830 0.640510 0.869910 -0.545782
O16   O     O_R   0.286170 0.359490 0.130090 -0.550428
C5    C     C_R   0.863583 0.478080 0.988805 0.688183
C6    C     C_R   0.136299 0.521892 0.010845 0.688299
C7    C     C_R   0.636417 0.978080 0.011195 0.688183
C8    C     C_R   0.363701 0.021892 0.989155 0.688299
O17   O     O_3   0.732630 0.472520 0.044740 -0.379658
O18   O     O_3   0.267370 0.527480 0.955260 -0.377480
O19   O     O_3   0.767370 0.972520 0.955260 -0.379658
O20   O     O_3   0.232630 0.027480 0.044740 -0.377480
V1    V     V_3+5 0.753220 0.196740 0.991700 1.387142
V2    V     V_3+5 0.246780 0.803260 0.008300 1.387707
V3    V     V_3+5 0.746780 0.696740 0.008300 1.387142
V4    V     V_3+5 0.253220 0.303260 0.991700 1.387707
C9    C     C_R   0.544322 0.003710 0.835475 -0.199318
C10   C     C_R   0.455796 0.987328 0.164927 -0.200092
C11   C     C_R   0.955678 0.503710 0.164525 -0.199318
C12   C     C_R   0.044204 0.487328 0.835072 -0.200092
C13   C     C_R   0.503009 0.028492 0.747805 -0.123360
C14   C     C_R   0.497666 0.979794 0.253098 -0.126522
C15   C     C_R   0.996991 0.528492 0.252194 -0.123359
C16   C     C_R   0.002334 0.479793 0.746902 -0.126522
C17   C     C_R   0.438749 0.054908 0.739102 0.055004
C18   C     C_R   0.562549 0.978683 0.262362 0.063083
C19   C     C_R   0.061251 0.554908 0.260898 0.055004
C20   C     C_R   0.937451 0.478682 0.737638 0.063083
C21   C     C_R   0.415670 0.049148 0.820339 -0.256043
C22   C     C_R   0.585293 0.976052 0.180884 -0.258375
C23   C     C_R   0.084330 0.549148 0.179661 -0.256043
C24   C     C_R   0.914707 0.476051 0.819116 -0.258375
C25   C     C_R   0.456656 0.021648 0.910860 0.053660
C26   C     C_R   0.543719 0.984175 0.089814 0.053349
C27   C     C_R   0.043344 0.521648 0.089140 0.053660
C28   C     C_R   0.956281 0.484175 0.910186 0.053349
C29   C     C_R   0.522852 0.003706 0.918358 0.090419
C30   C     C_R   0.477304 0.993315 0.082090 0.089888
C31   C     C_R   0.977148 0.503706 0.081642 0.090419
C32   C     C_R   0.022696 0.493315 0.917910 0.089888
C33   C     C_R   0.433301 0.012347 0.993150 -0.167134
C34   C     C_R   0.566865 0.987052 0.007304 -0.165388
C35   C     C_R   0.066699 0.512347 0.006850 -0.167134
C36   C     C_R   0.933135 0.487052 0.992696 -0.165388
H1    H     H_    0.593615 0.985763 0.836897 0.126190
H2    H     H_    0.406177 0.992697 0.163263 0.130026
H3    H     H_    0.906385 0.485764 0.163103 0.126190
H4    H     H_    0.093823 0.492697 0.836737 0.130026
H5    H     H_    0.521862 0.030433 0.686475 0.171746
H6    H     H_    0.478967 0.980450 0.314578 0.172782
H7    H     H_    0.978138 0.530433 0.313525 0.171746
H8    H     H_    0.021033 0.480450 0.685422 0.172782
H9    H     H_    0.365855 0.066479 0.813073 0.150034
H10   H     H_    0.635401 0.970159 0.188475 0.150456
H11   H     H_    0.134145 0.566479 0.186927 0.150034
H12   H     H_    0.864599 0.470158 0.811525 0.150456
C37   C     C_R   0.172268 0.015227 0.723428 -0.112412
C38   C     C_R   0.825728 0.979605 0.277809 -0.110753
C39   C     C_R   0.327732 0.515227 0.276572 -0.112412
C40   C     C_R   0.674272 0.479605 0.722191 -0.110754
C41   C     C_R   0.182979 0.998007 0.564062 -0.241942
C42   C     C_R   0.816889 0.917261 0.435858 -0.254274
C43   C     C_R   0.317021 0.498007 0.435938 -0.241941
C44   C     C_R   0.683111 0.417262 0.564142 -0.254274
C45   C     C_R   0.209619 0.983076 0.660831 0.399315
C46   C     C_R   0.790909 0.910191 0.338615 0.397425
C47   C     C_R   0.290381 0.483076 0.339169 0.399315
C48   C     C_R   0.709091 0.410191 0.661385 0.397425
C49   C     C_R   0.106643 0.035714 0.688755 -0.306779
C50   C     C_R   0.889379 0.030946 0.314230 -0.302891
C51   C     C_R   0.393357 0.535715 0.311245 -0.306779
C52   C     C_R   0.610621 0.530946 0.685770 -0.302891
C53   C     C_R   0.077832 0.028109 0.590572 0.095526
C54   C     C_R   0.918974 0.012222 0.411937 0.102008
C55   C     C_R   0.422167 0.528109 0.409428 0.095526
C56   C     C_R   0.581025 0.512223 0.588063 0.102008
C57   C     C_R   0.117766 0.020994 0.528852 0.122444
C58   C     C_R   0.880509 0.963379 0.472455 0.120484
C59   C     C_R   0.382234 0.520994 0.471148 0.122444
C60   C     C_R   0.619491 0.463380 0.527545 0.120484
C61   C     C_R   0.011083 0.020716 0.551458 0.094204
C62   C     C_R   0.985533 0.030751 0.451339 0.092081
C63   C     C_R   0.488917 0.520716 0.448542 0.094204
C64   C     C_R   0.514467 0.530752 0.548661 0.092081
C65   C     C_R   0.027773 0.040615 0.393681 -0.147539
C66   C     C_R   0.969687 0.984750 0.608550 -0.140954
C67   C     C_R   0.472227 0.540616 0.606319 -0.147539
C68   C     C_R   0.530313 0.484750 0.391450 -0.140954
C69   C     C_R   0.092355 0.029603 0.432131 -0.127780
C70   C     C_R   0.906166 0.951392 0.569049 -0.134808
C71   C     C_R   0.407645 0.529603 0.567869 -0.127780
C72   C     C_R   0.593834 0.451393 0.430951 -0.134808
H13   H     H_    0.122800 0.018868 0.385626 0.097727
H14   H     H_    0.877096 0.907240 0.614147 0.101410
H15   H     H_    0.377200 0.518868 0.614374 0.097727
H16   H     H_    0.622904 0.407241 0.385853 0.101410
H17   H     H_    0.914779 0.080068 0.264679 0.126665
H18   H     H_    0.079474 0.058862 0.739545 0.127309
H19   H     H_    0.585221 0.580068 0.735321 0.126665
H20   H     H_    0.420526 0.558862 0.260455 0.127309
H21   H     H_    0.213351 0.986862 0.516509 0.113718
H22   H     H_    0.787702 0.879513 0.482692 0.113810
H23   H     H_    0.286649 0.486862 0.483491 0.113718
H24   H     H_    0.712298 0.379513 0.517308 0.113810
H25   H     H_    0.012356 0.041252 0.317945 0.116738
H26   H     H_    0.985802 0.966221 0.683712 0.117601
H27   H     H_    0.487644 0.541253 0.682055 0.116738
H28   H     H_    0.514198 0.466222 0.316288 0.117601
C73   C     C_2   0.606070 0.988284 0.357574 0.315900
H29   H     H_    0.654833 0.028364 0.366884 0.101716
O21   O     O_2   0.587537 0.955138 0.427611 -0.529386
C74   C     C_2   0.396325 0.090010 0.644659 0.319972
H30   H     H_    0.348944 0.142130 0.636961 0.102357
O22   O     O_2   0.413997 0.061089 0.573489 -0.528001
C75   C     C_2   0.893930 0.488283 0.642426 0.315900
H31   H     H_    0.845167 0.528363 0.633116 0.101715
O23   O     O_2   0.912462 0.455137 0.572389 -0.529386
C76   C     C_2   0.103674 0.590010 0.355341 0.319972
H32   H     H_    0.151056 0.642130 0.363039 0.102357
O24   O     O_2   0.086003 0.561088 0.426511 -0.528001
O25   O     O_3   0.728852 0.856905 0.302091 -0.608025
C77   C     C_3   0.718087 0.663947 0.324973 -0.027740
H33   H     H_    0.670787 0.659844 0.338546 0.160833
H34   H     H_    0.751999 0.605895 0.389069 0.129301
C78   C     C_3   0.717744 0.534973 0.241061 -0.222578
H35   H     H_    0.688866 0.604661 0.176228 0.225321
H36   H     H_    0.767035 0.515740 0.235596 0.204354
C79   C     C_3   0.689738 0.338201 0.250133 -0.853470
H37   H     H_    0.714273 0.270587 0.318060 0.230239
H38   H     H_    0.695368 0.245542 0.191712 0.252587
H39   H     H_    0.638410 0.351643 0.244005 0.218549
O26   O     O_3   0.273530 0.954496 0.695222 -0.609229
C80   C     C_3   0.289689 0.763340 0.677563 -0.028613
H40   H     H_    0.339857 0.765520 0.676376 0.162147
H41   H     H_    0.262548 0.705218 0.608272 0.130658
C81   C     C_3   0.283451 0.630994 0.757529 -0.251576
H42   H     H_    0.308945 0.696903 0.825448 0.221717
H43   H     H_    0.232708 0.612670 0.755217 0.203375
C82   C     C_3   0.311398 0.433405 0.750240 -0.833888
H44   H     H_    0.286915 0.365552 0.682377 0.230824
H45   H     H_    0.304896 0.342142 0.808579 0.263057
H46   H     H_    0.362906 0.444732 0.757182 0.212856
O27   O     O_3   0.771147 0.356905 0.697909 -0.608025
C83   C     C_3   0.781913 0.163947 0.675027 -0.027739
H47   H     H_    0.829212 0.159843 0.661453 0.160832
H48   H     H_    0.748000 0.105894 0.610932 0.129301
C84   C     C_3   0.782256 0.034972 0.758939 -0.222577
H49   H     H_    0.811135 0.104661 0.823772 0.225320
H50   H     H_    0.732965 0.015739 0.764404 0.204354
C85   C     C_3   0.810262 0.838201 0.749867 -0.853469
H51   H     H_    0.785727 0.770586 0.681940 0.230239
H52   H     H_    0.804633 0.745542 0.808289 0.252586
H53   H     H_    0.861590 0.851644 0.755996 0.218549
O28   O     O_3   0.226470 0.454496 0.304778 -0.609229
C86   C     C_3   0.210311 0.263340 0.322437 -0.028614
H54   H     H_    0.160143 0.265520 0.323624 0.162147
H55   H     H_    0.237452 0.205217 0.391728 0.130658
C87   C     C_3   0.216549 0.130994 0.242471 -0.251575
H56   H     H_    0.191054 0.196903 0.174552 0.221716
H57   H     H_    0.267292 0.112670 0.244782 0.203375
C88   C     C_3   0.188601 0.933405 0.249760 -0.833889
H58   H     H_    0.213085 0.865552 0.317623 0.230824
H59   H     H_    0.195104 0.842142 0.191421 0.263057
H60   H     H_    0.137094 0.944732 0.242818 0.212856

loop_
_geom_bond_atom_site_label_1
_geom_bond_atom_site_label_2
_ccdc_geom_bond_type
O17   V3    S    
C7    C34   S    
C86   H54   S    
C44   H24   S    
O1    C5    A    
C51   C55   A    
C82   H45   S    
C9    C29   A    
O13   V1    S    
O3    C7    A    
C84   H49   S    
C10   H2    S    
C44   C48   A    
O4    V2    S    
C67   H27   S    
C74   H30   S    
C40   C48   A    
C65   H25   S    
C61   C62   A    
C80   H40   S    
C20   C75   S    
O7    C3    A    
C86   H55   S    
C26   C30   A    
C50   H17   S    
O9    V1    S    
C49   H18   S    
C84   H50   S    
O10   V2    S    
C14   C18   A    
C46   O25   S    
C41   H21   S    
C78   H36   S    
C70   H14   S    
O4    C8    A    
O19   V1    S    
O28   C86   S    
C47   O28   S    
O1    V3    S    
C25   C33   A    
O17   V1    S    
O2    V4    S    
C18   C22   A    
O3    V1    S    
C87   H56   S    
C12   C16   A    
C28   C36   A    
C18   C73   S    
C57   C69   A    
C1    O15   A    
C58   C70   A    
C52   C56   A    
C2    O16   A    
C8    C33   S    
C88   H59   S    
C13   H5    S    
O2    C6    A    
O14   V2    S    
C1    C40   S    
C21   C25   A    
C44   C60   A    
C40   C52   A    
C16   C20   A    
C61   C66   A    
C45   O26   S    
O11   C7    A    
C63   C68   A    
C60   C72   A    
O15   V3    S    
O12   C8    A    
C4    C37   S    
C82   H46   S    
C85   H52   S    
C17   C74   S    
C15   H7    S    
C24   H12   S    
C79   H39   S    
C37   C45   A    
C48   O27   S    
C54   C58   A    
O5    V1    S    
C56   C60   A    
C65   C69   A    
C86   C87   S    
O7    V3    S    
C11   C31   A    
O8    V4    S    
C83   C84   S    
C14   H6    S    
O20   V4    S    
C84   C85   S    
O26   C80   S    
C5    C36   S    
C79   H38   S    
C50   C54   A    
C78   C79   S    
C6    C35   S    
C49   C53   A    
O18   V4    S    
C76   O24   D    
C21   H9    S    
C3    C38   S    
C64   C67   A    
C9    C13   A    
C72   H16   S    
C53   C61   A    
C26   C34   A    
C43   C59   A    
C19   C76   S    
C11   C15   A    
O5    C1    A    
C12   C32   A    
C2    C39   S    
C42   C46   A    
O27   C83   S    
C81   C82   S    
C41   C45   A    
O8    C4    A    
C88   H60   S    
C37   C49   A    
O9    C5    A    
C38   C50   A    
O11   V3    S    
C87   C88   S    
C23   H11   S    
C51   H20   S    
C59   C71   A    
C68   H28   S    
C39   C51   A    
O6    V2    S    
C81   H43   S    
O18   V2    S    
O19   V3    S    
C73   H29   S    
C43   H23   S    
C80   C81   S    
C27   C35   A    
C75   H31   S    
C68   C72   A    
C56   C64   A    
C67   C71   A    
O16   V4    S    
C69   H13   S    
C3    O13   A    
C53   C57   A    
C42   H22   S    
C10   C14   A    
C71   H15   S    
C79   H37   S    
C75   O23   D    
C77   C78   S    
C74   O22   D    
O6    C2    A    
C23   C27   A    
C29   C34   A    
C32   C35   A    
C10   C30   A    
C76   H32   S    
C77   H34   S    
O12   V4    S    
C62   C65   A    
O25   C77   S    
C22   C26   A    
C63   C64   A    
C83   H47   S    
O10   C6    A    
C52   H19   S    
C80   H41   S    
O20   V2    S    
C66   H26   S    
C12   H4    S    
C78   H35   S    
C43   C47   A    
C39   C47   A    
C85   H51   S    
C42   C58   A    
C25   C29   A    
C41   C57   A    
C66   C70   A    
C27   C31   A    
C13   C17   A    
C87   H57   S    
C22   H10   S    
C77   H33   S    
C55   C59   A    
C28   C32   A    
C24   C28   A    
C81   H42   S    
C15   C19   A    
C85   H53   S    
C9    H1    S    
C88   H58   S    
C16   H8    S    
C4    O14   A    
C82   H44   S    
C73   O21   D    
C17   C21   A    
C11   H3    S    
C55   C63   A    
C31   C36   A    
C19   C23   A    
C54   C62   A    
C38   C46   A    
C20   C24   A    
C83   H48   S    
C30   C33   A    
