data_mof_unit_26753.cif
_audit_creation_date              2012-12-10T16:47:56-0500
_audit_creation_method            fapswitch 2.2
_symmetry_space_group_name_H-M    P1
_symmetry_Int_Tables_number       1
_space_group_crystal_system       triclinic
_cell_length_a                    7.804978
_cell_length_b                    8.572815
_cell_length_c                    10.686355
_cell_angle_alpha                 91.321925
_cell_angle_beta                  85.734594
_cell_angle_gamma                 93.472032
_cell_volume                      711.617668547

loop_
_atom_site_label
_atom_site_type_symbol
_atom_type_description
_atom_site_fract_x
_atom_site_fract_y
_atom_site_fract_z
_atom_type_partial_charge
C1    C     C_R   0.545506 0.794534 0.496892 0.971451
C2    C     C_2   0.569493 0.957977 0.495325 -0.368082
C3    C     C_1   0.319588 0.388327 0.092219 0.193156
C4    C     C_1   0.974078 0.647528 0.617255 0.417173
C5    C     C_2   0.430527 0.042016 0.505249 -0.372156
C6    C     C_R   0.502818 0.503818 0.737103 0.930515
C7    C     C_R   0.454496 0.205458 0.503291 0.961301
C8    C     C_R   0.496148 0.488216 0.262840 0.880629
C9    C     C_2   0.631820 0.450147 0.057820 -0.202734
C10   C     C_2   0.485722 0.447272 0.132854 -0.158149
C11   C     C_2   0.629860 0.441207 0.923290 -0.158266
C12   C     C_2   0.510675 0.514734 0.868775 -0.296034
H1    H     H_    0.757324 0.473142 0.094363 0.188625
H2    H     H_    0.730689 0.381310 0.869475 0.181706
H3    H     H_    0.415853 0.582743 0.921502 0.156665
H4    H     H_    0.700916 0.008616 0.485928 0.183312
H5    H     H_    0.299109 0.991359 0.514727 0.182198
H6    H     H_    0.012970 0.381676 0.405959 0.189661
N1    N     N_2   0.950320 0.457950 0.466680 -0.184763
N2    N     N_2   0.049680 0.542050 0.533320 -0.146869
N3    N     N_1   0.187346 0.341391 0.060230 -0.213422
N4    N     N_1   0.913095 0.736336 0.687916 -0.250518
O1    O     O_R   0.389250 0.738570 0.508180 -0.621575
O2    O     O_R   0.678390 0.711630 0.486820 -0.626836
O3    O     O_R   0.355470 0.513470 0.691600 -0.621299
O4    O     O_R   0.644610 0.486520 0.670240 -0.624184
O5    O     O_R   0.321610 0.288370 0.513180 -0.632558
O6    O     O_R   0.610750 0.261430 0.491820 -0.616075
O7    O     O_R   0.355390 0.513480 0.329760 -0.624192
O8    O     O_R   0.644530 0.486530 0.308400 -0.621014
Zn1   Zn    Zn3+2 0.306940 0.517990 0.514260 0.950355
Zn2   Zn    Zn3+2 0.693060 0.482010 0.485740 0.951980

loop_
_geom_bond_atom_site_label_1
_geom_bond_atom_site_label_2
_ccdc_geom_bond_type
O3    Zn1   S    
C11   C12   D    
O2    Zn2   S    
O4    Zn2   S    
C2    H4    S    
C9    C10   D    
N1    N2    D    
C12   H3    S    
C8    O8    A    
C7    O5    A    
O7    Zn1   S    
C3    C10   S    
O8    Zn2   S    
C6    O3    A    
C9    C11   S    
C6    O4    A    
N1    Zn2   S    
C1    C2    S    
C1    O1    A    
C6    C12   S    
C11   H2    S    
C3    N3    T    
C2    C5    D    
C5    H5    S    
C8    O7    A    
O5    Zn1   S    
C4    N2    S    
O6    Zn2   S    
C4    N4    T    
C1    O2    A    
C8    C10   S    
H6    N1    S    
C5    C7    S    
C9    H1    S    
C7    O6    A    
N2    Zn1   S    
O1    Zn1   S    
