data_mof_unit_48928.cif
_audit_creation_date              2012-12-10T20:46:48-0500
_audit_creation_method            fapswitch 2.2
_symmetry_space_group_name_H-M    P1
_symmetry_Int_Tables_number       1
_space_group_crystal_system       triclinic
_cell_length_a                    12.894561
_cell_length_b                    8.933888
_cell_length_c                    8.103141
_cell_angle_alpha                 89.986374
_cell_angle_beta                  97.989925
_cell_angle_gamma                 89.992813
_cell_volume                      924.408529508

loop_
_atom_site_label
_atom_site_type_symbol
_atom_type_description
_atom_site_fract_x
_atom_site_fract_y
_atom_site_fract_z
_atom_type_partial_charge
Br1   Br    Br    0.939002 0.308493 0.107934 -0.346560
Br2   Br    Br    0.060989 0.691568 0.892038 -0.346543
C1    C     C_R   0.500000 0.217973 0.500010 0.936242
C2    C     C_R   0.872964 0.583125 0.694091 0.358806
C3    C     C_R   0.136068 0.551837 0.569132 -0.208062
C4    C     C_R   0.863932 0.448163 0.430874 -0.208069
C5    C     C_R   0.029601 0.537168 0.568163 -0.006939
C6    C     C_R   0.970397 0.462847 0.431835 -0.006939
C7    C     C_1   0.499998 0.065185 0.500013 -0.136181
C8    C     C_1   0.500002 0.934815 0.499987 -0.136177
C9    C     C_R   0.500000 0.782027 0.499990 0.936250
C10   C     C_R   0.297427 0.496375 0.466077 0.936448
C11   C     C_R   0.702573 0.503627 0.533922 0.936458
C12   C     C_R   0.815120 0.510053 0.557221 -0.209689
C13   C     C_R   0.184878 0.489958 0.442777 -0.209706
C14   C     C_R   0.018629 0.405029 0.299093 0.280534
C15   C     C_R   0.981366 0.595004 0.700895 0.280549
C16   C     C_R   0.127031 0.416915 0.305890 0.358813
Cl1   Cl    Cl    0.811070 0.668060 0.852274 -0.489729
Cl2   Cl    Cl    0.188916 0.332037 0.147662 -0.489726
H1    H     H_    0.816911 0.389779 0.330112 0.221115
H2    H     H_    0.183090 0.610204 0.669905 0.221125
N1    N     N_1   0.500020 0.500000 0.073640 0.008683
N2    N     N_1   0.499980 0.500000 0.926360 0.008682
O1    O     O_R   0.499990 0.285340 0.636850 -0.614529
O2    O     O_R   0.500010 0.714660 0.363150 -0.614531
O3    O     O_R   0.500010 0.285340 0.363150 -0.606907
O4    O     O_R   0.499990 0.714660 0.636850 -0.606901
O5    O     O_R   0.346350 0.500000 0.614250 -0.624748
O6    O     O_R   0.653650 0.500000 0.385750 -0.624749
O7    O     O_R   0.346360 0.500000 0.340500 -0.570143
O8    O     O_R   0.653640 0.500000 0.659500 -0.570148
Zn1   Zn    Zn3+2 0.499990 0.500000 0.682780 1.071635
Zn2   Zn    Zn3+2 0.500010 0.500000 0.317220 1.071633

loop_
_geom_bond_atom_site_label_1
_geom_bond_atom_site_label_2
_ccdc_geom_bond_type
C13   C16   A    
N1    N2    T    
C1    C7    S    
C10   O5    A    
C4    C12   A    
C7    C8    T    
C11   O8    A    
N2    Zn1   S    
C10   C13   S    
N1    Zn2   S    
O8    Zn1   S    
C1    O3    A    
O7    Zn2   S    
C5    C6    A    
C6    C14   A    
Br1   C14   S    
C11   C12   S    
Br2   C15   S    
C2    Cl1   S    
O3    Zn2   S    
C9    O4    A    
C2    C15   A    
O4    Zn1   S    
C16   Cl2   S    
C10   O7    A    
C2    C12   A    
C3    C13   A    
C8    C9    S    
O6    Zn2   S    
O5    Zn1   S    
C11   O6    A    
C1    O1    A    
C14   C16   A    
C3    C5    A    
C4    C6    A    
C9    O2    A    
C4    H1    S    
O2    Zn2   S    
C3    H2    S    
O1    Zn1   S    
C5    C15   A    
