data_mof_unit_29602.cif
_audit_creation_date              2012-12-10T18:58:41-0500
_audit_creation_method            fapswitch 2.2
_symmetry_space_group_name_H-M    P1
_symmetry_Int_Tables_number       1
_space_group_crystal_system       triclinic
_cell_length_a                    10.884499
_cell_length_b                    9.799705
_cell_length_c                    17.476384
_cell_angle_alpha                 90.021527
_cell_angle_beta                  89.822609
_cell_angle_gamma                 89.995865
_cell_volume                      1864.1073186

loop_
_atom_site_label
_atom_site_type_symbol
_atom_type_description
_atom_site_fract_x
_atom_site_fract_y
_atom_site_fract_z
_atom_type_partial_charge
C1    C     C_R   0.259720 0.501945 0.494841 0.886544
C2    C     C_R   0.498313 0.500025 0.646837 0.852272
C3    C     C_R   0.873852 0.510227 0.509398 -0.160912
C4    C     C_R   0.126693 0.510783 0.488334 -0.158774
C5    C     C_R   0.439554 0.621915 0.846500 -0.168673
C6    C     C_R   0.437351 0.376829 0.154099 -0.171608
C7    C     C_R   0.458215 0.623632 0.152199 -0.167270
C8    C     C_R   0.464641 0.375589 0.848189 -0.168347
C9    C     C_R   0.461111 0.622993 0.768266 -0.213675
C10   C     C_R   0.459433 0.376334 0.232182 -0.210567
C11   C     C_R   0.480163 0.623553 0.230315 -0.212969
C12   C     C_R   0.740481 0.501831 0.504657 0.887185
C13   C     C_R   0.486191 0.376241 0.769941 -0.206266
C14   C     C_R   0.484272 0.500023 0.729562 -0.032701
C15   C     C_R   0.481369 0.499747 0.270659 -0.034705
C16   C     C_R   0.525245 0.072061 0.565359 -0.106668
C17   C     C_R   0.474345 0.927959 0.434679 -0.093737
C18   C     C_R   0.474946 0.071975 0.434616 -0.107200
C19   C     C_R   0.525866 0.928040 0.565288 -0.095394
C20   C     C_R   0.440984 0.498270 0.885883 0.169357
C21   C     C_R   0.437044 0.500363 0.114610 0.170625
C22   C     C_3   0.106939 0.263545 0.439351 -0.415199
C23   C     C_1   0.429862 0.498689 0.966234 -0.075353
C24   C     C_3   0.148269 0.299824 0.357636 -0.308257
C25   C     C_3   0.174660 0.171632 0.310696 -0.911135
C26   C     C_3   0.868818 0.778410 0.506952 -0.349433
C27   C     C_3   0.831502 0.825029 0.425726 -0.307389
C28   C     C_3   0.797061 0.975263 0.423886 -0.912494
C29   C     C_3   0.894504 0.259198 0.552494 -0.410361
C30   C     C_3   0.856653 0.288088 0.635736 -0.311889
C31   C     C_3   0.831590 0.155717 0.679129 -0.911234
C32   C     C_3   0.131425 0.778692 0.491057 -0.349595
C33   C     C_3   0.167916 0.826728 0.572216 -0.309048
C34   C     C_1   0.428545 0.499396 0.034178 -0.075458
C35   C     C_3   0.204433 0.976440 0.573212 -0.907726
C36   C     C_R   0.059783 0.388478 0.482960 0.053980
C37   C     C_R   0.935849 0.639417 0.503577 0.044120
C38   C     C_R   0.941048 0.387485 0.511956 0.052641
C39   C     C_R   0.064522 0.639644 0.494648 0.044969
C40   C     C_R   0.497614 0.499947 0.353183 0.851817
H1    H     H_    0.423053 0.717180 0.876342 0.129389
H2    H     H_    0.453313 0.873659 0.382527 0.125679
H3    H     H_    0.455310 0.126321 0.382344 0.133962
H4    H     H_    0.546919 0.873784 0.617440 0.126721
H5    H     H_    0.244491 0.107432 0.339551 0.252161
H6    H     H_    0.089266 0.111120 0.303245 0.262125
H7    H     H_    0.209935 0.200943 0.253337 0.252522
H8    H     H_    0.074877 0.359216 0.328627 0.218451
H9    H     H_    0.232658 0.363259 0.358923 0.222930
H10   H     H_    0.180977 0.210584 0.470738 0.231079
H11   H     H_    0.032454 0.187757 0.433239 0.190857
H12   H     H_    0.422572 0.281147 0.124378 0.128903
H13   H     H_    0.729895 0.998957 0.469626 0.280231
H14   H     H_    0.880398 0.037499 0.432431 0.242085
H15   H     H_    0.756572 0.001550 0.367549 0.252916
H16   H     H_    0.908566 0.808628 0.384882 0.200317
H17   H     H_    0.752824 0.765118 0.403804 0.252726
H18   H     H_    0.792009 0.781310 0.548539 0.207427
H19   H     H_    0.924071 0.858545 0.534982 0.185213
H20   H     H_    0.761291 0.093937 0.649034 0.254056
H21   H     H_    0.917313 0.094818 0.684034 0.262097
H22   H     H_    0.797524 0.179687 0.737561 0.250837
H23   H     H_    0.459788 0.719144 0.120950 0.129073
H24   H     H_    0.931505 0.344289 0.665307 0.218595
H25   H     H_    0.772531 0.352013 0.637633 0.222213
H26   H     H_    0.819074 0.209718 0.520757 0.232263
H27   H     H_    0.968214 0.182062 0.555096 0.189662
H28   H     H_    0.271445 0.998393 0.527182 0.279835
H29   H     H_    0.122166 0.040111 0.564462 0.242812
H30   H     H_    0.245605 0.003030 0.629326 0.252264
H31   H     H_    0.090065 0.812495 0.612715 0.199706
H32   H     H_    0.245393 0.766058 0.595107 0.252536
H33   H     H_    0.208862 0.780802 0.449894 0.207641
H34   H     H_    0.467742 0.280063 0.879372 0.129144
H35   H     H_    0.076326 0.858203 0.462330 0.184268
H36   H     H_    0.458457 0.719547 0.738161 0.146387
H37   H     H_    0.458774 0.279757 0.262263 0.151129
H38   H     H_    0.496352 0.719939 0.258910 0.144777
H39   H     H_    0.503910 0.280266 0.741201 0.147509
H40   H     H_    0.545001 0.126488 0.617637 0.136041
N1    N     N_R   0.500000 0.857200 0.500000 -0.067052
N2    N     N_R   0.500000 0.142800 0.500000 -0.073226
O1    O     O_R   0.316770 0.614620 0.500000 -0.629336
O2    O     O_R   0.683230 0.385380 0.500000 -0.610297
O3    O     O_R   0.683230 0.614620 0.500000 -0.628062
O4    O     O_R   0.316770 0.385380 0.500000 -0.610128
O5    O     O_R   0.500010 0.614710 0.389120 -0.634511
O6    O     O_R   0.499990 0.385290 0.610880 -0.623803
O7    O     O_R   0.499990 0.614710 0.610880 -0.634630
O8    O     O_R   0.500010 0.385290 0.389120 -0.623968
Zn1   Zn    Zn3+2 0.500000 0.653120 0.500000 0.919300
Zn2   Zn    Zn3+2 0.500000 0.346880 0.500000 0.937699

loop_
_geom_bond_atom_site_label_1
_geom_bond_atom_site_label_2
_ccdc_geom_bond_type
C4    C36   A    
C8    C13   A    
C30   H24   S    
C31   H21   S    
C32   H35   S    
C13   H39   S    
O3    Zn1   S    
C5    C20   A    
C7    C11   A    
C26   C27   S    
C8    C20   A    
C12   O3    A    
C40   O5    A    
O5    Zn1   S    
C10   C15   A    
C30   C31   S    
C1    O4    A    
N2    Zn2   S    
C12   O2    A    
C32   C39   S    
C17   H2    S    
C3    C12   S    
C33   H32   S    
C33   C35   S    
C29   H27   S    
C11   C15   A    
C28   H15   S    
O6    Zn2   S    
C35   H30   S    
C29   C38   S    
C20   C23   S    
C2    O6    A    
C9    H36   S    
O7    Zn1   S    
C26   H19   S    
C25   H7    S    
C22   H10   S    
C13   C14   A    
C31   H22   S    
C16   N2    A    
C10   H37   S    
C24   H8    S    
C24   C25   S    
C3    C38   A    
C27   H17   S    
C32   H33   S    
C28   H14   S    
C27   H16   S    
C21   C34   S    
C7    C21   A    
C6    C21   A    
C16   H40   S    
C31   H20   S    
C2    O7    A    
C9    C14   A    
C5    C9    A    
C29   C30   S    
C11   H38   S    
O8    Zn2   S    
C4    C39   A    
C23   C34   T    
C8    H34   S    
C17   C18   A    
C26   H18   S    
C7    H23   S    
C22   C24   S    
C25   H5    S    
C22   C36   S    
C19   H4    S    
C24   H9    S    
C5    H1    S    
C6    C10   A    
C28   H13   S    
C26   C37   S    
C1    O1    A    
O1    Zn1   S    
C1    C4    S    
C40   O8    A    
C32   C33   S    
C36   C38   A    
C37   C39   A    
O4    Zn2   S    
C18   H3    S    
C35   H28   S    
C16   C19   A    
C18   N2    A    
C17   N1    A    
C2    C14   S    
C15   C40   S    
C30   H25   S    
C33   H31   S    
C29   H26   S    
N1    Zn1   S    
C35   H29   S    
C27   C28   S    
O2    Zn2   S    
C6    H12   S    
C19   N1    A    
C25   H6    S    
C3    C37   A    
C22   H11   S    
