data_mof_unit_67532.cif
_audit_creation_date              2013-03-05T15:41:20-0500
_audit_creation_method            fapswitch 2.2
_symmetry_space_group_name_H-M    P1
_symmetry_Int_Tables_number       1
_space_group_crystal_system       triclinic
_cell_length_a                    10.65953
_cell_length_b                    8.718296
_cell_length_c                    7.541895
_cell_angle_alpha                 102.727631
_cell_angle_beta                  95.945307
_cell_angle_gamma                 93.836783
_cell_volume                      677.076294188

loop_
_atom_site_label
_atom_site_type_symbol
_atom_site_description
_atom_site_fract_x
_atom_site_fract_y
_atom_site_fract_z
_atom_type_partial_charge
O1    O     O_R   0.509190 0.286130 0.619780 -0.620758
O2    O     O_R   0.490810 0.713870 0.380220 -0.620486
O3    O     O_R   0.485310 0.256770 0.308360 -0.566685
O4    O     O_R   0.514690 0.743230 0.691640 -0.565784
C1    C     C_R   0.493362 0.200374 0.454218 0.871590
C2    C     C_R   0.506871 0.799630 0.545685 0.892581
O5    O     O_R   0.328790 0.514640 0.655680 -0.566888
O6    O     O_R   0.671210 0.485360 0.344320 -0.563622
O7    O     O_R   0.304910 0.485280 0.344260 -0.566241
O8    O     O_R   0.695090 0.514720 0.655740 -0.558513
C3    C     C_R   0.259775 0.495693 0.499037 0.921275
C4    C     C_R   0.740285 0.505723 0.501313 0.908766
Cu1   Cu    Cu3+1 0.514140 0.517380 0.684380 1.077070
Cu2   Cu    Cu3+1 0.485860 0.482620 0.315620 1.075542
N1    N     N_2   0.464560 0.456420 0.038510 -0.243098
N2    N     N_2   0.535440 0.543580 0.961490 -0.242441
C5    C     C_3   0.043600 0.409580 0.613481 -0.287009
C6    C     C_3   0.956738 0.595548 0.388268 -0.283355
C7    C     C_3   0.942993 0.359603 0.443747 0.342280
C8    C     C_3   0.057375 0.645718 0.558202 0.336050
H1    H     H_    0.076629 0.330958 0.702355 0.247300
H2    H     H_    0.923737 0.674243 0.299440 0.244886
C9    C     C_3   0.876878 0.509526 0.503287 -0.135297
C10   C     C_3   0.123502 0.495588 0.498542 -0.146850
C11   C     C_3   0.977155 0.562615 0.672325 -0.147681
C12   C     C_3   0.023086 0.442395 0.329491 -0.157073
C13   C     C_2   0.471491 0.033241 0.434820 0.044574
C14   C     C_2   0.528866 0.966736 0.564786 0.041540
N3    N     N_R   0.878020 0.201977 0.373760 0.156585
O9    O     O_R   0.919265 0.083050 0.432428 -0.227184
O10   O     O_R   0.788685 0.176612 0.236769 -0.301209
N4    N     N_R   0.118567 0.805440 0.629438 0.165983
O11   O     O_R   0.048814 0.922716 0.662475 -0.218335
O12   O     O_R   0.237171 0.827006 0.697631 -0.326597
C15   C     C_2   0.961440 0.644067 0.864443 0.529399
H3    H     H_    0.032010 0.637412 0.976071 0.056559
O13   O     O_2   0.875111 0.727367 0.894797 -0.437081
C16   C     C_2   0.041474 0.361048 0.138540 0.549714
H4    H     H_    0.982407 0.383547 0.023130 0.047249
O14   O     O_2   0.115566 0.259953 0.112717 -0.433419
C17   C     C_2   0.409581 0.309014 0.931685 0.803880
H5    H     H_    0.460633 0.205266 0.926342 0.084534
O15   O     O_2   0.301420 0.295478 0.856077 -0.544480
C18   C     C_2   0.588986 0.691940 0.067746 0.808750
H6    H     H_    0.539415 0.795875 0.065432 0.083236
O16   O     O_2   0.694655 0.705940 0.151669 -0.539652
N5    N     N_R   0.371997 0.949154 0.295076 0.108613
O17   O     O_R   0.279297 0.865607 0.338774 -0.310751
O18   O     O_R   0.360946 0.979747 0.133193 -0.302005
N6    N     N_R   0.628360 0.050899 0.704433 0.110330
O19   O     O_R   0.640730 0.018701 0.865451 -0.291100
O20   O     O_R   0.719279 0.137865 0.661671 -0.304694

loop_
_geom_bond_atom_site_label_1
_geom_bond_atom_site_label_2
_geom_bond_distance
_ccdc_geom_bond_type
C7    C9    1.528726 S    
O7    Cu2   1.964106 S    
N3    O9    1.298832 A    
C17   O15   1.218324 D    
C17   H5    1.081776 S    
N2    C18   1.410920 S    
N6    O20   1.300875 A    
C15   H3    1.083590 S    
C6    C12   1.552435 S    
O6    C4    1.298022 A    
C5    C11   1.552213 S    
N4    O11   1.299295 A    
O3    C1    1.297544 A    
N6    O19   1.301113 A    
N5    O18   1.301356 A    
C6    H2    1.108732 S    
Cu1   Cu2   2.712973 S    
C16   O14   1.219796 D    
O7    C3    1.295308 A    
C4    C9    1.452622 S    
O2    C2    1.293492 A    
O3    Cu2   1.957290 S    
O8    C4    1.294510 A    
C11   C15   1.498189 S    
N3    O10   1.300192 A    
O1    C1    1.294098 A    
C15   O13   1.219217 D    
C10   C12   1.541641 S    
O5    C3    1.296870 A    
C6    C8    1.545970 S    
C9    C11   1.540635 S    
C16   H4    1.082019 S    
O2    Cu2   1.962769 S    
C2    C14   1.432843 S    
C5    C10   1.546942 S    
O1    Cu1   1.962767 S    
C8    C11   1.530118 S    
C6    C9    1.547193 S    
C7    N3    1.457415 S    
N5    O17   1.300951 A    
C8    C10   1.530413 S    
C3    C10   1.452161 S    
O5    Cu1   1.963109 S    
C18   H6    1.081541 S    
N1    C17   1.410419 S    
O4    C2    1.298236 A    
C8    N4    1.459242 S    
Cu1   N2    2.038618 S    
C13   N5    1.448081 S    
O4    Cu1   1.957290 S    
C7    C12   1.528541 S    
Cu2   N1    2.038618 S    
C12   C16   1.497465 S    
O6    Cu2   1.963111 S    
C5    C7    1.544645 S    
C1    C13   1.432655 S    
C14   N6    1.447882 S    
C5    H1    1.108569 S    
N1    N2    1.301643 D    
C18   O16   1.218246 D    
C13   C14   1.358194 D    
O8    Cu1   1.964106 S    
N4    O12   1.299653 A    
