data_mof_unit_61948.cif
_audit_creation_date              2012-10-26T18:10:58-0400
_audit_creation_method            fapswitch 2.2
_symmetry_space_group_name_H-M    P1
_symmetry_Int_Tables_number       1
_space_group_crystal_system       triclinic
_cell_length_a                    21.733488
_cell_length_b                    21.733478
_cell_length_c                    23.670427
_cell_angle_alpha                 89.99974
_cell_angle_beta                  90.000151
_cell_angle_gamma                 90.000064
_cell_volume                      11180.5908768

loop_
_atom_site_label
_atom_site_type_symbol
_atom_type_description
_atom_site_fract_x
_atom_site_fract_y
_atom_site_fract_z
_atom_type_partial_charge
C1    C     C_R   0.118494 0.500000 1.000000 0.531463
C2    C     C_R   0.500000 1.000000 0.108092 0.532896
C3    C     C_3   0.497521 0.218096 0.161872 -0.454593
C4    C     C_3   0.819724 0.498847 0.107392 -0.267685
C5    C     C_3   0.781906 0.498428 0.161883 -0.454603
C6    C     C_3   0.501281 0.819722 0.107390 -0.267681
C7    C     C_3   0.501823 0.781904 0.161880 -0.454613
C8    C     C_3   0.680276 0.998972 0.392607 -0.267687
C9    C     C_3   0.718094 0.998541 0.338116 -0.454602
C10   C     C_3   0.998731 0.319724 0.392610 -0.267681
C11   C     C_3   0.998179 0.281906 0.338119 -0.454601
C12   C     C_3   0.319723 0.000786 0.392605 -0.267686
C13   C     C_R   1.000000 0.500000 0.891908 0.532894
C14   C     C_3   0.281905 0.001153 0.338114 -0.454619
C15   C     C_3   0.001724 0.680279 0.392617 -0.267672
C16   C     C_3   0.002465 0.718098 0.338128 -0.454609
C17   C     C_3   0.680278 0.001036 0.607392 -0.267681
C18   C     C_3   0.718096 0.001497 0.661883 -0.454618
C19   C     C_3   0.998246 0.680276 0.607385 -0.267682
C20   C     C_3   0.997438 0.718095 0.661872 -0.454601
C21   C     C_3   0.319723 0.999222 0.607393 -0.267682
C22   C     C_3   0.281905 0.998880 0.661885 -0.454597
C23   C     C_3   0.001263 0.319722 0.607390 -0.267682
C24   C     C_R   0.500000 0.000000 0.891908 0.532895
C25   C     C_3   0.001800 0.281904 0.661881 -0.454616
C26   C     C_R   0.500000 1.000000 0.608092 0.532893
C27   C     C_R   0.000000 0.500000 0.608092 0.532895
C28   C     C_R   0.500000 0.000000 0.391908 0.532891
C29   C     C_R   1.000000 0.500000 0.391908 0.532896
C30   C     C_1   0.000000 0.500000 0.168967 -0.032624
C31   C     C_1   0.500000 1.000000 0.168967 -0.032624
C32   C     C_1   1.000000 0.500000 0.831033 -0.032624
C33   C     C_R   0.500000 0.881506 0.000000 0.531463
C34   C     C_1   0.500000 1.000000 0.831033 -0.032625
C35   C     C_1   0.500000 1.000000 0.668967 -0.032623
C36   C     C_1   1.000000 0.500000 0.668967 -0.032625
C37   C     C_1   0.500000 0.000000 0.331033 -0.032625
C38   C     C_1   0.000000 0.500000 0.331033 -0.032623
C39   C     C_1   0.000000 0.500000 0.220051 -0.048321
C40   C     C_1   0.500000 0.000000 0.220051 -0.048321
C41   C     C_1   1.000000 0.500000 0.779949 -0.048321
C42   C     C_1   0.500000 1.000000 0.779949 -0.048321
C43   C     C_1   0.500000 1.000000 0.720051 -0.048320
C44   C     C_R   0.881505 0.500000 1.000000 0.531463
C45   C     C_1   0.999999 0.500000 0.720051 -0.048321
C46   C     C_1   0.499999 0.000000 0.279949 -0.048322
C47   C     C_1   0.000000 0.500000 0.279949 -0.048320
C48   C     C_R   0.216732 0.499243 0.947816 -0.009158
C49   C     C_R   0.499360 0.783268 0.947816 -0.009160
C50   C     C_R   0.783268 0.500574 0.947815 -0.009158
C51   C     C_R   0.500869 0.216733 0.947817 -0.009158
C52   C     C_R   0.216732 0.500756 0.052183 -0.009160
C53   C     C_R   0.499140 0.216732 0.052181 -0.009161
C54   C     C_R   0.783268 0.499428 0.052185 -0.009158
C55   C     C_R   0.500000 0.118494 0.999999 0.531463
C56   C     C_R   0.500636 0.783268 0.052185 -0.009159
C57   C     C_R   0.716732 0.999489 0.447813 -0.009159
C58   C     C_R   0.999370 0.283268 0.447815 -0.009160
C59   C     C_R   0.283268 0.000390 0.447812 -0.009158
C60   C     C_R   0.000858 0.716733 0.447820 -0.009160
C61   C     C_R   0.716732 0.000514 0.552185 -0.009161
C62   C     C_R   0.999130 0.716732 0.552184 -0.009157
C63   C     C_R   0.283268 0.999613 0.552186 -0.009161
C64   C     C_R   0.000627 0.283267 0.552185 -0.009158
C65   C     C_R   0.281110 0.499258 0.948728 -0.114694
C66   C     C_R   0.618494 0.000000 0.500000 0.531462
C67   C     C_R   0.499373 0.718890 0.948727 -0.114697
C68   C     C_R   0.718890 0.500571 0.948727 -0.114711
C69   C     C_R   0.500848 0.281111 0.948728 -0.114705
C70   C     C_R   0.281110 0.500742 0.051272 -0.114708
C71   C     C_R   0.499154 0.281110 0.051270 -0.114696
C72   C     C_R   0.718890 0.499432 0.051274 -0.114697
C73   C     C_R   0.500626 0.718889 0.051273 -0.114707
C74   C     C_R   0.781110 0.999497 0.448725 -0.114696
C75   C     C_R   0.999383 0.218890 0.448727 -0.114699
C76   C     C_R   0.218890 0.000382 0.448724 -0.114709
C77   C     C_R   1.000000 0.381506 0.500000 0.531463
C78   C     C_R   0.000844 0.781110 0.448731 -0.114706
C79   C     C_R   0.781110 0.000504 0.551273 -0.114711
C80   C     C_R   0.999150 0.781111 0.551272 -0.114695
C81   C     C_R   0.218891 0.999621 0.551274 -0.114697
C82   C     C_R   0.000617 0.218890 0.551273 -0.114706
C83   C     C_R   0.313171 0.500000 1.000000 -0.019713
C84   C     C_R   0.500000 0.686829 0.000000 -0.019714
C85   C     C_R   0.686829 0.500001 0.000000 -0.019716
C86   C     C_R   0.499999 0.313171 0.999999 -0.019712
C87   C     C_R   0.813171 0.000000 0.499999 -0.019715
C88   C     C_R   0.381506 0.000000 0.499999 0.531462
C89   C     C_R   0.000000 0.186829 0.500000 -0.019714
C90   C     C_R   0.186829 0.000001 0.499999 -0.019715
C91   C     C_R   0.999999 0.813171 0.500002 -0.019712
C92   C     C_R   0.500000 0.619513 1.000000 0.556272
C93   C     C_R   0.619512 0.500001 0.000000 0.556273
C94   C     C_R   0.499999 0.380487 0.000000 0.556270
C95   C     C_R   0.380487 0.500000 1.000000 0.556270
C96   C     C_R   0.000000 0.119512 0.500000 0.556273
C97   C     C_R   0.119512 0.000000 0.500000 0.556273
C98   C     C_R   0.000000 0.880487 0.500000 0.556271
C99   C     C_R   1.000000 0.618494 0.500001 0.531463
C100  C     C_R   0.880487 1.000000 0.500000 0.556273
C101  C     C_R   0.185135 0.500000 1.000000 0.036526
C102  C     C_R   0.499999 0.814865 0.000000 0.036528
C103  C     C_R   0.814865 0.500000 0.000000 0.036530
C104  C     C_R   0.500001 0.185135 0.999999 0.036524
C105  C     C_R   0.685135 0.000000 0.499999 0.036529
C106  C     C_R   1.000000 0.314865 0.500000 0.036529
C107  C     C_R   0.314865 0.000000 0.499999 0.036530
C108  C     C_R   0.999998 0.685135 0.500001 0.036525
C109  C     C_3   0.180277 0.498475 0.892613 -0.267681
C110  C     C_R   0.000000 0.500000 0.108092 0.532894
C111  C     C_3   0.218095 0.497809 0.838124 -0.454595
C112  C     C_3   0.498710 0.819723 0.892610 -0.267681
C113  C     C_3   0.498144 0.781906 0.838120 -0.454599
C114  C     C_3   0.819722 0.501152 0.892608 -0.267682
C115  C     C_3   0.781904 0.501591 0.838117 -0.454621
C116  C     C_3   0.501753 0.180278 0.892615 -0.267679
C117  C     C_3   0.502550 0.218097 0.838128 -0.454610
C118  C     C_3   0.180278 0.501521 0.107387 -0.267677
C119  C     C_3   0.218097 0.502191 0.161876 -0.454612
C120  C     C_3   0.498273 0.180277 0.107383 -0.267672
Cu1   Cu    Cu3+1 0.000000 0.561790 0.000000 0.920224
Cu2   Cu    Cu3+1 0.500000 0.500000 0.055780 0.911892
Cu3   Cu    Cu3+1 0.000000 0.000000 0.444220 0.911891
Cu4   Cu    Cu3+1 0.000000 0.000000 0.555780 0.911891
Cu5   Cu    Cu3+1 0.561790 0.000000 0.000000 0.920216
Cu6   Cu    Cu3+1 0.000000 0.438210 0.000000 0.920220
Cu7   Cu    Cu3+1 0.438210 0.000000 0.000000 0.920222
Cu8   Cu    Cu3+1 0.500000 0.061790 0.500000 0.920223
Cu9   Cu    Cu3+1 0.061790 0.500000 0.500000 0.920227
Cu10  Cu    Cu3+1 0.500000 0.938210 0.500000 0.920227
Cu11  Cu    Cu3+1 0.938210 0.500000 0.500000 0.920214
Cu12  Cu    Cu3+1 0.500000 0.500000 0.944220 0.911892
H1    H     H_    0.306908 0.498671 0.909732 0.141344
H2    H     H_    0.998895 0.193093 0.409730 0.141343
H3    H     H_    0.193092 0.000681 0.409726 0.141337
H4    H     H_    0.001514 0.806908 0.409737 0.141336
H5    H     H_    0.806908 0.000902 0.590270 0.141338
H6    H     H_    0.998482 0.806909 0.590267 0.141339
H7    H     H_    0.193093 0.999321 0.590272 0.141348
H8    H     H_    0.001106 0.193092 0.590269 0.141338
H9    H     H_    0.247182 0.539713 0.835215 0.151663
H10   H     H_    0.247217 0.455869 0.836099 0.151499
H11   H     H_    0.186482 0.497333 0.801259 0.147895
H12   H     H_    0.498877 0.693093 0.909731 0.141345
H13   H     H_    0.150177 0.457126 0.892297 0.159848
H14   H     H_    0.150084 0.539738 0.891386 0.158966
H15   H     H_    0.540051 0.752817 0.835278 0.151635
H16   H     H_    0.456205 0.752787 0.836029 0.151524
H17   H     H_    0.497739 0.813516 0.801252 0.147890
H18   H     H_    0.457367 0.849832 0.892225 0.159784
H19   H     H_    0.539981 0.849908 0.891453 0.159028
H20   H     H_    0.752821 0.459674 0.835356 0.151643
H21   H     H_    0.752780 0.543521 0.835948 0.151496
H22   H     H_    0.813515 0.501917 0.801249 0.147876
H23   H     H_    0.693092 0.501029 0.909730 0.141337
H24   H     H_    0.849805 0.542513 0.892162 0.159715
H25   H     H_    0.849933 0.459898 0.891510 0.159084
H26   H     H_    0.460654 0.247186 0.835135 0.151652
H27   H     H_    0.544497 0.247218 0.836188 0.151486
H28   H     H_    0.503113 0.186483 0.801265 0.147881
H29   H     H_    0.543098 0.150171 0.892376 0.159924
H30   H     H_    0.460488 0.150092 0.891312 0.158879
H31   H     H_    0.247186 0.460289 0.164786 0.151647
H32   H     H_    0.247216 0.544134 0.163900 0.151486
H33   H     H_    0.186485 0.502665 0.198742 0.147875
H34   H     H_    0.501515 0.306909 0.909734 0.141334
H35   H     H_    0.150174 0.542868 0.107702 0.159842
H36   H     H_    0.150089 0.460255 0.108613 0.158959
H37   H     H_    0.539418 0.247186 0.164836 0.151668
H38   H     H_    0.455575 0.247215 0.163843 0.151484
H39   H     H_    0.496991 0.186485 0.198738 0.147887
H40   H     H_    0.456921 0.150181 0.107640 0.159914
H41   H     H_    0.539531 0.150081 0.108668 0.158898
H42   H     H_    0.752830 0.540351 0.164636 0.151663
H43   H     H_    0.752774 0.456504 0.164061 0.151505
H44   H     H_    0.813518 0.498106 0.198751 0.147895
H45   H     H_    0.306908 0.501328 0.090267 0.141335
H46   H     H_    0.849795 0.457478 0.107843 0.159717
H47   H     H_    0.849945 0.540093 0.108485 0.159096
H48   H     H_    0.459914 0.752816 0.164708 0.151631
H49   H     H_    0.543760 0.752783 0.163985 0.151509
H50   H     H_    0.502214 0.813516 0.198747 0.147882
H51   H     H_    0.542629 0.849823 0.107784 0.159773
H52   H     H_    0.460015 0.849915 0.108539 0.159030
H53   H     H_    0.747184 0.040454 0.335362 0.151635
H54   H     H_    0.747211 0.956607 0.335938 0.151532
H55   H     H_    0.686483 0.998229 0.301248 0.147896
H56   H     H_    0.498484 0.306907 0.090264 0.141342
H57   H     H_    0.650169 0.957629 0.392137 0.159694
H58   H     H_    0.650091 0.040245 0.391533 0.159120
H59   H     H_    0.040087 0.252818 0.335286 0.151650
H60   H     H_    0.956241 0.252786 0.336020 0.151507
H61   H     H_    0.997782 0.313516 0.301251 0.147892
H62   H     H_    0.957387 0.349830 0.392216 0.159771
H63   H     H_    0.040001 0.349910 0.391460 0.159042
H64   H     H_    0.252805 0.959243 0.335408 0.151590
H65   H     H_    0.252797 0.043091 0.335888 0.151549
H66   H     H_    0.313517 0.001407 0.301246 0.147880
H67   H     H_    0.693093 0.498974 0.090270 0.141346
H68   H     H_    0.349857 0.042109 0.392074 0.159625
H69   H     H_    0.349882 0.959492 0.391592 0.159176
H70   H     H_    0.960566 0.747184 0.335170 0.151678
H71   H     H_    0.044409 0.747220 0.336152 0.151458
H72   H     H_    0.002992 0.686488 0.301262 0.147874
H73   H     H_    0.043080 0.650188 0.392357 0.159900
H74   H     H_    0.960469 0.650077 0.391336 0.158904
H75   H     H_    0.747190 0.959589 0.664654 0.151612
H76   H     H_    0.747208 0.043436 0.664044 0.151523
H77   H     H_    0.686488 0.001823 0.698753 0.147875
H78   H     H_    0.501123 0.693091 0.090270 0.141337
H79   H     H_    0.650158 0.042369 0.607852 0.159697
H80   H     H_    0.650105 0.959754 0.608475 0.159106
H81   H     H_    0.039331 0.747188 0.664870 0.151676
H82   H     H_    0.955488 0.747212 0.663807 0.151483
H83   H     H_    0.996873 0.686480 0.698735 0.147894
H84   H     H_    0.956905 0.650164 0.607622 0.159925
H85   H     H_    0.039515 0.650096 0.608692 0.158886
H86   H     H_    0.252810 0.040794 0.664578 0.151607
H87   H     H_    0.252794 0.956945 0.664126 0.151556
H88   H     H_    0.313514 0.998638 0.698756 0.147893
H89   H     H_    0.806907 0.999097 0.409728 0.141346
H90   H     H_    0.349847 0.957892 0.607932 0.159624
H91   H     H_    0.349892 0.040509 0.608397 0.159191
H92   H     H_    0.959890 0.252816 0.664704 0.151646
H93   H     H_    0.043736 0.252783 0.663989 0.151496
H94   H     H_    0.002187 0.313514 0.698748 0.147878
H95   H     H_    0.042611 0.349824 0.607789 0.159761
H96   H     H_    0.959996 0.349914 0.608535 0.159042
O1    O     O_R   0.090160 0.552180 0.999990 -0.511131
O2    O     O_R   0.052180 0.409840 0.499990 -0.511129
O3    O     O_R   0.409840 0.947820 0.499990 -0.511127
O4    O     O_R   0.947820 0.590160 0.499990 -0.511142
O5    O     O_R   0.590160 0.947820 0.500010 -0.511127
O6    O     O_R   0.052180 0.590160 0.500010 -0.511125
O7    O     O_R   0.409840 0.052180 0.500010 -0.511132
O8    O     O_R   0.947820 0.409840 0.500010 -0.511132
O9    O     O_R   0.999980 0.552180 0.081400 -0.505484
O10   O     O_R   0.552180 0.000020 0.081400 -0.505404
O11   O     O_R   0.000020 0.447820 0.081400 -0.505407
O12   O     O_R   0.552180 0.909840 0.999990 -0.511128
O13   O     O_R   0.447820 0.999980 0.081400 -0.505488
O14   O     O_R   0.999980 0.447820 0.918600 -0.505484
O15   O     O_R   0.552180 0.999980 0.918600 -0.505490
O16   O     O_R   0.000020 0.552180 0.918600 -0.505408
O17   O     O_R   0.447820 0.000020 0.918600 -0.505402
O18   O     O_R   0.499980 0.052180 0.581400 -0.505470
O19   O     O_R   0.052180 0.500020 0.581400 -0.505399
O20   O     O_R   0.500020 0.947820 0.581400 -0.505422
O21   O     O_R   0.947820 0.499980 0.581400 -0.505494
O22   O     O_R   0.499980 0.947820 0.418600 -0.505467
O23   O     O_R   0.909840 0.447820 0.999990 -0.511128
O24   O     O_R   0.052180 0.499980 0.418600 -0.505488
O25   O     O_R   0.500020 0.052180 0.418600 -0.505425
O26   O     O_R   0.947820 0.500020 0.418600 -0.505403
O27   O     O_R   0.499980 0.590270 0.952910 -0.514778
O28   O     O_R   0.590270 0.500020 0.952910 -0.514804
O29   O     O_R   0.500020 0.409730 0.952910 -0.514798
O30   O     O_R   0.409730 0.499980 0.952910 -0.514773
O31   O     O_R   0.499980 0.409730 0.047090 -0.514776
O32   O     O_R   0.590270 0.499980 0.047090 -0.514775
O33   O     O_R   0.500020 0.590270 0.047090 -0.514801
O34   O     O_R   0.447820 0.090160 0.999990 -0.511127
O35   O     O_R   0.409730 0.500020 0.047090 -0.514803
O36   O     O_R   0.999980 0.090270 0.452910 -0.514781
O37   O     O_R   0.090270 0.000020 0.452910 -0.514805
O38   O     O_R   0.000020 0.909730 0.452910 -0.514796
O39   O     O_R   0.909730 0.999980 0.452910 -0.514774
O40   O     O_R   0.999980 0.909730 0.547090 -0.514778
O41   O     O_R   0.090270 0.999980 0.547090 -0.514776
O42   O     O_R   0.000020 0.090270 0.547090 -0.514798
O43   O     O_R   0.909730 0.000020 0.547090 -0.514806
O44   O     O_R   0.090160 0.447820 0.000010 -0.511133
O45   O     O_R   0.552180 0.090160 0.000010 -0.511141
O46   O     O_R   0.909840 0.552180 0.000010 -0.511130
O47   O     O_R   0.447820 0.909840 0.000010 -0.511134
O48   O     O_R   0.590160 0.052180 0.499990 -0.511132

loop_
_geom_bond_atom_site_label_1
_geom_bond_atom_site_label_2
_ccdc_geom_bond_type
Cu11  O4    S    
Cu1   O16   S    
C44   O46   A    
C22   H87   S    
Cu4   O43   S    
C112  H19   S    
C117  H27   S    
C55   O34   A    
C15   C60   S    
C118  H35   S    
C13   C32   S    
C57   C105  A    
C109  H14   S    
C34   C42   T    
C71   H56   S    
C17   H80   S    
C3    H39   S    
C119  H33   S    
C79   C87   A    
C99   O4    A    
C110  O9    A    
Cu3   Cu4   S    
C1    O44   A    
Cu5   O45   S    
Cu1   O46   S    
C31   C40   T    
C40   C46   S    
C99   C108  S    
C14   H66   S    
C74   H89   S    
Cu4   O42   S    
C77   O2    A    
C82   C89   A    
C30   C110  S    
C28   C37   S    
C113  H16   S    
C116  H30   S    
C120  H40   S    
C10   C58   S    
C61   C79   A    
C11   H60   S    
C9    H53   S    
C109  C111  S    
C80   H6    S    
Cu2   O35   S    
C65   C83   A    
C13   O16   A    
C62   C108  A    
C67   H12   S    
C53   C104  A    
C96   O42   A    
C15   C16   S    
C93   O32   A    
C25   H94   S    
C116  C117  S    
C24   O15   A    
C81   H7    S    
C19   H84   S    
C5    H42   S    
C114  H24   S    
Cu2   O33   S    
C69   H34   S    
Cu8   O48   S    
C82   H8    S    
C86   C94   S    
Cu12  O27   S    
C17   C61   S    
C118  C119  S    
C12   C59   S    
C85   C93   S    
C44   C103  S    
C93   O28   A    
C118  H36   S    
C94   O31   A    
C8    H58   S    
C8    C9    S    
Cu7   O13   S    
C115  H20   S    
Cu6   O14   S    
C32   C41   T    
Cu7   O17   S    
C74   C87   A    
C16   H71   S    
C61   C105  A    
Cu2   O31   S    
C8    H57   S    
C90   C97   S    
Cu11  O21   S    
C92   O33   A    
C60   C108  A    
C89   C96   S    
C111  H11   S    
C51   C69   A    
C68   H23   S    
Cu8   O7    S    
C95   O35   A    
C48   C109  S    
C22   H86   S    
Cu9   O24   S    
C83   C95   S    
C67   C84   A    
C96   O36   A    
C21   C22   S    
C115  H21   S    
C117  H28   S    
C68   C85   A    
C5    H43   S    
C24   O17   A    
C1    O1    A    
C16   H70   S    
Cu6   O11   S    
Cu2   Cu12  S    
C112  C113  S    
C76   H3    S    
C26   O20   A    
C58   C75   A    
C72   C85   A    
C6    C7    S    
C28   O22   A    
C6    C56   S    
C14   H64   S    
Cu4   O41   S    
C14   H65   S    
C109  H13   S    
C52   C101  A    
Cu11  O26   S    
Cu1   O1    S    
C21   H90   S    
C7    H49   S    
C66   O5    A    
C33   C102  S    
C73   C84   A    
C113  H17   S    
C54   C103  A    
C18   H77   S    
C28   O25   A    
C9    H54   S    
C10   C11   S    
Cu7   O47   S    
C49   C102  A    
C99   O6    A    
Cu10  O20   S    
C110  O11   A    
C2    O10   A    
Cu12  O30   S    
C33   O47   A    
C9    H55   S    
C51   C104  A    
C29   O26   A    
C116  H29   S    
C55   C104  S    
Cu4   O40   S    
C77   O8    A    
C59   C107  A    
C6    H52   S    
C2    C31   S    
C50   C114  S    
C20   H82   S    
C57   C74   A    
C29   C38   S    
C20   H83   S    
C114  H25   S    
C27   O19   A    
C8    C57   S    
C71   C86   A    
C52   C118  S    
Cu3   O37   S    
C44   O23   A    
C13   O14   A    
Cu3   O36   S    
C60   C78   A    
C17   C18   S    
C12   H68   S    
C95   O30   A    
C36   C45   T    
C3    H38   S    
C12   H69   S    
C78   C91   A    
C64   C106  A    
C70   C83   A    
C64   C82   A    
C38   C47   T    
C15   H73   S    
Cu5   O12   S    
C49   C112  S    
C19   H85   S    
C81   C90   A    
Cu2   O32   S    
C23   C64   S    
C79   H5    S    
C63   C81   A    
C62   C80   A    
C73   H78   S    
C115  H22   S    
C48   C65   A    
C5    H44   S    
C112  H18   S    
C42   C43   S    
C66   C105  S    
C63   C107  A    
Cu8   O25   S    
C1    C101  S    
Cu11  O8    S    
C35   C43   T    
C39   C47   S    
C87   C100  S    
Cu9   O19   S    
Cu9   O2    S    
Cu6   O44   S    
C30   C39   T    
C88   C107  S    
C88   O7    A    
C22   H88   S    
Cu6   O23   S    
C77   C106  S    
C56   C73   A    
C49   C67   A    
C7    H50   S    
C4    C54   S    
C117  H26   S    
C4    H47   S    
C3    H37   S    
C11   H61   S    
C4    H46   S    
C4    C5    S    
C17   H79   S    
C98   O40   A    
Cu8   Cu10  S    
C119  H32   S    
C23   H95   S    
C70   H45   S    
C114  C115  S    
Cu12  O29   S    
C100  O39   A    
C27   C36   S    
C84   C92   S    
Cu9   O6    S    
Cu10  O5    S    
C51   C116  S    
Cu7   O34   S    
C119  H31   S    
C6    H51   S    
C18   H76   S    
Cu8   O18   S    
C20   H81   S    
C113  H15   S    
C19   C20   S    
C10   H62   S    
C12   C14   S    
C111  H10   S    
C56   C102  A    
Cu1   Cu6   S    
C33   O12   A    
C10   H63   S    
C72   H67   S    
C23   H96   S    
C29   O24   A    
Cu3   O38   S    
C97   O41   A    
Cu12  O28   S    
C78   H4    S    
Cu10  O3    S    
C98   O38   A    
C80   C91   A    
Cu1   O9    S    
C48   C101  A    
C97   O37   A    
C25   H93   S    
C7    H48   S    
Cu5   O15   S    
C55   O45   A    
C11   H59   S    
C23   C25   S    
C91   C98   S    
C27   O21   A    
C2    O13   A    
C24   C34   S    
C21   C63   S    
C15   H74   S    
C52   C70   A    
C3    C120  S    
C111  H9    S    
Cu5   O10   S    
Cu3   O39   S    
C94   O29   A    
C92   O27   A    
C21   H91   S    
C26   C35   S    
C50   C103  A    
C88   O3    A    
C54   C72   A    
Cu10  O22   S    
C75   C89   A    
C53   C120  S    
C66   O48   A    
Cu5   Cu7   S    
C41   C45   S    
C18   H75   S    
C75   H2    S    
C19   C62   S    
C58   C106  A    
C37   C46   T    
C16   H72   S    
C120  H41   S    
C50   C68   A    
C59   C76   A    
C25   H92   S    
C65   H1    S    
C69   C86   A    
C26   O18   A    
C76   C90   A    
Cu9   Cu11  S    
C100  O43   A    
C53   C71   A    
