data_mof_unit_33568.cif
_audit_creation_date              2012-12-10T19:15:21-0500
_audit_creation_method            fapswitch 2.2
_symmetry_space_group_name_H-M    P1
_symmetry_Int_Tables_number       1
_space_group_crystal_system       triclinic
_cell_length_a                    10.923543
_cell_length_b                    10.1063
_cell_length_c                    22.880808
_cell_angle_alpha                 88.781254
_cell_angle_beta                  89.231058
_cell_angle_gamma                 92.668301
_cell_volume                      2522.39134306

loop_
_atom_site_label
_atom_site_type_symbol
_atom_type_description
_atom_site_fract_x
_atom_site_fract_y
_atom_site_fract_z
_atom_type_partial_charge
C1    C     C_R   0.258210 0.496899 0.500884 0.918563
C2    C     C_R   0.389295 0.626022 0.122851 0.532986
C3    C     C_R   0.478878 0.425665 0.230627 -0.032659
C4    C     C_R   0.495712 0.501116 0.389712 0.865771
C5    C     C_R   0.517712 0.424469 0.288221 -0.101987
C6    C     C_R   0.461242 0.503676 0.328793 -0.061729
C7    C     C_R   0.362566 0.579521 0.312485 -0.097611
C8    C     C_R   0.320685 0.579049 0.255103 -0.016128
C9    C     C_R   0.381640 0.503345 0.213730 0.176809
C10   C     C_R   0.496350 0.419659 0.773222 0.399685
C11   C     C_R   0.530060 0.417163 0.713816 0.318974
C12   C     C_R   0.226915 0.302284 0.973057 -0.148681
C13   C     C_R   0.470649 0.498055 0.673298 -0.158187
C14   C     C_R   0.378795 0.579932 0.692430 -0.158250
C15   C     C_R   0.343256 0.579435 0.750619 -0.077038
C16   C     C_R   0.741661 0.502937 0.497617 0.926819
C17   C     C_R   0.401700 0.500321 0.791215 0.120970
C18   C     C_3   0.066386 0.531982 0.561674 0.195349
C19   C     C_3   0.059177 0.356175 0.482951 0.223657
C20   C     C_3   0.925867 0.502023 0.561631 0.107189
C21   C     C_3   0.924374 0.376235 0.467281 0.107439
C22   C     C_3   0.081090 0.595395 0.453320 -0.489618
C23   C     C_R   0.224209 0.302585 0.034811 0.419852
C24   C     C_3   0.120338 0.492613 0.500964 -0.206562
C25   C     C_3   0.879232 0.507336 0.496528 -0.323725
C26   C     C_3   0.944513 0.630276 0.461264 -0.169933
C27   C     C_3   0.372325 0.073248 0.509463 0.199407
C28   C     C_3   0.370787 0.912908 0.499150 0.209427
C29   C     C_3   0.548556 0.085707 0.441481 0.593924
C30   C     C_3   0.567382 0.928418 0.445710 0.590942
C31   C     C_3   0.576163 0.080591 0.547453 -0.392982
C32   C     C_3   0.555377 0.922791 0.553224 -0.441805
C33   C     C_R   0.497715 0.498933 0.610605 1.010306
C34   C     C_R   0.282690 0.408621 0.064967 -0.118891
C35   C     C_R   0.404077 0.624341 0.879417 0.596729
C36   C     C_R   0.310058 0.406044 0.880081 0.611323
C37   C     C_R   0.287511 0.409212 0.941041 -0.130198
C38   C     C_R   0.332192 0.522192 0.971130 -0.040938
C39   C     C_R   0.384390 0.634586 0.939812 -0.122714
C40   C     C_2   0.161654 0.191896 0.942708 0.663363
C41   C     C_2   0.945704 0.761386 0.492889 0.554431
C42   C     C_2   0.886501 0.655245 0.402041 0.717187
C43   C     C_2   0.326935 0.107294 0.571636 0.591830
C44   C     C_2   0.289147 0.842917 0.545859 0.397915
C45   C     C_R   0.329377 0.521463 0.032795 -0.052569
C46   C     C_2   0.710673 0.125124 0.546863 0.575482
C47   C     C_2   0.662557 0.853169 0.578583 0.710817
C48   C     C_2   0.213679 0.656335 0.238660 0.577737
C49   C     C_R   0.377693 0.632791 0.062359 -0.066333
C50   C     C_R   0.417077 0.747522 0.031118 -0.141799
C51   C     C_R   0.419831 0.750316 0.970519 0.437416
C52   C     C_R   0.298728 0.406435 0.126283 0.563023
Cl1   Cl    Cl    0.651203 0.319950 0.691615 -0.374364
Cl2   Cl    Cl    0.537941 0.857936 0.375100 -0.350899
Cl3   Cl    Cl    0.684806 0.174547 0.417340 -0.448061
Cl4   Cl    Cl    0.723888 0.891637 0.445970 -0.573845
Cl5   Cl    Cl    0.469032 0.903131 0.937009 -0.376747
Cl6   Cl    Cl    0.575667 0.326937 0.825559 -0.393015
Cl7   Cl    Cl    0.134445 0.454601 0.623742 -0.463848
Cl8   Cl    Cl    0.057445 0.227512 0.539253 -0.404643
Cl9   Cl    Cl    0.847805 0.596711 0.614664 -0.492059
Cl10  Cl    Cl    0.907650 0.368562 0.389036 -0.513781
Cl11  Cl    Cl    0.260086 0.138950 0.462317 -0.344768
Cl12  Cl    Cl    0.295101 0.866090 0.432157 -0.376394
Cl13  Cl    Cl    0.137133 0.174133 0.072857 -0.402126
Cl14  Cl    Cl    0.458072 0.128277 0.378374 -0.341531
H1    H     H_    0.332083 0.642737 0.661988 0.182138
H2    H     H_    0.488642 0.908616 0.590020 0.148550
H3    H     H_    0.448900 0.835434 0.053783 0.233608
H4    H     H_    0.525648 0.367968 0.198633 0.174822
H5    H     H_    0.592700 0.364010 0.300892 0.218611
H6    H     H_    0.316495 0.636414 0.345087 0.215155
H7    H     H_    0.097561 0.213335 0.908327 0.098477
H8    H     H_    0.921300 0.767201 0.538088 0.112240
H9    H     H_    0.792017 0.623402 0.394275 0.068462
H10   H     H_    0.323304 0.035018 0.607283 0.017142
H11   H     H_    0.325935 0.775187 0.577526 0.080609
H12   H     H_    0.271436 0.642592 0.764562 0.196519
H13   H     H_    0.775022 0.086769 0.516213 0.135222
H14   H     H_    0.747480 0.849848 0.555178 0.068995
H15   H     H_    0.176366 0.650084 0.195058 0.064939
H16   H     H_    0.085825 0.639022 0.567870 0.173357
H17   H     H_    0.107569 0.321406 0.443785 0.220960
H18   H     H_    0.906057 0.400252 0.579224 0.264146
H19   H     H_    0.870144 0.288595 0.483947 0.223980
H20   H     H_    0.138317 0.686288 0.454501 0.292445
H21   H     H_    0.099424 0.555782 0.409159 0.230393
H22   H     H_    0.544557 0.120888 0.589619 0.228120
N1    N     N_R   0.370282 0.510479 0.851789 -0.339527
N2    N     N_R   0.353016 0.513021 0.153057 -0.381940
N3    N     N_3   0.499750 0.138610 0.498760 -0.218117
N4    N     N_3   0.499750 0.861390 0.498760 -0.224388
O1    O     O_R   0.314910 0.616040 0.499990 -0.651945
O2    O     O_2   0.276926 0.298478 0.849091 -0.504167
O3    O     O_2   0.264857 0.298314 0.159127 -0.424573
O4    O     O_2   0.440324 0.730015 0.151352 -0.492522
O5    O     O_2   0.180981 0.076619 0.954976 -0.458071
O6    O     O_2   0.985698 0.863602 0.468460 -0.374195
O7    O     O_2   0.943480 0.716240 0.362943 -0.416945
O8    O     O_2   0.304829 0.219631 0.584844 -0.433620
O9    O     O_2   0.180827 0.866586 0.549989 -0.521823
O10   O     O_2   0.751449 0.198113 0.584396 -0.481347
O11   O     O_2   0.657358 0.807994 0.628578 -0.483705
O12   O     O_R   0.314910 0.383960 0.499990 -0.514735
O13   O     O_2   0.165417 0.727810 0.273708 -0.441953
O14   O     O_R   0.500080 0.616070 0.416130 -0.555197
O15   O     O_R   0.500080 0.383930 0.416130 -0.540404
O16   O     O_R   0.685320 0.616040 0.499970 -0.619413
O17   O     O_R   0.685320 0.383960 0.499970 -0.574926
O18   O     O_R   0.500150 0.616010 0.583820 -0.633055
O19   O     O_R   0.500150 0.383990 0.583820 -0.557259
O20   O     O_2   0.461313 0.724370 0.848312 -0.436374
Zn1   Zn    Zn3+2 0.500150 0.654960 0.499970 1.016247
Zn2   Zn    Zn3+2 0.500150 0.345040 0.499970 1.106159

loop_
_geom_bond_atom_site_label_1
_geom_bond_atom_site_label_2
_ccdc_geom_bond_type
C36   N1    A    
C39   C51   A    
C52   N2    A    
C7    C8    A    
C32   N4    S    
C48   H15   S    
C30   Cl2   S    
C12   C23   A    
C42   H9    S    
C37   C38   A    
C18   C24   S    
C36   C37   A    
C10   Cl6   S    
C50   H3    S    
C46   H13   S    
C15   H12   S    
C20   C25   S    
C10   C17   A    
C16   C25   S    
C40   H7    S    
C52   O3    S    
C20   Cl9   S    
C2    N2    A    
C38   C45   A    
C41   H8    S    
C48   O13   D    
C8    C9    A    
C31   C46   S    
C14   H1    S    
C27   N3    S    
C51   Cl5   S    
N4    Zn1   S    
C11   Cl1   S    
C32   H2    S    
C13   C14   A    
C47   H14   S    
C19   H17   S    
C16   O17   A    
C38   C39   A    
C4    O15   A    
C21   H19   S    
C47   O11   D    
O14   Zn1   S    
C3    H4    S    
C17   N1    S    
C43   O8    D    
C30   N4    S    
C7    H6    S    
C29   Cl3   S    
C25   C26   S    
C30   Cl4   S    
C28   C44   S    
C1    O1    A    
O16   Zn1   S    
C12   C40   S    
C35   C39   A    
C8    C48   S    
O15   Zn2   S    
C13   C33   S    
C29   C30   S    
C3    C9    A    
C2    C49   A    
C36   O2    S    
C46   O10   D    
C31   C32   S    
C1    O12   A    
C45   C49   A    
C23   C34   A    
C50   C51   A    
C28   N4    S    
C34   C45   A    
O1    Zn1   S    
C22   H21   S    
O18   Zn1   S    
C21   Cl10  S    
O12   Zn2   S    
C27   Cl11  S    
O17   Zn2   S    
C33   O19   A    
C28   Cl12  S    
C4    C6    S    
C31   N3    S    
C20   H18   S    
C22   C26   S    
C32   C47   S    
C22   C24   S    
C35   N1    A    
C29   N3    S    
C26   C42   S    
C43   H10   S    
C15   C17   A    
C21   C25   S    
C44   H11   S    
C31   H22   S    
C19   C21   S    
C14   C15   A    
C3    C5    A    
C9    N2    S    
C44   O9    D    
C6    C7    A    
C19   Cl8   S    
C34   C52   A    
N3    Zn2   S    
C23   Cl13  S    
C2    O4    S    
C19   C24   S    
C40   O5    D    
C42   O7    D    
C11   C13   A    
C5    C6    A    
C4    O14   A    
C18   H16   S    
O19   Zn2   S    
C18   C20   S    
C22   H20   S    
C10   C11   A    
C16   O16   A    
C29   Cl14  S    
C27   C43   S    
C18   Cl7   S    
C1    C24   S    
C5    H5    S    
C49   C50   A    
C12   C37   A    
C27   C28   S    
C41   O6    D    
C33   O18   A    
C35   O20   S    
C26   C41   S    
