data_mof_unit_53125.cif
_audit_creation_date              2012-12-10T17:42:40-0500
_audit_creation_method            fapswitch 2.2
_symmetry_space_group_name_H-M    P1
_symmetry_Int_Tables_number       1
_space_group_crystal_system       triclinic
_cell_length_a                    9.961012
_cell_length_b                    10.649227
_cell_length_c                    13.285698
_cell_angle_alpha                 92.031152
_cell_angle_beta                  70.683555
_cell_angle_gamma                 89.649297
_cell_volume                      1328.89894351

loop_
_atom_site_label
_atom_site_type_symbol
_atom_type_description
_atom_site_fract_x
_atom_site_fract_y
_atom_site_fract_z
_atom_type_partial_charge
C1    C     C_R   0.501676 0.739114 0.494952 1.073183
C2    C     C_R   0.443494 0.488354 0.978172 -0.032905
C3    C     C_R   0.474484 0.452086 0.869830 0.006027
C4    C     C_R   0.549737 0.467966 0.025023 -0.015059
C5    C     C_R   0.691326 0.437483 0.961366 0.087636
C6    C     C_R   0.718116 0.394793 0.856400 -0.177911
C7    C     C_R   0.607119 0.391035 0.814766 -0.117382
C8    C     C_R   0.516199 0.466446 0.134309 0.685871
C9    C     C_R   0.766357 0.467070 0.116352 -0.229370
C10   C     C_R   0.375451 0.483823 0.818393 -0.116691
C11   C     C_R   0.480041 0.867423 0.306221 0.526598
C12   C     C_R   0.422044 0.491780 0.702597 0.924627
C13   C     C_R   0.470382 0.933034 0.219627 0.675544
C14   C     C_R   0.472751 0.063415 0.221993 -0.275359
C15   C     C_R   0.484397 0.128930 0.311012 -0.168549
C16   C     C_R   0.492492 0.064390 0.400249 0.028728
C17   C     C_R   0.490977 0.932386 0.398431 -0.209978
C18   C     C_R   0.503450 0.871726 0.488577 -0.212873
C19   C     C_R   0.518824 0.938709 0.576183 0.658241
C20   C     C_R   0.520398 0.067073 0.576957 -0.250818
C21   C     C_R   0.505235 0.128603 0.490975 -0.095129
C22   C     C_R   0.793724 0.664523 0.639824 -0.259174
C23   C     C_R   0.500901 0.260878 0.498957 0.838980
C24   C     C_R   0.825889 0.743603 0.712917 0.511399
C25   C     C_R   0.962035 0.744747 0.716549 0.474495
C26   C     C_R   0.067691 0.667218 0.646886 0.493306
C27   C     C_R   0.039443 0.581934 0.570748 -0.190948
C28   C     C_R   0.895583 0.581478 0.569320 -0.135390
C29   C     C_R   0.958107 0.421149 0.434607 0.575578
C30   C     C_R   0.100623 0.420656 0.435046 0.648940
C31   C     C_R   0.578430 0.492889 0.296755 0.968471
C32   C     C_R   0.800183 0.440514 0.006861 -0.172562
C33   C     C_R   0.622984 0.477135 0.180895 -0.201057
C34   C     C_R   0.239769 0.531125 0.878084 -0.234097
C35   C     C_R   0.208666 0.564991 0.985055 -0.218547
C36   C     C_R   0.311830 0.551585 0.033473 0.778128
H1    H     H_    0.850602 0.471862 0.150987 0.216432
H2    H     H_    0.488576 0.230181 0.308523 0.197694
H3    H     H_    0.822537 0.358720 0.808442 0.150483
H4    H     H_    0.161981 0.552968 0.840145 0.220253
N1    N     N_R   0.856860 0.501200 0.500990 -0.159589
N2    N     N_R   0.142450 0.501280 0.501020 -0.157513
O1    O     O_R   0.385310 0.683220 0.500000 -0.505169
O2    O     O_R   0.614640 0.683250 0.500010 -0.637434
O3    O     O_R   0.328400 0.499950 0.653610 -0.561324
O4    O     O_R   0.557730 0.499970 0.653620 -0.659459
O5    O     O_R   0.385360 0.316750 0.499990 -0.597341
O6    O     O_R   0.614690 0.316780 0.500000 -0.587692
O7    O     O_R   0.442270 0.500030 0.346380 -0.477553
O8    O     O_R   0.671600 0.500050 0.346390 -0.599301
Zn1   Zn    Zn3+2 0.346880 0.499980 0.499990 1.119602
Zn2   Zn    Zn3+2 0.653120 0.500020 0.500010 1.022555
F1    F     F_    0.480626 0.740988 0.297166 -0.645301
F2    F     F_    0.460293 0.869408 0.132200 -0.560060
H5    H     H_    0.466610 0.114087 0.154361 0.220829
H6    H     H_    0.530177 0.119051 0.645853 0.170721
F3    F     F_    0.921561 0.340165 0.367432 -0.605175
H7    H     H_    0.687021 0.671913 0.641840 0.289822
F4    F     F_    0.723689 0.820085 0.780632 -0.534071
F5    F     F_    0.993296 0.823065 0.788269 -0.559271
F6    F     F_    0.193894 0.681568 0.659469 -0.595670
F7    F     F_    0.196085 0.336970 0.370189 -0.574589
H8    H     H_    0.909996 0.421649 0.958310 0.161469
F8    F     F_    0.381857 0.434668 0.193207 -0.583971
F9    F     F_    0.286556 0.612076 0.129831 -0.564446
H9    H     H_    0.107777 0.610970 0.028461 0.194853
H10   H     H_    0.628482 0.343204 0.737802 0.168894
F10   F     F_    0.527920 0.879347 0.662624 -0.610631

loop_
_geom_bond_atom_site_label_1
_geom_bond_atom_site_label_2
_ccdc_geom_bond_type
C22   H7    S    
O8    Zn2   S    
C31   C33   S    
C15   H2    S    
C29   C30   A    
C25   F5    S    
N1    Zn2   S    
C2    C4    A    
C19   C20   A    
C9    C32   A    
C4    C8    A    
N2    Zn1   S    
C20   H6    S    
C5    C32   A    
O2    Zn2   S    
C9    H1    S    
C14   H5    S    
C1    C18   S    
C19   F10   S    
C10   C34   A    
C3    C10   A    
C22   C28   A    
C13   C14   A    
C24   C25   A    
C9    C33   A    
C11   C13   A    
C27   N2    A    
O1    Zn1   S    
C26   C27   A    
C6    C7    A    
C10   C12   S    
C31   O7    A    
C24   F4    S    
C34   H4    S    
C12   O4    A    
C26   F6    S    
C29   F3    S    
C2    C3    A    
C3    C7    A    
C8    C33   A    
C21   C23   S    
C30   F7    S    
C5    C6    A    
C34   C35   A    
C22   C24   A    
C23   O5    A    
O3    Zn1   S    
C31   O8    A    
C7    H10   S    
C15   C16   A    
C8    F8    S    
C16   C17   A    
O4    Zn2   S    
C28   N1    A    
O6    Zn2   S    
C18   C19   A    
C20   C21   A    
C32   H8    S    
C17   C18   A    
C13   F2    S    
C2    C36   A    
C27   C28   A    
C36   F9    S    
C4    C5    A    
O5    Zn1   S    
C23   O6    A    
C1    O2    A    
C35   H9    S    
C29   N1    A    
C25   C26   A    
C6    H3    S    
C16   C21   A    
C1    O1    A    
C11   C17   A    
C14   C15   A    
C30   N2    A    
C12   O3    A    
O7    Zn1   S    
C35   C36   A    
C11   F1    S    
