data_mof_unit_42624.cif
_audit_creation_date              2012-12-10T17:01:35-0500
_audit_creation_method            fapswitch 2.2
_symmetry_space_group_name_H-M    P1
_symmetry_Int_Tables_number       1
_space_group_crystal_system       triclinic
_cell_length_a                    9.886322
_cell_length_b                    11.064191
_cell_length_c                    12.996224
_cell_angle_alpha                 90.411352
_cell_angle_beta                  75.213813
_cell_angle_gamma                 111.97115
_cell_volume                      1268.48165317

loop_
_atom_site_label
_atom_site_type_symbol
_atom_type_description
_atom_site_fract_x
_atom_site_fract_y
_atom_site_fract_z
_atom_type_partial_charge
C1    C     C_R   0.438338 0.253357 0.507134 0.774948
C2    C     C_R   0.561856 0.746553 0.491874 0.820032
C3    C     C_2   0.082687 0.508642 0.490128 0.003692
C4    C     C_2   0.916653 0.485775 0.505047 0.029400
C5    C     C_R   0.472774 0.495271 0.702817 0.820967
C6    C     C_R   0.526704 0.502932 0.297269 0.817485
C7    C     C_R   0.540783 0.499659 0.183177 -0.129162
C8    C     C_R   0.456352 0.491331 0.817370 -0.092878
C9    C     C_R   0.306664 0.486900 0.997880 0.262967
C10   C     C_R   0.685315 0.490100 0.004259 0.270024
C11   C     C_R   0.322016 0.488259 0.888341 -0.259154
C12   C     C_R   0.672428 0.496098 0.113077 -0.215709
C13   C     C_R   0.575788 0.490741 0.855572 -0.276869
C14   C     C_R   0.420019 0.496295 0.144876 -0.257233
C15   C     C_R   0.563969 0.488975 0.964808 0.049493
C16   C     C_R   0.428980 0.489849 0.036435 0.100937
C17   C     C_2   0.401398 0.112282 0.511197 0.088813
C18   C     C_2   0.599716 0.887209 0.489979 0.079729
C19   C     C_2   0.515327 0.070269 0.494547 -0.191233
C20   C     C_2   0.489404 0.931626 0.494350 -0.211142
Cu1   Cu    Cu3+1 0.647370 0.522180 0.481340 0.944189
Cu2   Cu    Cu3+1 0.352630 0.477820 0.518660 0.957458
H1    H     H_    0.319266 0.500032 0.200009 0.191641
H2    H     H_    0.678677 0.493783 0.799062 0.166105
H3    H     H_    0.765148 0.495628 0.142795 0.166196
H4    H     H_    0.228529 0.487273 0.858916 0.168988
H5    H     H_    0.376070 0.863048 0.496414 0.202770
H6    H     H_    0.631166 0.140794 0.478656 0.161201
H7    H     H_    0.831465 0.402653 0.559011 0.119038
H8    H     H_    0.166133 0.575654 0.423104 0.158344
N1    N     N_2   0.131210 0.444490 0.546730 -0.077692
N2    N     N_2   0.868790 0.555510 0.453270 -0.080143
O1    O     O_R   0.578710 0.332530 0.490040 -0.606065
O2    O     O_R   0.421290 0.667470 0.509960 -0.608915
O3    O     O_R   0.329810 0.295070 0.521560 -0.565671
O4    O     O_R   0.670190 0.704930 0.478440 -0.562924
O5    O     O_R   0.604230 0.515670 0.637800 -0.594727
O6    O     O_R   0.395770 0.484330 0.362200 -0.597341
O7    O     O_R   0.355330 0.478200 0.669330 -0.552887
O8    O     O_R   0.644670 0.521800 0.330670 -0.581535
N3    N     N_2   0.169318 0.485382 0.068247 -0.456816
H9    H     H_    0.120189 0.538007 0.036367 0.264299
C21   C     C_3   0.060997 0.355921 0.114136 -0.713790
H10   H     H_    0.960959 0.363930 0.171762 0.229061
H11   H     H_    0.111905 0.306128 0.157678 0.234660
H12   H     H_    0.022557 0.296066 0.050309 0.237767
N4    N     N_2   0.819548 0.481755 0.937308 -0.438752
H13   H     H_    0.803030 0.415968 0.880724 0.242584
C22   C     C_3   0.942054 0.606809 0.896660 -0.729768
H14   H     H_    0.043727 0.590899 0.849655 0.227781
H15   H     H_    0.971582 0.664290 0.963829 0.234348
H16   H     H_    0.909370 0.663141 0.843800 0.230367
N5    N     N_2   0.750319 0.971303 0.489396 -0.423280
H17   H     H_    0.758433 0.044222 0.540028 0.248353
C23   C     C_3   0.855296 0.015300 0.384200 -0.693213
H18   H     H_    0.821384 0.078727 0.338863 0.224490
H19   H     H_    0.858747 0.930202 0.339275 0.236806
H20   H     H_    0.970846 0.072556 0.392004 0.217243
N6    N     N_2   0.247466 0.022876 0.530357 -0.423038
H21   H     H_    0.183092 0.056864 0.496546 0.257928
C24   C     C_3   0.172886 0.972482 0.641228 -0.686761
H22   H     H_    0.056671 0.899525 0.648271 0.231025
H23   H     H_    0.164837 0.053350 0.690462 0.219708
H24   H     H_    0.235970 0.923254 0.672275 0.238036
N7    N     N_2   0.976922 0.669862 0.395364 -0.341696
H25   H     H_    0.944257 0.748039 0.407872 0.288458
C25   C     C_3   0.027027 0.656705 0.282750 -0.658329
H26   H     H_    0.124594 0.747481 0.243276 0.207337
H27   H     H_    0.934387 0.641262 0.244476 0.234181
H28   H     H_    0.063898 0.573164 0.271151 0.235168
N8    N     N_2   0.037188 0.383149 0.645687 -0.310489
H29   H     H_    0.963042 0.424048 0.686100 0.218843
C26   C     C_3   0.979072 0.241725 0.653246 -0.594299
H30   H     H_    0.007141 0.204957 0.720940 0.215447
H31   H     H_    0.028225 0.205544 0.578668 0.236416
H32   H     H_    0.853930 0.202019 0.668208 0.166790

loop_
_geom_bond_atom_site_label_1
_geom_bond_atom_site_label_2
_ccdc_geom_bond_type
C14   H1    S    
C24   H24   S    
C21   H10   S    
C6    O6    A    
C8    C13   A    
Cu2   O3    S    
C20   H5    S    
C5    O5    A    
C2    C18   S    
N3    C21   S    
C26   H30   S    
C9    N3    S    
C19   C20   S    
C11   H4    S    
C13   C15   A    
C12   H3    S    
C23   H18   S    
C22   H16   S    
C25   H28   S    
N5    C23   S    
C1    O1    A    
N6    H21   S    
N4    C22   S    
Cu1   O4    S    
Cu1   Cu2   S    
C3    N1    D    
C19   H6    S    
C9    C11   A    
C2    O2    A    
C4    N2    D    
Cu1   O8    S    
C10   C12   A    
C17   N6    S    
C8    C11   A    
Cu2   O7    S    
C3    H8    S    
N1    N8    S    
C17   C19   D    
C9    C16   A    
N7    H25   S    
C6    C7    S    
C18   C20   D    
C10   C15   A    
C23   H19   S    
C7    C12   A    
Cu2   O2    S    
C21   H12   S    
C14   C16   A    
N6    C24   S    
C5    C8    S    
Cu1   O1    S    
Cu2   N1    S    
C26   H31   S    
C25   H27   S    
C25   H26   S    
Cu2   O6    S    
Cu1   N2    S    
N8    H29   S    
C6    O8    A    
Cu1   O5    S    
C26   H32   S    
C1    O3    A    
C24   H23   S    
C22   H14   S    
N3    H9    S    
C23   H20   S    
C2    O4    A    
C10   N4    S    
N8    C26   S    
C5    O7    A    
N2    N7    S    
C18   N5    S    
N7    C25   S    
N4    H13   S    
N5    H17   S    
C1    C17   S    
C21   H11   S    
C15   C16   A    
C7    C14   A    
C3    C4    S    
C13   H2    S    
C4    H7    S    
C22   H15   S    
C24   H22   S    
