data_mof_unit_47884.cif
_audit_creation_date              2012-12-10T17:40:26-0500
_audit_creation_method            fapswitch 2.2
_symmetry_space_group_name_H-M    P1
_symmetry_Int_Tables_number       1
_space_group_crystal_system       triclinic
_cell_length_a                    13.892809
_cell_length_b                    15.045386
_cell_length_c                    15.852441
_cell_angle_alpha                 87.717851
_cell_angle_beta                  70.927674
_cell_angle_gamma                 91.742367
_cell_volume                      3125.83738445

loop_
_atom_site_label
_atom_site_type_symbol
_atom_type_description
_atom_site_fract_x
_atom_site_fract_y
_atom_site_fract_z
_atom_type_partial_charge
C1    C     C_R   0.501371 0.671135 0.499288 0.830033
C2    C     C_R   0.499115 0.328880 0.499848 0.823293
C3    C     C_R   0.373503 0.475921 0.095774 -0.220232
C4    C     C_R   0.616502 0.456018 0.910479 -0.218376
C5    C     C_R   0.303465 0.472987 0.050492 -0.124622
C6    C     C_R   0.684491 0.444819 0.956852 -0.124571
C7    C     C_R   0.563201 0.186510 0.536382 -0.139931
C8    C     C_R   0.438994 0.813469 0.460390 -0.137978
C9    C     C_R   0.498724 0.232055 0.499575 -0.081919
C10   C     C_R   0.504300 0.768048 0.496277 -0.082843
C11   C     C_R   0.437898 0.185568 0.460012 -0.114548
C12   C     C_R   0.570632 0.814895 0.530021 -0.150880
C13   C     C_R   0.438311 0.093062 0.459582 0.038113
C14   C     C_R   0.569996 0.907411 0.530653 0.071453
C15   C     C_R   0.503146 0.046750 0.496642 0.019870
C16   C     C_R   0.503718 0.953599 0.495144 0.020345
C17   C     C_R   0.567389 0.093705 0.534906 0.003206
C18   C     C_R   0.437948 0.906532 0.458510 -0.018710
C19   C     C_R   0.374754 0.046722 0.422247 -0.213296
C20   C     C_R   0.634258 0.953851 0.567199 -0.257157
C21   C     C_R   0.373036 0.953880 0.421694 0.420202
C22   C     C_R   0.633595 0.046497 0.570335 0.372607
C23   C     C_R   0.438413 0.499166 0.671692 0.843932
C24   C     C_R   0.561184 0.496851 0.328667 0.855172
C25   C     C_R   0.233555 0.544189 0.432396 -0.021484
C26   C     C_R   0.766480 0.462718 0.571224 -0.039323
C27   C     C_R   0.177315 0.452632 0.567048 0.467354
C28   C     C_R   0.823466 0.544192 0.429740 0.520117
C29   C     C_R   0.073311 0.467045 0.575673 -0.088220
C30   C     C_R   0.927683 0.538223 0.426397 -0.079647
C31   C     C_R   0.051517 0.504701 0.502348 0.075368
C32   C     C_R   0.948708 0.503166 0.501190 0.052618
C33   C     C_R   0.132830 0.541614 0.429162 0.011375
C34   C     C_R   0.867510 0.467043 0.574923 0.000894
C35   C     C_R   0.990083 0.439806 0.652638 -0.074673
C36   C     C_R   0.012410 0.569511 0.351114 -0.054281
C37   C     C_R   0.889185 0.437630 0.651571 -0.122974
C38   C     C_R   0.112106 0.573461 0.353556 -0.178327
C39   C     C_R   0.402802 0.492246 0.769608 -0.100327
C40   C     C_R   0.594300 0.483435 0.232583 -0.102109
C41   C     C_R   0.265141 0.468357 0.910035 0.366294
C42   C     C_R   0.722086 0.439387 0.098028 0.361229
C43   C     C_R   0.299366 0.479407 0.817176 -0.216852
C44   C     C_R   0.690852 0.453409 0.189177 -0.223962
C45   C     C_R   0.473304 0.492475 0.815239 -0.239463
C46   C     C_R   0.525427 0.493516 0.185919 -0.228779
C47   C     C_R   0.441824 0.479238 0.908730 0.052301
C48   C     C_R   0.551642 0.473638 0.095566 0.045960
C49   C     C_R   0.335786 0.473446 0.957029 0.030330
C50   C     C_R   0.653725 0.452435 0.049595 0.032128
C51   C     C_R   0.513210 0.471830 0.955221 0.103889
C52   C     C_R   0.479236 0.475442 0.049671 0.100284
Cu1   Cu    Cu3+1 0.402580 0.500010 0.499990 1.029475
Cu2   Cu    Cu3+1 0.597420 0.499990 0.500010 1.030377
H1    H     H_    0.223653 0.472100 0.090108 0.207665
H2    H     H_    0.761700 0.430880 0.918109 0.207549
H3    H     H_    0.294741 0.577394 0.378275 0.153155
H4    H     H_    0.705418 0.431887 0.627060 0.156326
H5    H     H_    0.002197 0.421670 0.714884 0.174883
H6    H     H_    0.004360 0.591355 0.288365 0.221545
H7    H     H_    0.828060 0.413572 0.711145 0.145161
H8    H     H_    0.173444 0.599734 0.295116 0.155071
H9    H     H_    0.452222 0.519171 0.220870 0.159013
H10   H     H_    0.552531 0.505634 0.776679 0.157193
H11   H     H_    0.741904 0.440962 0.226723 0.221596
H12   H     H_    0.245297 0.477081 0.781346 0.188152
H13   H     H_    0.341953 0.473035 0.167741 0.148124
H14   H     H_    0.646072 0.446263 0.839748 0.140984
H15   H     H_    0.609618 0.224671 0.566148 0.215028
H16   H     H_    0.389824 0.775053 0.433604 0.214375
H17   H     H_    0.391820 0.221496 0.427921 0.181994
H18   H     H_    0.620917 0.779133 0.557817 0.159917
H19   H     H_    0.325591 0.083438 0.394101 0.216660
H20   H     H_    0.684756 0.917252 0.593863 0.186074
N1    N     N_R   0.256170 0.500070 0.500040 -0.234631
N2    N     N_R   0.743830 0.499930 0.499960 -0.246832
O1    O     O_R   0.417730 0.629750 0.499970 -0.596427
O2    O     O_R   0.582270 0.370250 0.500030 -0.594391
O3    O     O_R   0.582270 0.629730 0.499980 -0.533939
O4    O     O_R   0.417730 0.370270 0.500020 -0.504830
O5    O     O_R   0.371590 0.500020 0.629830 -0.554564
O6    O     O_R   0.628410 0.499980 0.370170 -0.522725
O7    O     O_R   0.536130 0.499990 0.629840 -0.612914
O8    O     O_R   0.463870 0.500010 0.370160 -0.613731
S1    S     S_3+6 0.198954 0.345960 0.611167 0.050030
O9    O     O_2   0.239629 0.288620 0.533233 -0.250209
O10   O     O_2   0.274062 0.351165 0.660718 -0.303675
O11   O     O_3   0.092598 0.291254 0.679091 -0.483896
H21   H     H_    0.096321 0.294412 0.740266 0.388723
S2    S     S_3+6 0.807516 0.621293 0.344555 0.016090
O12   O     O_2   0.704370 0.653635 0.353552 -0.253161
O13   O     O_2   0.874304 0.703210 0.339979 -0.290047
O14   O     O_3   0.850503 0.573340 0.246022 -0.599543
H22   H     H_    0.858026 0.622102 0.200145 0.393589
S3    S     S_3+6 0.134402 0.442733 0.963422 0.064911
O15   O     O_2   0.120456 0.365681 0.030274 -0.196521
O16   O     O_2   0.086382 0.522864 0.010940 -0.288726
O17   O     O_3   0.078809 0.414350 0.887925 -0.451883
H23   H     H_    0.071239 0.471184 0.857444 0.347227
S4    S     S_3+6 0.848707 0.410348 0.046606 0.078345
O18   O     O_2   0.851762 0.329345 0.993434 -0.209973
O19   O     O_2   0.902217 0.487856 0.984788 -0.270579
O20   O     O_3   0.906670 0.388871 0.122776 -0.431207
H24   H     H_    0.927390 0.447854 0.138256 0.393958
S5    S     S_3+6 0.288723 0.900180 0.374444 0.019917
O21   O     O_2   0.349156 0.847205 0.298046 -0.291299
O22   O     O_2   0.214894 0.838491 0.444409 -0.277309
O23   O     O_3   0.223172 0.975201 0.336551 -0.493310
H25   H     H_    0.178188 0.939375 0.312334 0.399282
S6    S     S_3+6 0.717138 0.100253 0.618411 0.041842
O24   O     O_2   0.788759 0.164604 0.549881 -0.221447
O25   O     O_2   0.656331 0.150948 0.696573 -0.294475
O26   O     O_3   0.786253 0.026188 0.653253 -0.461272
H26   H     H_    0.739267 0.999179 0.710468 0.356405

loop_
_geom_bond_atom_site_label_1
_geom_bond_atom_site_label_2
_ccdc_geom_bond_type
C42   C44   A    
O14   H22   S    
C27   C29   A    
C34   C37   A    
C1    O1    A    
S3    O15   D    
S3    O17   S    
C47   C49   A    
Cu1   Cu2   S    
C40   C46   A    
S5    O22   D    
C23   O7    A    
Cu1   O8    S    
C35   H5    S    
C35   C37   A    
O26   H26   S    
C11   H17   S    
C15   C16   A    
C18   C21   A    
O23   H25   S    
Cu1   O5    S    
C27   S1    S    
C24   O6    A    
S6    O24   D    
C26   C34   A    
C47   C51   A    
C22   S6    S    
C26   N2    A    
C31   C33   A    
C39   C45   A    
C48   C50   A    
C12   H18   S    
C41   C43   A    
C5    C49   A    
C44   H11   S    
Cu1   N1    S    
C25   H3    S    
C27   N1    A    
C41   C49   A    
Cu2   O7    S    
C45   C47   A    
S5    O23   S    
C46   C48   A    
C13   C19   A    
S1    O10   D    
C51   C52   A    
C14   C20   A    
C19   H19   S    
Cu1   O4    S    
C4    C6    A    
C4    H14   S    
C39   C43   A    
C4    C51   A    
C36   H6    S    
S1    O9    D    
S4    O20   S    
C8    C18   A    
C25   N1    A    
C32   C34   A    
Cu1   O1    S    
C2    O2    A    
C42   S4    S    
C26   H4    S    
S2    O13   D    
C31   C32   A    
C40   C44   A    
S4    O19   D    
C20   H20   S    
C6    C50   A    
C9    C11   A    
S6    O26   S    
C10   C12   A    
C42   C50   A    
Cu2   N2    S    
C16   C18   A    
C12   C14   A    
C13   C15   A    
C1    O3    A    
C14   C16   A    
C20   C22   A    
C28   N2    A    
Cu2   O6    S    
S2    O14   S    
Cu2   O3    S    
S1    O11   S    
C15   C17   A    
C23   O5    A    
C19   C21   A    
C5    H1    S    
C3    H13   S    
C1    C10   S    
C33   C38   A    
C6    H2    S    
C3    C5    A    
C7    C17   A    
C7    H15   S    
C37   H7    S    
C3    C52   A    
S3    O16   D    
S5    O21   D    
C29   C35   A    
C45   H10   S    
C8    H16   S    
C17   C22   A    
C30   C36   A    
C46   H9    S    
C28   C30   A    
C24   O8    A    
C29   C31   A    
C30   C32   A    
C11   C13   A    
S2    O12   D    
C41   S3    S    
C43   H12   S    
C23   C39   S    
C36   C38   A    
S4    O18   D    
C24   C40   S    
S6    O25   D    
C2    O4    A    
C7    C9    A    
C48   C52   A    
O11   H21   S    
C8    C10   A    
O17   H23   S    
O20   H24   S    
C28   S2    S    
C38   H8    S    
C2    C9    S    
C21   S5    S    
C25   C33   A    
Cu2   O2    S    
