data_mof_unit_23069.cif
_audit_creation_date              2013-03-05T16:12:27-0500
_audit_creation_method            fapswitch 2.2
_symmetry_space_group_name_H-M    P1
_symmetry_Int_Tables_number       1
_space_group_crystal_system       triclinic
_cell_length_a                    10.880321
_cell_length_b                    9.798871
_cell_length_c                    23.417057
_cell_angle_alpha                 90.010987
_cell_angle_beta                  90.268917
_cell_angle_gamma                 89.996534
_cell_volume                      2496.57874964

loop_
_atom_site_label
_atom_site_type_symbol
_atom_site_description
_atom_site_fract_x
_atom_site_fract_y
_atom_site_fract_z
_atom_type_partial_charge
O1    O     O_R   0.316770 0.614620 0.500000 -0.612309
O2    O     O_R   0.683230 0.385380 0.500000 -0.631895
O3    O     O_R   0.683230 0.614620 0.500000 -0.612275
O4    O     O_R   0.316770 0.385380 0.500000 -0.631929
C1    C     C_R   0.259639 0.498108 0.503677 0.889024
C2    C     C_R   0.740354 0.498096 0.496310 0.889034
O5    O     O_R   0.499970 0.614690 0.416160 -0.626156
O6    O     O_R   0.500030 0.385310 0.583840 -0.637503
O7    O     O_R   0.500030 0.614690 0.583840 -0.626235
O8    O     O_R   0.499970 0.385310 0.416160 -0.637609
C3    C     C_R   0.500612 0.500014 0.389234 0.903003
C4    C     C_R   0.499381 0.500046 0.610772 0.902908
Zn1   Zn    Zn3+2 0.500000 0.653120 0.500000 0.942901
Zn2   Zn    Zn3+2 0.500000 0.346880 0.500000 0.923729
C5    C     C_R   0.606010 0.511536 0.879981 0.558188
C6    C     C_R   0.393785 0.490967 0.119887 0.545271
N1    N     N_R   0.495608 0.501502 0.852274 -0.340540
N2    N     N_R   0.504184 0.501023 0.147640 -0.341015
C7    C     C_R   0.386822 0.491475 0.880832 0.563831
C8    C     C_R   0.612965 0.511159 0.119038 0.577119
C9    C     C_R   0.386133 0.491228 0.940461 -0.025358
C10   C     C_R   0.613622 0.511650 0.059408 -0.028674
C11   C     C_R   0.499009 0.501475 0.969941 -0.015107
C12   C     C_R   0.500766 0.501347 0.029927 -0.015597
C13   C     C_R   0.610139 0.511792 0.939577 -0.025064
C14   C     C_R   0.389663 0.490864 0.060290 -0.022411
C15   C     C_R   0.275965 0.480954 0.971101 -0.142551
C16   C     C_R   0.723799 0.521926 0.028765 -0.141812
C17   C     C_R   0.277716 0.480763 0.030543 -0.141921
C18   C     C_R   0.722071 0.521987 0.969322 -0.141776
O9    O     O_2   0.711028 0.521284 0.849787 -0.537744
O10   O     O_2   0.288665 0.481703 0.150034 -0.540034
O11   O     O_2   0.280136 0.481705 0.851462 -0.538512
O12   O     O_2   0.719766 0.520189 0.148362 -0.534474
H1    H     H_    0.188229 0.473000 0.949301 0.194219
H2    H     H_    0.811534 0.529917 0.050563 0.194466
H3    H     H_    0.191266 0.472670 0.053045 0.194769
H4    H     H_    0.808523 0.530016 0.946818 0.194998
C19   C     C_R   0.489984 0.377912 0.237623 -0.182837
C20   C     C_R   0.506911 0.377835 0.762411 -0.186593
H5    H     H_    0.478275 0.283246 0.214350 0.177664
H6    H     H_    0.516402 0.282948 0.785725 0.175958
C21   C     C_R   0.488756 0.377354 0.296869 -0.212858
C22   C     C_R   0.508256 0.377154 0.703160 -0.211392
H7    H     H_    0.475851 0.281304 0.318928 0.170724
H8    H     H_    0.518872 0.280715 0.681115 0.170685
C23   C     C_R   0.502918 0.500166 0.327040 -0.129628
C24   C     C_R   0.497029 0.500313 0.672975 -0.129938
C25   C     C_R   0.519502 0.623186 0.297326 -0.318854
C26   C     C_R   0.483264 0.623821 0.702694 -0.316812
H9    H     H_    0.531363 0.718926 0.319808 0.178546
H10   H     H_    0.473663 0.719864 0.680226 0.178654
C27   C     C_R   0.520904 0.623424 0.238059 0.703056
C28   C     C_R   0.481830 0.624150 0.761961 0.701240
C29   C     C_R   0.505708 0.500788 0.208330 0.191169
C30   C     C_R   0.494104 0.501175 0.791640 0.196751
C31   C     C_R   0.064359 0.360424 0.503335 0.049015
C32   C     C_R   0.940586 0.611976 0.489084 0.059138
C33   C     C_R   0.935644 0.360413 0.496621 0.048929
C34   C     C_R   0.059374 0.612021 0.510788 0.059014
C35   C     C_R   0.873543 0.489440 0.492072 -0.154427
C36   C     C_R   0.126441 0.489470 0.507871 -0.154400
C37   C     C_R   0.474832 0.072025 0.548792 -0.092198
C38   C     C_R   0.524521 0.927956 0.451155 -0.103221
C39   C     C_R   0.525145 0.071982 0.451205 -0.092580
C40   C     C_R   0.475467 0.928001 0.548843 -0.103297
H11   H     H_    0.454298 0.126322 0.587763 0.134747
H12   H     H_    0.543658 0.873551 0.412090 0.142901
H13   H     H_    0.545663 0.126245 0.412233 0.134943
H14   H     H_    0.456314 0.873631 0.587905 0.142918
N3    N     N_R   0.500000 0.857200 0.500000 -0.078801
N4    N     N_R   0.500000 0.142800 0.500000 -0.073207
F1    F     F_    0.535730 0.742650 0.209439 -0.651960
F2    F     F_    0.469367 0.743666 0.790633 -0.653477
C41   C     C_3   0.131365 0.221404 0.505990 -0.354639
C42   C     C_3   0.168188 0.173942 0.445420 -0.304290
C43   C     C_3   0.203475 0.023902 0.444428 -0.897941
H15   H     H_    0.270675 0.001066 0.478688 0.276566
H16   H     H_    0.120571 0.961157 0.450928 0.241197
H17   H     H_    0.244107 0.997243 0.402472 0.261975
H18   H     H_    0.090706 0.189339 0.415008 0.207990
H19   H     H_    0.246373 0.234054 0.428726 0.255188
H20   H     H_    0.208581 0.218964 0.536899 0.210563
H21   H     H_    0.076181 0.141624 0.527162 0.185456
C44   C     C_3   0.893667 0.738431 0.457536 -0.422412
C45   C     C_3   0.853716 0.705356 0.396003 -0.321183
C46   C     C_3   0.827213 0.835380 0.362198 -0.846809
H22   H     H_    0.757173 0.898257 0.384265 0.244814
H23   H     H_    0.912581 0.896427 0.357386 0.263611
H24   H     H_    0.792086 0.808300 0.319059 0.274372
H25   H     H_    0.927921 0.647779 0.374112 0.231557
H26   H     H_    0.769648 0.641243 0.395881 0.223004
H27   H     H_    0.819022 0.789853 0.481058 0.232245
H28   H     H_    0.967837 0.814854 0.454178 0.191540
C47   C     C_3   0.868658 0.221389 0.493959 -0.354858
C48   C     C_3   0.831869 0.173938 0.554527 -0.304278
C49   C     C_3   0.796445 0.023941 0.555489 -0.897431
H29   H     H_    0.729243 0.001185 0.521219 0.276498
H30   H     H_    0.879283 0.961086 0.548981 0.241183
H31   H     H_    0.755775 0.997327 0.597437 0.262094
H32   H     H_    0.909397 0.189227 0.584924 0.207968
H33   H     H_    0.753762 0.234142 0.571256 0.255257
H34   H     H_    0.791421 0.218953 0.463062 0.210537
H35   H     H_    0.923845 0.141610 0.472769 0.185428
C50   C     C_3   0.106266 0.738629 0.542250 -0.422405
C51   C     C_3   0.146136 0.705882 0.603820 -0.320778
C52   C     C_3   0.172613 0.836092 0.637522 -0.847091
H36   H     H_    0.242603 0.898887 0.615396 0.245039
H37   H     H_    0.087222 0.897131 0.642303 0.263753
H38   H     H_    0.207791 0.809251 0.680674 0.273176
H39   H     H_    0.071898 0.648449 0.625738 0.231576
H40   H     H_    0.230197 0.641745 0.604017 0.223188
H41   H     H_    0.180938 0.789905 0.518708 0.232282
H42   H     H_    0.032113 0.815096 0.545524 0.191526

loop_
_geom_bond_atom_site_label_1
_geom_bond_atom_site_label_2
_geom_bond_distance
_ccdc_geom_bond_type
C46   H22   1.109449 S    
C48   H33   1.107555 S    
C15   C17   1.391992 A    
C27   C29   1.398097 A    
C3    C23   1.456728 S    
C47   C48   1.547139 S    
C4    C24   1.456946 S    
O3    C2    1.303020 A    
C25   H9    1.083094 S    
C49   H29   1.105797 S    
C31   C36   1.437318 A    
C19   H5    1.083003 S    
C51   H40   1.109688 S    
C43   H15   1.105834 S    
O5    C3    1.288444 A    
C26   C28   1.388018 A    
O1    C1    1.303027 A    
C38   H12   1.079810 S    
C2    C35   1.455456 S    
C50   H41   1.104915 S    
C7    C9    1.396386 A    
C12   C14   1.409082 A    
C45   H25   1.112041 S    
C39   H13   1.080521 S    
C41   H21   1.104736 S    
C5    C13   1.396072 A    
C51   C52   1.526870 S    
C32   C34   1.386576 A    
C18   H4    1.083204 S    
C34   C36   1.406958 A    
C38   N3    1.365056 A    
O7    Zn1   1.999144 S    
C28   F2    1.356930 S    
C44   H27   1.104961 S    
C19   C29   1.396778 A    
C47   H34   1.106595 S    
C20   C30   1.396124 A    
C26   H10   1.083094 S    
C11   C12   1.404732 A    
O3    Zn1   2.028959 S    
C8    O12   1.349880 S    
C32   C35   1.406884 A    
C20   H6    1.082997 S    
C9    C15   1.403521 A    
C37   C40   1.411295 A    
C10   C16   1.403634 A    
C48   H32   1.111304 S    
C52   H37   1.111008 S    
O2    C2    1.270550 A    
C33   C47   1.546131 S    
C49   H30   1.102772 S    
C22   H8    1.083148 S    
C37   H11   1.080508 S    
C51   H39   1.112044 S    
C43   H16   1.102823 S    
C6    C14   1.396090 A    
C28   C30   1.397272 A    
C33   C35   1.437249 A    
C50   H42   1.103971 S    
C42   C43   1.519706 S    
C23   C25   1.404058 A    
O8    Zn2   1.999146 S    
C42   H19   1.107556 S    
C45   C46   1.526858 S    
C19   C21   1.387501 A    
Zn1   N3    1.999754 S    
C15   H1    1.083216 S    
C44   C45   1.537601 S    
C41   C42   1.547133 S    
C44   H28   1.104031 S    
C40   N3    1.365021 A    
C20   C22   1.387635 A    
O6    C4    1.289023 A    
C48   C49   1.519722 S    
C21   H7    1.083165 S    
N1    C30   1.419876 S    
N2    C29   1.421188 S    
C8    C10   1.396399 A    
C9    C11   1.409604 A    
C7    O11   1.349849 S    
C52   H38   1.110511 S    
C10   C12   1.409465 A    
O1    Zn1   2.029005 S    
C52   H36   1.109452 S    
C32   C44   1.529219 S    
C49   H31   1.110371 S    
C47   H35   1.104752 S    
C43   H17   1.110369 S    
C13   C18   1.403688 A    
C5    N1    1.366094 A    
O6    Zn2   1.999002 S    
Zn2   N4    1.999754 S    
C27   F1    1.356984 S    
O4    C1    1.270566 A    
C42   H18   1.111313 S    
C5    O9    1.349922 S    
C6    O10   1.349954 S    
C39   N4    1.365516 A    
C50   C51   1.537570 S    
C38   C39   1.411303 A    
C31   C41   1.546148 S    
C16   C18   1.392024 A    
C45   H26   1.109679 S    
C41   H20   1.106599 S    
C40   H14   1.079807 S    
C25   C27   1.388019 A    
C24   C26   1.404305 A    
N1    C7    1.365765 A    
C1    C36   1.455492 S    
N2    C8    1.366312 A    
C11   C13   1.409227 A    
O4    Zn2   2.028960 S    
O2    Zn2   2.029003 S    
O7    C4    1.288452 A    
C31   C33   1.408523 A    
O8    C3    1.288892 A    
O5    Zn1   1.999004 S    
C37   N4    1.365536 A    
C16   H2    1.083214 S    
C14   C17   1.403796 A    
C6    N2    1.366592 A    
C46   H24   1.110514 S    
C17   H3    1.083207 S    
C46   H23   1.111004 S    
C21   C23   1.403492 A    
C34   C50   1.529190 S    
C22   C24   1.403735 A    
