data_mof_unit_10304.cif
_audit_creation_date              2013-03-05T16:18:14-0500
_audit_creation_method            fapswitch 2.2
_symmetry_space_group_name_H-M    P1
_symmetry_Int_Tables_number       1
_space_group_crystal_system       triclinic
_cell_length_a                    8.349489
_cell_length_b                    19.043093
_cell_length_c                    22.747178
_cell_angle_alpha                 99.103902
_cell_angle_beta                  89.771362
_cell_angle_gamma                 91.422825
_cell_volume                      3570.14162078

loop_
_atom_site_label
_atom_site_type_symbol
_atom_site_description
_atom_site_fract_x
_atom_site_fract_y
_atom_site_fract_z
_atom_type_partial_charge
P1    P     P_3+3 0.933470 0.664380 0.557030 0.505961
O1    O     O_2   0.108070 0.674980 0.540650 -0.337043
O2    O     O_3   0.861930 0.586170 0.535430 -0.405110
O3    O     O_3   0.366390 0.628250 0.433820 -0.336476
O4    O     O_2   0.275100 0.762132 0.438249 -0.446789
O5    O     O_3   0.935219 0.680926 0.634861 -0.554407
O6    O     O_3   0.458332 0.711757 0.343723 -0.620104
H1    H     H_    0.211830 0.717055 0.337055 0.132536
C1    C     C_3   0.327451 0.803983 0.301165 -0.948967
H2    H     H_    0.219447 0.815376 0.275906 0.278759
H3    H     H_    0.331748 0.841190 0.344232 0.260700
P2    P     P_3+3 0.383600 0.440030 0.365120 0.489958
P3    P     P_3+3 0.942180 0.582872 0.324502 0.484578
O7    O     O_2   0.211060 0.461230 0.357810 -0.356056
O8    O     O_3   0.958150 0.591500 0.402390 -0.373146
O9    O     O_2   0.086550 0.540561 0.296563 -0.344465
O10   O     O_3   0.375342 0.347263 0.346576 -0.543588
O11   O     O_3   0.976432 0.666062 0.303469 -0.529938
C2    C     C_3   0.851421 0.712733 0.320783 0.690465
H4    H     H_    0.766762 0.693978 0.353272 0.049950
C3    C     C_3   0.763407 0.725330 0.265248 -0.739025
H5    H     H_    0.849650 0.743236 0.232846 0.268550
H6    H     H_    0.702480 0.675307 0.244258 0.277743
C4    C     C_3   0.819517 0.371046 0.340154 0.426330
H7    H     H_    0.694397 0.380001 0.355071 0.100361
H8    H     H_    0.893587 0.420507 0.352099 0.098245
C5    C     C_3   0.821027 0.349387 0.272870 -0.881394
H9    H     H_    0.749498 0.299358 0.260123 0.295548
H10   H     H_    0.768739 0.391156 0.250906 0.206315
H11   H     H_    0.946077 0.340981 0.256939 0.258735
Ba1   Ba    Ba6+2 0.157290 0.533910 0.474710 1.616630
C6    C     C_3   0.998294 0.623657 0.657839 0.424388
H12   H     H_    0.104549 0.602674 0.632368 0.129597
H13   H     H_    0.905671 0.580627 0.656409 0.086134
C7    C     C_3   0.046952 0.649963 0.722387 -0.881294
H14   H     H_    0.124484 0.698612 0.725061 0.308754
H15   H     H_    0.114167 0.609235 0.740934 0.224360
H16   H     H_    0.939726 0.662919 0.750486 0.234880
C8    C     C_3   0.321816 0.317036 0.395405 0.328007
H17   H     H_    0.201088 0.336323 0.408168 0.040606
H18   H     H_    0.404717 0.330533 0.433745 0.140217
C9    C     C_3   0.312564 0.236422 0.377723 -0.132426
H19   H     H_    0.223088 0.221708 0.341591 0.172398
H20   H     H_    0.275239 0.211193 0.416439 0.092286
P4    P     P_3+3 0.876840 0.335610 0.442930 0.491055
O12   O     O_2   0.702240 0.324970 0.459330 -0.339374
O13   O     O_3   0.948380 0.413820 0.464520 -0.407289
O14   O     O_3   0.443920 0.371740 0.566130 -0.375580
O15   O     O_3   0.882676 0.315514 0.365290 -0.540086
P5    P     P_3+3 0.857950 0.414944 0.675281 0.453867
O16   O     O_3   0.358830 0.538360 0.571050 -0.363177
O17   O     O_3   0.852160 0.408490 0.597560 -0.382969
O18   O     O_2   0.700380 0.449229 0.699232 -0.401299
O19   O     O_3   0.841050 0.330858 0.696971 -0.521962
Ba2   Ba    Ba6+2 0.652900 0.466090 0.525240 1.578976
P6    P     P_3+3 0.419160 0.713909 0.420095 0.438825
C10   C     C_3   0.320549 0.726135 0.312167 0.870872
H21   H     H_    0.434226 0.814342 0.274454 0.243954
O20   O     O_3   0.451480 0.461630 0.428900 -0.408209
C11   C     C_3   0.521195 0.688555 0.657436 0.858630
H22   H     H_    0.594997 0.661898 0.620018 -0.003029
C12   C     C_3   0.623309 0.706737 0.713573 -0.918999
H23   H     H_    0.669247 0.657069 0.726079 0.226090
H24   H     H_    0.725319 0.742888 0.706327 0.265269
H25   H     H_    0.549914 0.733405 0.751007 0.260923
P7    P     P_3+3 0.415019 0.555307 0.645914 0.448764
O21   O     O_2   0.599240 0.538720 0.642170 -0.387091
O22   O     O_3   0.389292 0.646374 0.670922 -0.604869
H26   H     H_    0.673705 0.766989 0.277087 0.226807
C13   C     C_3   0.888610 0.279134 0.649711 0.438987
H27   H     H_    0.809334 0.278305 0.610257 0.142274
H28   H     H_    0.014857 0.289641 0.637811 0.031366
C14   C     C_3   0.876249 0.206484 0.669595 -0.870080
H29   H     H_    0.908059 0.164027 0.632333 0.215171
H30   H     H_    0.959147 0.204779 0.707684 0.285049
H31   H     H_    0.751234 0.195600 0.683545 0.283873
P8    P     P_3+3 0.413638 0.281676 0.566164 0.421820
C15   C     C_3   0.410912 0.302015 0.679701 0.289985
H32   H     H_    0.278272 0.300055 0.674482 0.043140
O23   O     O_2   0.527488 0.248059 0.517011 -0.409190
O24   O     O_3   0.486488 0.258946 0.632302 -0.507300
H33   H     H_    0.455203 0.357892 0.682514 0.100662
H34   H     H_    0.398272 0.312781 0.775356 0.149350
C16   C     C_3   0.450311 0.276396 0.737900 -0.089302
H35   H     H_    0.581648 0.276413 0.744622 0.181986
C17   C     C_R   0.955556 0.197487 0.472689 -0.305114
H36   H     H_    0.871275 0.175743 0.438224 0.184602
C18   C     C_R   0.988942 0.271872 0.480761 0.296750
C19   C     C_R   0.142398 0.187062 0.551338 -0.335168
H37   H     H_    0.183778 0.164312 0.588852 0.173504
C20   C     C_R   0.206741 0.254038 0.544976 0.230497
C21   C     C_R   0.668486 0.814439 0.455243 -0.284704
H38   H     H_    0.634015 0.837801 0.417040 0.170379
C22   C     C_R   0.599547 0.748064 0.460711 0.289879
C23   C     C_R   0.845526 0.802949 0.536180 -0.213274
H39   H     H_    0.927621 0.823676 0.571730 0.154782
C24   C     C_R   0.812746 0.728989 0.525684 0.297880
C25   C     C_R   0.022605 0.153248 0.511752 0.077994
C26   C     C_R   0.119528 0.298557 0.515473 -0.486555
H40   H     H_    0.160246 0.353090 0.516362 0.163545
C27   C     C_R   0.784059 0.847573 0.496962 0.119777
C28   C     C_R   0.679243 0.703507 0.492409 -0.396716
H41   H     H_    0.639391 0.648615 0.490051 0.157599
C29   C     C_R   0.226239 0.030912 0.542992 -0.175105
C30   C     C_R   0.318061 0.977594 0.559971 -0.078399
C31   C     C_R   0.269715 0.907526 0.543905 -0.070111
C32   C     C_R   0.123130 0.891943 0.516110 -0.134006
C33   C     C_R   0.009438 0.945056 0.513035 0.071704
C34   C     C_R   0.066063 0.018191 0.522696 0.097367
C35   C     C_R   0.846302 0.925276 0.497952 -0.017485
C36   C     C_R   0.744767 0.981397 0.486906 0.113635
C37   C     C_R   0.800634 0.054339 0.497661 0.047682
C38   C     C_R   0.963782 0.074621 0.511731 -0.053740
C39   C     C_R   0.584864 0.968522 0.466131 -0.176451
C40   C     C_R   0.493700 0.021949 0.449509 -0.119226
C41   C     C_R   0.540156 0.091708 0.467958 -0.028972
C42   C     C_R   0.685527 0.106948 0.497232 -0.136005
H42   H     H_    0.291529 0.079437 0.542707 0.140122
H43   H     H_    0.436455 0.990137 0.578605 0.156417
H44   H     H_    0.349667 0.865258 0.549791 0.187516
H45   H     H_    0.099345 0.837384 0.497779 0.197373
H46   H     H_    0.518570 0.920039 0.466014 0.133181
H47   H     H_    0.375904 0.009616 0.430244 0.148069
H48   H     H_    0.457570 0.132949 0.462842 0.169451
H49   H     H_    0.709798 0.160094 0.519382 0.181886
H50   H     H_    0.341818 0.312161 0.044683 0.179737
H51   H     H_    0.245181 0.308568 0.943617 0.184590
C43   C     C_R   0.641293 0.521063 0.333406 -0.449586
C44   C     C_R   0.392960 0.542767 0.941971 -0.057978
C45   C     C_R   0.339099 0.539678 0.883006 0.529173
O25   O     O_2   0.349247 0.592915 0.859281 -0.581625
N1    N     N_R   0.273604 0.477184 0.852008 -0.167683
C46   C     C_R   0.255005 0.417453 0.879414 0.510226
O26   O     O_2   0.192308 0.363242 0.852396 -0.575773
C47   C     C_R   0.309448 0.418560 0.938324 -0.055578
C48   C     C_R   0.378975 0.481678 0.969623 -0.012071
C49   C     C_R   0.461026 0.605622 0.973827 -0.111471
C50   C     C_R   0.514434 0.607885 0.032071 -0.084828
C51   C     C_R   0.501675 0.547315 0.060251 -0.074587
C52   C     C_R   0.434102 0.483930 0.028946 -0.018424
C53   C     C_R   0.297376 0.357975 0.966542 -0.101954
C54   C     C_R   0.353292 0.360014 0.024693 -0.102402
C55   C     C_R   0.421606 0.422904 0.056688 -0.049486
C56   C     C_R   0.476754 0.426319 0.115845 0.509747
N2    N     N_R   0.537951 0.489689 0.147341 -0.169276
C57   C     C_R   0.553005 0.549417 0.119391 0.605658
C58   C     C_2   0.076192 0.460018 0.771250 -0.158529
C59   C     C_3   0.030634 0.470626 0.708786 0.156966
C60   C     C_1   0.307377 0.498687 0.691091 0.283311
C61   C     C_2   0.351587 0.494079 0.746180 -0.250510
C62   C     C_2   0.229380 0.474735 0.789998 0.117203
C63   C     C_R   0.725045 0.527681 0.232486 -0.215686
C64   C     C_R   0.754518 0.540859 0.293890 0.172118
C65   C     C_R   0.502797 0.483594 0.312468 0.288824
C66   C     C_R   0.469764 0.471398 0.251152 -0.121743
C67   C     C_R   0.579279 0.494859 0.210229 0.171766
O27   O     O_2   0.471390 0.372701 0.139114 -0.578271
O28   O     O_2   0.609093 0.605153 0.146282 -0.568169
C68   C     C_2   0.175465 0.466130 0.668530 -0.468124
H52   H     H_    0.565563 0.657503 0.055052 0.177301
H53   H     H_    0.814453 0.543648 0.202280 0.179016
H54   H     H_    0.473240 0.653437 0.953812 0.176216
H55   H     H_    0.473108 0.508270 0.760927 0.180673
H56   H     H_    0.983523 0.449179 0.802440 0.160860
H57   H     H_    0.358865 0.444332 0.235576 0.163907
H58   H     H_    0.666951 0.530514 0.380619 0.160471
H59   H     H_    0.178898 0.428880 0.627278 0.153259
Br1   Br    Br    0.519289 0.199897 0.350205 -0.454425
N3    N     N_R   0.312312 0.678041 0.255000 0.244455
O29   O     O_R   0.198282 0.683171 0.216902 -0.365551
O30   O     O_R   0.409895 0.625349 0.244160 -0.384328
N4    N     N_R   0.463310 0.754359 0.640219 0.209594
O31   O     O_R   0.564477 0.801791 0.625780 -0.462174
O32   O     O_R   0.310573 0.765620 0.637870 -0.370750
Br2   Br    Br    0.945281 0.803357 0.357468 -0.610315
Br3   Br    Br    0.362006 0.181458 0.738255 -0.454989

loop_
_geom_bond_atom_site_label_1
_geom_bond_atom_site_label_2
_geom_bond_distance
_ccdc_geom_bond_type
O14   Ba2   2.738274 S    
O5    C6    1.396777 S    
C51   C57   1.407737 A    
P4    Ba2   3.450537 S    
Ba2   O20   2.757069 S    
C5    H10   1.103460 S    
N3    O30   1.300842 A    
C14   H29   1.111160 S    
O4    P6    1.546454 D    
P7    O22   1.755717 S    
C23   H39   1.081461 S    
C52   C55   1.408968 A    
O7    Ba1   2.836352 S    
C48   C52   1.421377 A    
N2    C57   1.390993 Am   
C60   C61   1.324526 D    
C47   C48   1.409412 A    
C8    H18   1.109414 S    
P4    O12   1.519992 D    
C33   C34   1.443170 A    
P6    C22   1.821366 S    
C61   H55   1.084185 S    
P5    O19   1.750887 S    
P3    O11   1.742602 S    
P2    C65   1.837685 S    
C2    C3    1.518376 S    
C4    H8    1.111262 S    
C1    H21   1.108062 S    
C58   H56   1.085663 S    
O10   C8    1.396565 S    
C29   C34   1.419115 A    
C17   C18   1.420006 A    
O6    C10   1.413541 S    
C31   C32   1.383670 A    
C55   C56   1.415194 A    
P1    Ba1   3.449951 S    
C41   C42   1.388778 A    
C11   C12   1.526925 S    
P1    O1    1.519760 D    
H51   C53   1.083176 S    
Ba1   O20   2.950868 S    
C35   C36   1.433754 A    
C29   C30   1.390318 A    
C12   H24   1.110048 S    
C58   C59   1.517685 S    
N2    C67   1.460408 S    
O2    Ba2   2.822418 S    
C63   C67   1.412544 A    
N4    O32   1.301125 A    
N1    C46   1.386153 Am   
O12   Ba2   2.900772 S    
P5    O17   1.753476 S    
C32   C33   1.414079 A    
C4    C5    1.520898 S    
C13   H27   1.115158 S    
P4    O15   1.747637 S    
C19   C20   1.400016 A    
C1    H2    1.115228 S    
C29   H42   1.062052 S    
C24   C28   1.383660 A    
C12   H25   1.110395 S    
O17   Ba2   2.713095 S    
C34   C38   1.441668 A    
O3    Ba1   2.738761 S    
C31   H44   1.083034 S    
P7    O21   1.577176 D    
Ba1   O13   2.821969 S    
C3    H5    1.114078 S    
O3    P6    1.754100 S    
C5    H11   1.110870 S    
C43   H58   1.081870 S    
C14   H30   1.116074 S    
C9    H20   1.108065 S    
O6    P6    1.760741 S    
C37   C38   1.430187 A    
C9    Br1   1.941155 S    
C39   C40   1.385630 A    
C8    C9    1.524248 S    
C10   N3    1.468073 S    
P4    O13   1.594641 S    
P5    O18   1.542187 D    
C40   H47   1.083480 S    
P1    O5    1.748547 S    
C11   N4    1.464288 S    
C6    C7    1.527651 S    
P4    C18   1.866347 S    
C4    H7    1.106029 S    
P7    C60   1.822493 S    
P1    C24   1.839333 S    
C8    H17   1.103441 S    
C17   H36   1.080970 S    
O11   C2    1.402318 S    
C25   C38   1.564077 S    
O16   Ba2   2.949939 S    
C27   C35   1.552892 S    
H50   C54   1.082977 S    
C3    H26   1.105927 S    
O1    Ba1   2.900051 S    
P1    O2    1.594678 S    
O16   P7    1.746207 S    
C6    H13   1.109457 S    
O14   P8    1.727524 S    
P2    O10   1.749813 S    
C58   C62   1.358337 D    
C12   H23   1.107553 S    
C50   H52   1.083396 S    
H1    C10   1.092469 S    
C44   C48   1.409541 A    
C60   C68   1.315583 D    
C15   H33   1.110042 S    
H34   C16   1.104529 S    
O19   C13   1.401612 S    
P8    O24   1.745624 S    
C7    H16   1.107911 S    
C13   C14   1.523076 S    
C21   C22   1.399112 A    
N3    O29   1.305779 A    
C16   H35   1.107798 S    
O2    Ba1   2.939306 S    
C1    H3    1.114628 S    
P3    C64   1.830373 S    
C65   C66   1.404558 A    
C43   C64   1.387997 A    
C21   C27   1.420375 A    
P2    O7    1.522517 D    
C3    H6    1.108218 S    
P2    Ba1   3.420646 S    
C46   O26   1.221665 D    
C14   H31   1.113829 S    
C9    H19   1.110760 S    
C32   H45   1.070558 S    
C37   C42   1.406570 A    
C66   C67   1.416605 A    
N4    O31   1.300402 A    
O13   Ba2   2.940208 S    
C44   C45   1.408307 A    
C49   C50   1.393450 A    
P8    O23   1.535845 D    
P5    C59   1.860420 S    
C4    O15   1.394561 S    
P8    C20   1.837042 S    
C41   H48   1.078080 S    
C36   C37   1.438088 A    
C7    H15   1.105234 S    
C15   H32   1.113362 S    
C30   H43   1.083280 S    
C63   H53   1.082875 S    
Ba1   O16   2.757705 S    
C56   N2    1.389011 Am   
Ba2   O21   2.836456 S    
C51   C52   1.407029 A    
C23   C24   1.410865 A    
O8    Ba1   2.712370 S    
C57   O28   1.221531 D    
C43   C65   1.388895 A    
C30   C31   1.377315 A    
C23   C27   1.430599 A    
C61   C62   1.503233 S    
C26   H40   1.081812 S    
C19   C25   1.420415 A    
C45   N1    1.384823 Am   
Ba1   Ba2   4.570126 S    
C6    H12   1.105746 S    
C2    H4    1.113661 S    
P3    O8    1.758540 S    
C45   O25   1.222584 D    
C56   O27   1.222007 D    
C53   C54   1.398921 A    
C15   O24   1.404912 S    
C49   H54   1.083047 S    
C33   C35   1.432574 A    
C66   H57   1.081530 S    
C21   H38   1.080107 S    
C68   H59   1.083824 S    
C36   C39   1.420589 A    
C1    C10   1.541658 S    
P2    O20   1.549651 S    
C28   H41   1.082319 S    
C17   C25   1.441173 A    
C2    Br2   1.941945 S    
C18   C26   1.386686 A    
C50   C51   1.407141 A    
C39   H46   1.064270 S    
C15   C16   1.521409 S    
C47   C53   1.407585 A    
C44   C49   1.405619 A    
C63   C64   1.401152 A    
C11   O22   1.408397 S    
P3    O9    1.544737 D    
C5    H9    1.110900 S    
C46   C47   1.413600 A    
N1    C62   1.452822 S    
C54   C55   1.408148 A    
C11   H22   1.111977 S    
C13   H28   1.108522 S    
C7    H14   1.110721 S    
C20   C26   1.383467 A    
C19   H37   1.077984 S    
C16   Br3   1.936658 S    
C42   H49   1.071659 S    
C59   C68   1.509855 S    
C40   C41   1.374986 A    
C22   C28   1.381357 A    
