data_mof_unit_31013.cif
_audit_creation_date              2013-03-05T16:31:21-0500
_audit_creation_method            fapswitch 2.2
_symmetry_space_group_name_H-M    P1
_symmetry_Int_Tables_number       1
_space_group_crystal_system       triclinic
_cell_length_a                    13.019778
_cell_length_b                    14.174348
_cell_length_c                    14.963377
_cell_angle_alpha                 90.977141
_cell_angle_beta                  90.783199
_cell_angle_gamma                 69.842669
_cell_volume                      2591.83929463

loop_
_atom_site_label
_atom_site_type_symbol
_atom_site_description
_atom_site_fract_x
_atom_site_fract_y
_atom_site_fract_z
_atom_type_partial_charge
O1    O     O_R   0.499990 0.420530 0.630930 -0.650689
O2    O     O_R   0.499990 0.579480 0.630940 -0.547934
C1    C     C_R   0.498220 0.501274 0.672370 0.944617
O3    O     O_R   0.653620 0.381060 0.499970 -0.603607
O4    O     O_R   0.653620 0.540010 0.499980 -0.582350
C2    C     C_R   0.705117 0.444164 0.504604 0.954742
Zn1   Zn    Zn3+2 0.500000 0.393860 0.499990 1.026753
Zn2   Zn    Zn3+2 0.500000 0.606140 0.500010 1.046613
O5    O     O_R   0.500010 0.420520 0.369060 -0.538480
O6    O     O_R   0.500010 0.579470 0.369070 -0.587881
O7    O     O_R   0.346380 0.459990 0.500020 -0.565817
O8    O     O_R   0.346380 0.618940 0.500030 -0.634007
C3    C     C_R   0.507276 0.496898 0.327616 1.034680
C4    C     C_R   0.295128 0.556313 0.499436 0.992111
C5    C     C_R   0.025848 0.690969 0.603248 0.358948
H1    H     H_    0.175008 0.722000 0.591634 0.232966
H2    H     H_    0.834015 0.687075 0.668644 0.224970
C6    C     C_R   0.177041 0.595222 0.509024 -0.230952
C7    C     C_R   0.887632 0.314289 0.473071 0.534081
C8    C     C_R   0.000370 0.291121 0.462955 -0.239613
C9    C     C_R   0.047006 0.364370 0.479853 -0.167098
C10   C     C_R   0.983161 0.459786 0.513549 0.098438
C11   C     C_R   0.877458 0.473812 0.544236 -0.096595
C12   C     C_R   0.024511 0.539246 0.522657 -0.048720
C13   C     C_R   0.974343 0.619954 0.583269 -0.109614
C14   C     C_R   0.875566 0.626391 0.623004 -0.248177
C15   C     C_R   0.828461 0.553200 0.606081 0.505035
C16   C     C_R   0.115441 0.540332 0.473531 0.252782
C17   C     C_R   0.129343 0.675264 0.568329 -0.268895
C18   C     C_R   0.824885 0.407646 0.511949 -0.209687
H3    H     H_    0.133521 0.345719 0.468105 0.177537
H4    H     H_    0.050848 0.217974 0.437805 0.154933
C19   C     C_R   0.588653 0.406695 0.899105 -0.115019
H5    H     H_    0.638113 0.336652 0.929528 0.167315
C20   C     C_R   0.570468 0.410028 0.808127 -0.277941
H6    H     H_    0.609205 0.342721 0.768417 0.178306
C21   C     C_R   0.505692 0.500100 0.768452 -0.152377
C22   C     C_R   0.458071 0.588079 0.820575 0.277595
C23   C     C_R   0.477090 0.583442 0.912221 -0.177260
H7    H     H_    0.437844 0.648842 0.954081 0.199052
C24   C     C_R   0.540509 0.492877 0.950963 0.162214
C25   C     C_R   0.587406 0.548206 0.097819 0.395634
C26   C     C_R   0.577205 0.551374 0.190619 0.163389
C27   C     C_R   0.528025 0.488469 0.231840 -0.440808
C28   C     C_R   0.499958 0.416388 0.180561 0.397679
C29   C     C_R   0.500600 0.420552 0.087848 0.369252
C30   C     C_R   0.545007 0.485870 0.047084 -0.257642
C31   C     C_R   0.601280 0.863225 0.494428 0.431512
C32   C     C_R   0.596840 0.764393 0.493370 -0.031800
H8    H     H_    0.671647 0.701105 0.487822 0.163670
N1    N     N_R   0.500000 0.747530 0.500020 -0.109087
C33   C     C_R   0.404901 0.826783 0.509376 0.043853
H9    H     H_    0.328468 0.813256 0.515354 0.155044
C34   C     C_R   0.404834 0.926078 0.512180 -0.332956
H10   H     H_    0.327847 0.987353 0.520107 0.177185
C35   C     C_R   0.503391 0.945877 0.505779 0.056773
C36   C     C_R   0.428504 0.124099 0.449981 -0.436773
H11   H     H_    0.372749 0.099369 0.409815 0.153705
C37   C     C_R   0.429032 0.224621 0.445830 0.658174
N2    N     N_R   0.499940 0.252470 0.500020 -0.129896
C38   C     C_R   0.571519 0.184591 0.555077 -0.083617
H12   H     H_    0.626903 0.208177 0.596922 0.166320
C39   C     C_R   0.574375 0.084576 0.558408 -0.165838
H13   H     H_    0.631754 0.032771 0.603221 0.201340
C40   C     C_R   0.502184 0.052835 0.505366 0.124028
N3    N     N_R   0.386470 0.680135 0.782735 0.222431
O9    O     O_R   0.311688 0.678441 0.724862 -0.410782
O10   O     O_R   0.384269 0.766188 0.816107 -0.351011
O11   O     O_3   0.634246 0.609828 0.056356 -0.546931
C41   C     C_3   0.745967 0.554771 0.042457 -0.197468
H14   H     H_    0.757052 0.489337 0.996702 0.122960
H15   H     H_    0.789875 0.529361 0.106847 0.180278
H16   H     H_    0.783988 0.604480 0.010380 0.201998
N4    N     N_R   0.623120 0.613767 0.242263 0.247132
O12   O     O_R   0.698617 0.573620 0.301883 -0.427909
O13   O     O_R   0.600211 0.707757 0.222037 -0.343226
O14   O     O_3   0.466950 0.344454 0.220540 -0.543275
C42   C     C_3   0.556250 0.252864 0.219853 -0.186472
H17   H     H_    0.569659 0.218897 0.151608 0.183983
H18   H     H_    0.538209 0.199060 0.264379 0.171750
H19   H     H_    0.632703 0.262352 0.245705 0.111673
O15   O     O_3   0.460649 0.358172 0.036890 -0.596777
C43   C     C_3   0.346214 0.404188 0.028620 -0.195130
H20   H     H_    0.323813 0.478634 0.995897 0.156159
H21   H     H_    0.305518 0.412206 0.094640 0.191848
H22   H     H_    0.314593 0.355623 0.985630 0.184971
O16   O     O_3   0.699603 0.881087 0.489114 -0.619925
C44   C     C_3   0.766506 0.823119 0.420349 -0.221924
H23   H     H_    0.718948 0.819364 0.358681 0.187752
H24   H     H_    0.814061 0.746513 0.444204 0.173796
H25   H     H_    0.826479 0.859155 0.402096 0.203261
O17   O     O_3   0.359343 0.298174 0.390535 -0.549659
C45   C     C_3   0.303816 0.260808 0.324738 -0.173505
H26   H     H_    0.262924 0.321618 0.277162 0.252405
H27   H     H_    0.239086 0.237664 0.355250 0.115946
H28   H     H_    0.360900 0.198245 0.284856 0.135719
N5    N     N_R   0.980755 0.772557 0.665509 0.219588
O18   O     O_R   0.983366 0.861119 0.647271 -0.352809
O19   O     O_R   0.959587 0.754275 0.746834 -0.374463
N6    N     N_R   0.134114 0.501517 0.382643 0.204113
O20   O     O_R   0.054204 0.488673 0.336685 -0.395781
O21   O     O_R   0.218232 0.504888 0.338516 -0.384735
O22   O     O_3   0.839997 0.243757 0.449990 -0.589014
C46   C     C_3   0.833438 0.237875 0.356049 -0.271383
H29   H     H_    0.915986 0.209465 0.325322 0.158293
H30   H     H_    0.783971 0.311919 0.327419 0.153566
H31   H     H_    0.792058 0.183501 0.338378 0.185612
O23   O     O_3   0.738861 0.556344 0.656076 -0.595847
C47   C     C_3   0.777034 0.503646 0.735969 -0.319639
H32   H     H_    0.842879 0.525215 0.769448 0.173425
H33   H     H_    0.805829 0.421212 0.722913 0.161900
H34   H     H_    0.708617 0.522783 0.783815 0.206986

loop_
_geom_bond_atom_site_label_1
_geom_bond_atom_site_label_2
_geom_bond_distance
_ccdc_geom_bond_type
N3    O10   1.301347 A    
O16   C44   1.412446 S    
C39   C40   1.405224 A    
C45   H26   1.107934 S    
C4    C6    1.451724 S    
C7    C8    1.399085 A    
C46   H30   1.114335 S    
N5    O18   1.301057 A    
C23   C24   1.395532 A    
C28   C29   1.389812 A    
C33   H9    1.081464 S    
Zn1   O7    1.893919 S    
C9    H3    1.080818 S    
C14   C15   1.393488 A    
N4    O13   1.301111 A    
H2    C14   1.080874 S    
C20   C21   1.401349 A    
C47   H33   1.111888 S    
O4    C2    1.293893 A    
O7    C4    1.296838 A    
C42   H18   1.107154 S    
C36   C37   1.429627 A    
C35   C40   1.510839 S    
O23   C47   1.411545 S    
C31   C35   1.412713 A    
C38   C39   1.406988 A    
O5    C3    1.288657 A    
O17   C45   1.413913 S    
C29   O15   1.384523 S    
C7    O22   1.383146 S    
C22   N3    1.436901 S    
C32   N1    1.366991 A    
C41   H14   1.112915 S    
C11   C15   1.419676 A    
C37   O17   1.397036 S    
C16   N6    1.450073 S    
C26   N4    1.437040 S    
N3    O9    1.300316 A    
C37   N2    1.373107 A    
C45   H27   1.110182 S    
C9    C10   1.409862 A    
O11   C41   1.410137 S    
C5    N5    1.435370 S    
O3    Zn1   1.945051 S    
C46   H29   1.112461 S    
N5    O19   1.301193 A    
C33   C34   1.407058 A    
C5    C17   1.395293 A    
C34   C35   1.409603 A    
N4    O12   1.301424 A    
N1    C33   1.362117 A    
C11   C18   1.414020 A    
C6    C16   1.391021 A    
C12   C13   1.422582 A    
O3    C2    1.290094 A    
C47   H34   1.106303 S    
C23   H7    1.084095 S    
C42   H17   1.111425 S    
H1    C17   1.082513 S    
O14   C42   1.413109 S    
C25   O11   1.384094 S    
N2    C38   1.364185 A    
O1    C1    1.285648 A    
C20   H6    1.083912 S    
C26   C27   1.417214 A    
C21   C22   1.412448 A    
C43   H20   1.113520 S    
C44   H25   1.109366 S    
Zn2   O8    1.945052 S    
C41   H16   1.109182 S    
N6    O21   1.301768 A    
C19   H5    1.083687 S    
C24   C30   1.442419 S    
C31   O16   1.391425 S    
C6    C17   1.398383 A    
C44   H23   1.114972 S    
Zn2   N1    2.004109 S    
C31   C32   1.421653 A    
C43   H21   1.112905 S    
O8    C4    1.281078 A    
C32   H8    1.075985 S    
C45   H28   1.111188 S    
C10   C12   1.409825 A    
C25   C26   1.395233 A    
Zn1   N2    2.004387 S    
C27   C28   1.410355 A    
C8    H4    1.082755 S    
C34   H10   1.082987 S    
Zn1   O5    2.001596 S    
C29   C30   1.400485 A    
C44   H24   1.110702 S    
C2    C18   1.467166 S    
O1    Zn1   1.989093 S    
O2    Zn2   2.001592 S    
C12   C16   1.406753 A    
C36   C40   1.402282 A    
O6    C3    1.289996 A    
O4    Zn2   1.893916 S    
C28   O14   1.382759 S    
C19   C24   1.393022 A    
O2    C1    1.286507 A    
C13   C14   1.397847 A    
C47   H32   1.114916 S    
C42   H19   1.112877 S    
C36   H11   1.080421 S    
C22   C23   1.388796 A    
C15   O23   1.381820 S    
N6    O20   1.302003 A    
C19   C20   1.377386 A    
C25   C30   1.401273 A    
C46   H31   1.108830 S    
C38   H12   1.081887 S    
C5    C13   1.414825 A    
C39   H13   1.082580 S    
C43   H22   1.109122 S    
C8    C9    1.389939 A    
C1    C21   1.439675 S    
Zn2   O6    1.989095 S    
O15   C43   1.410157 S    
O22   C46   1.409893 S    
C10   C11   1.403550 A    
C41   H15   1.113429 S    
C7    C18   1.413706 A    
C3    C27   1.457269 S    
