data_mof_unit_16267.cif
_audit_creation_date              2012-12-10T20:48:17-0500
_audit_creation_method            fapswitch 2.2
_symmetry_space_group_name_H-M    P1
_symmetry_Int_Tables_number       1
_space_group_crystal_system       triclinic
_cell_length_a                    10.771603
_cell_length_b                    8.916958
_cell_length_c                    8.16465
_cell_angle_alpha                 89.99976
_cell_angle_beta                  90.985523
_cell_angle_gamma                 89.99998
_cell_volume                      784.098067106

loop_
_atom_site_label
_atom_site_type_symbol
_atom_type_description
_atom_site_fract_x
_atom_site_fract_y
_atom_site_fract_z
_atom_type_partial_charge
C1    C     C_R   0.500000 0.218248 0.500000 0.926757
C2    C     C_R   0.257579 0.493914 0.498515 0.867408
C3    C     C_R   0.742421 0.493914 0.501485 0.867408
C4    C     C_R   0.500000 0.781702 0.500000 0.902693
C5    C     C_1   0.500000 0.065249 0.500000 -0.193661
C6    C     C_3   0.075278 0.418593 0.659244 -0.123730
C7    C     C_3   0.067003 0.391915 0.355315 -0.138889
C8    C     C_3   0.932997 0.391915 0.644686 -0.138889
C9    C     C_3   0.924722 0.418593 0.340757 -0.123730
C10   C     C_1   0.500000 0.934686 0.500000 -0.205681
C11   C     C_3   0.071780 0.665414 0.478409 0.219310
C12   C     C_3   0.928219 0.665414 0.521589 0.219310
C13   C     C_3   0.121615 0.496330 0.496518 0.006775
C14   C     C_3   0.878385 0.496330 0.503482 0.006775
H1    H     H_    0.118490 0.304535 0.665207 0.121405
H2    H     H_    0.078747 0.273866 0.398152 0.130759
H3    H     H_    0.921253 0.273866 0.601850 0.130758
H4    H     H_    0.881510 0.304534 0.334794 0.121405
N1    N     N_1   0.500000 0.500030 0.073640 -0.038842
N2    N     N_1   0.500000 0.500030 0.926360 -0.038842
O1    O     O_R   0.500000 0.285340 0.636850 -0.614519
O2    O     O_R   0.500000 0.285340 0.363150 -0.614519
O3    O     O_R   0.314790 0.499970 0.636880 -0.612193
O4    O     O_R   0.314790 0.499970 0.363120 -0.616207
O5    O     O_R   0.685210 0.499970 0.636880 -0.616208
O6    O     O_R   0.685210 0.499970 0.363120 -0.612192
O7    O     O_R   0.500000 0.714650 0.636900 -0.618136
O8    O     O_R   0.500000 0.714650 0.363100 -0.618136
Zn1   Zn    Zn3+2 0.500000 0.499990 0.682780 0.974352
Zn2   Zn    Zn3+2 0.500000 0.499990 0.317220 0.974352
N3    N     N_3   0.117270 0.498295 0.807793 -0.438875
H5    H     H_    0.163259 0.423225 0.885659 0.193377
H6    H     H_    0.048359 0.553709 0.871211 0.196023
N4    N     N_3   0.131713 0.390849 0.198820 -0.433236
H7    H     H_    0.082009 0.323326 0.116039 0.170572
H8    H     H_    0.142331 0.497408 0.149747 0.218249
N5    N     N_3   0.868287 0.390848 0.801181 -0.433236
H9    H     H_    0.917991 0.323326 0.883963 0.170572
H10   H     H_    0.857669 0.497408 0.850253 0.218249
N6    N     N_3   0.882729 0.498295 0.192207 -0.438875
H11   H     H_    0.836742 0.423225 0.114341 0.193377
H12   H     H_    0.951641 0.553709 0.128789 0.196023
N7    N     N_3   0.141489 0.772743 0.584001 -0.479052
H13   H     H_    0.232095 0.786540 0.542814 0.169288
H14   H     H_    0.148375 0.739955 0.705789 0.224985
N8    N     N_3   0.087628 0.717260 0.308447 -0.480608
H15   H     H_    0.181736 0.716347 0.279606 0.185726
H16   H     H_    0.063039 0.830550 0.299698 0.201005
N9    N     N_3   0.912372 0.717260 0.691551 -0.480608
H17   H     H_    0.936961 0.830550 0.700299 0.201006
H18   H     H_    0.818264 0.716346 0.720392 0.185726
N10   N     N_3   0.858510 0.772743 0.415997 -0.479052
H19   H     H_    0.851625 0.739955 0.294209 0.224985
H20   H     H_    0.767905 0.786540 0.457184 0.169288

loop_
_geom_bond_atom_site_label_1
_geom_bond_atom_site_label_2
_ccdc_geom_bond_type
C6    C8    S    
C9    C14   S    
N3    H6    S    
C11   N7    S    
N5    H9    S    
O7    Zn1   S    
N7    H14   S    
C8    H3    S    
C3    O5    A    
C11   C12   S    
N1    N2    T    
O8    Zn2   S    
C12   N9    S    
C1    O2    A    
N5    H10   S    
C6    C13   S    
C1    O1    A    
C11   C13   S    
C3    C14   S    
C1    C5    S    
O3    Zn1   S    
N6    H12   S    
C7    H2    S    
C12   N10   S    
N10   H20   S    
O6    Zn2   S    
N4    H8    S    
N2    Zn1   S    
C3    O6    A    
N7    H13   S    
C2    O4    A    
C7    N4    S    
O4    Zn2   S    
C8    N5    S    
C5    C10   T    
C6    N3    S    
N8    H16   S    
C9    H4    S    
C7    C13   S    
C4    O7    A    
N10   H19   S    
O5    Zn1   S    
C7    C9    S    
N4    H7    S    
C2    O3    A    
N9    H17   S    
C2    C13   S    
N8    H15   S    
N6    H11   S    
C11   N8    S    
C8    C14   S    
O2    Zn2   S    
C4    O8    A    
C6    H1    S    
N1    Zn2   S    
O1    Zn1   S    
C9    N6    S    
N3    H5    S    
C4    C10   S    
C12   C14   S    
N9    H18   S    
