data_mof_unit_19236.cif
_audit_creation_date              2012-12-11T16:22:46-0500
_audit_creation_method            fapswitch 2.2
_symmetry_space_group_name_H-M    P1
_symmetry_Int_Tables_number       1
_space_group_crystal_system       triclinic
_cell_length_a                    16.902022
_cell_length_b                    16.856496
_cell_length_c                    19.499824
_cell_angle_alpha                 118.030181
_cell_angle_beta                  62.158425
_cell_angle_gamma                 100.751115
_cell_volume                      4332.45729128

loop_
_atom_site_label
_atom_site_type_symbol
_atom_type_description
_atom_site_fract_x
_atom_site_fract_y
_atom_site_fract_z
_atom_type_partial_charge
C1    C     C_R   0.036861 0.758525 0.014062 -0.130932
C2    C     C_R   0.251114 0.525244 0.828092 -0.147879
C3    C     C_R   0.183328 0.490392 0.087631 -0.130847
C4    C     C_R   0.763424 0.421996 0.164243 -0.144330
C5    C     C_R   0.991528 0.341531 0.758768 -0.121901
C6    C     C_R   0.256939 0.540953 0.065572 0.063650
C7    C     C_R   0.943033 0.266251 0.757039 0.026937
C8    C     C_R   0.259046 0.467997 0.745595 0.078966
C9    C     C_R   0.014308 0.227635 0.021952 0.040137
C10   C     C_R   0.864292 0.920470 0.491722 -0.163780
C11   C     C_R   0.896263 0.840860 0.416649 -0.168473
C12   C     C_R   0.764678 0.442751 0.241067 0.043311
C13   C     C_R   0.927945 0.840494 0.336028 0.144373
C14   C     C_R   0.918926 0.919116 0.332013 -0.161332
C15   C     C_R   0.886458 0.999023 0.407465 -0.182322
C16   C     C_R   0.803806 0.558843 0.960969 -0.125780
C17   C     C_R   0.863780 0.001122 0.487378 0.116261
C18   C     C_R   0.933535 0.144052 0.543761 -0.166951
C19   C     C_R   0.956350 0.205563 0.609223 -0.169730
C20   C     C_R   0.909222 0.210684 0.692527 0.140528
C21   C     C_R   0.833218 0.159630 0.711393 -0.164094
C22   C     C_R   0.810134 0.097986 0.645625 -0.181815
C23   C     C_R   0.722609 0.547434 0.021893 0.059767
C24   C     C_R   0.863549 0.086089 0.560361 0.115910
C25   C     C_R   0.557008 0.356795 0.370875 -0.167889
C26   C     C_R   0.619345 0.379802 0.305984 -0.179907
C27   C     C_R   0.704392 0.406547 0.302427 0.145541
C28   C     C_R   0.959234 0.672026 0.249333 -0.127467
C29   C     C_R   0.729011 0.401436 0.359788 -0.181840
C30   C     C_R   0.666440 0.378184 0.424852 -0.185411
C31   C     C_R   0.578498 0.360695 0.433644 0.162460
C32   C     C_R   0.502372 0.444968 0.592023 -0.159188
C33   C     C_R   0.422788 0.473794 0.666780 -0.237564
C34   C     C_R   0.971497 0.758571 0.256873 0.033442
C35   C     C_R   0.344066 0.427769 0.668744 -0.040006
C36   C     C_R   0.348510 0.346099 0.596569 0.629697
C37   C     C_R   0.428647 0.318786 0.520633 -0.339115
C38   C     C_R   0.504854 0.370108 0.517046 0.049496
C39   C     C_R   0.635954 0.591427 0.057621 0.132309
C40   C     C_R   0.738289 0.483207 0.039980 -0.128149
C41   C     C_R   0.323193 0.568865 0.100326 0.130174
C42   C     C_R   0.401803 0.538433 0.162658 -0.225249
C43   C     C_R   0.326303 0.530418 0.149291 -0.175874
C44   C     C_R   0.390522 0.625995 0.075832 -0.280502
C45   C     C_R   0.249723 0.569224 0.012474 -0.139559
C46   C     C_R   0.468514 0.629443 0.083944 0.189276
C47   C     C_R   0.475630 0.581603 0.124001 0.188158
C48   C     C_R   0.559108 0.566889 0.114169 -0.278384
C49   C     C_R   0.627413 0.649346 0.027839 -0.169928
C50   C     C_R   0.543363 0.669607 0.042340 -0.227173
C51   C     C_R   0.825573 0.186501 0.179662 0.140797
C52   C     C_R   0.028458 0.751933 0.174772 -0.122882
C53   C     C_R   0.949680 0.864029 0.008879 0.131633
C54   C     C_R   0.847626 0.951586 0.011405 -0.231269
C55   C     C_R   0.891879 0.870079 0.977725 -0.168178
C56   C     C_R   0.919488 0.265305 0.834912 -0.129301
C57   C     C_R   0.965217 0.942909 0.072177 -0.281586
C58   C     C_R   0.920681 0.024912 0.106599 0.195807
C59   C     C_R   0.860070 0.028862 0.077048 0.180856
C60   C     C_R   0.812174 0.109825 0.114593 -0.283326
C61   C     C_R   0.886336 0.183091 0.208074 -0.167783
C62   C     C_R   0.933683 0.102647 0.171985 -0.234118
C63   C     C_R   0.841530 0.489928 0.240301 -0.132075
C64   C     C_R   0.958601 0.690398 0.938257 -0.133447
C65   C     C_R   0.983910 0.774663 0.984383 0.055416
C66   C     C_3   0.913113 0.170383 0.946126 -1.081187
C67   C     C_R   0.172694 0.456394 0.750975 -0.103615
C68   C     C_3   0.265832 0.237252 0.631628 -0.273596
C69   C     C_R   0.043613 0.311693 0.061948 -0.214800
C70   C     C_R   0.964918 0.241607 0.987596 0.344628
H1    H     H_    0.077842 0.806484 0.041965 0.084170
H2    H     H_    0.939854 0.919758 0.270656 0.111824
H3    H     H_    0.722418 0.372787 0.136815 0.087587
H4    H     H_    0.885375 0.060346 0.402829 0.114921
H5    H     H_    0.976744 0.135801 0.478583 0.116624
H6    H     H_    0.015094 0.244242 0.592729 0.122166
H7    H     H_    0.793771 0.164310 0.775715 0.108237
H8    H     H_    0.754997 0.054727 0.659992 0.114343
H9    H     H_    0.489438 0.344693 0.376656 0.121051
H10   H     H_    0.598415 0.382618 0.262489 0.109270
H11   H     H_    0.795131 0.418596 0.356745 0.105729
H12   H     H_    0.866570 0.226905 0.861868 0.107055
H13   H     H_    0.684645 0.380400 0.472107 0.115202
H14   H     H_    0.559678 0.486675 0.590829 0.125662
H15   H     H_    0.814478 0.599078 0.928371 0.085711
H16   H     H_    0.422132 0.536000 0.721075 0.137322
H17   H     H_    0.429935 0.260210 0.463266 0.150475
H18   H     H_    0.563924 0.526841 0.142151 0.117152
H19   H     H_    0.685289 0.673903 0.988258 0.114653
H20   H     H_    0.405919 0.502876 0.195039 0.126228
H21   H     H_    0.538350 0.708540 0.013257 0.125607
H22   H     H_    0.273992 0.488632 0.171905 0.114316
H23   H     H_    0.153776 0.416861 0.698963 0.149167
H24   H     H_    0.387805 0.659575 0.041437 0.115836
H25   H     H_    0.764732 0.114054 0.093547 0.131707
H26   H     H_    0.918085 0.651253 0.299650 0.095018
H27   H     H_    0.896277 0.242896 0.258479 0.117219
H28   H     H_    0.802078 0.953681 0.987432 0.129088
H29   H     H_    0.979810 0.101023 0.195546 0.124366
H30   H     H_    0.878241 0.811362 0.929118 0.111469
H31   H     H_    0.008818 0.940398 0.097819 0.113511
H32   H     H_    0.690938 0.455801 0.083097 0.093474
H33   H     H_    0.055195 0.807394 0.159053 0.086245
H34   H     H_    0.079675 0.327900 0.100030 0.120157
H35   H     H_    0.870443 0.505043 0.283984 0.083325
H36   H     H_    0.927645 0.676051 0.896562 0.081756
H37   H     H_    0.287630 0.619910 0.992646 0.086901
H38   H     H_    0.947681 0.147686 0.875400 0.257318
H39   H     H_    0.910951 0.110451 0.956274 0.262003
H40   H     H_    0.843461 0.195765 0.974574 0.245853
H41   H     H_    0.256641 0.274604 0.699665 0.143930
H42   H     H_    0.324814 0.189180 0.591566 0.143721
H43   H     H_    0.205549 0.197452 0.632011 0.182261
H44   H     H_    0.304204 0.546959 0.848206 0.102692
H45   H     H_    0.160018 0.468578 0.137672 0.083758
H46   H     H_    0.006379 0.372565 0.716764 0.089877
H47   H     H_    0.848449 0.920023 0.552141 0.115294
H48   H     H_    0.901639 0.781188 0.421907 0.107900
N1    N     N_R   0.034930 0.670790 0.995440 -0.037114
N2    N     N_R   0.867000 0.509260 0.948460 -0.039137
N3    N     N_R   0.003780 0.616410 0.165900 -0.038099
N4    N     N_R   0.825670 0.461520 0.995440 -0.040382
N5    N     N_R   0.045120 0.664150 0.118920 -0.037214
N6    N     N_R   0.884940 0.497570 0.165910 -0.036227
N7    N     N_R   0.985840 0.628110 0.948460 -0.037327
N8    N     N_R   0.174330 0.538480 0.004560 -0.039411
N9    N     N_R   0.954880 0.335850 0.881080 -0.036117
N10   N     N_R   0.115060 0.502430 0.834090 -0.052409
N11   N     N_R   0.014160 0.371890 0.051540 -0.054912
N12   N     N_R   0.965070 0.329210 0.004560 -0.058587
N13   N     N_R   0.164150 0.545120 0.881070 -0.041613
N14   N     N_R   0.133000 0.490740 0.051540 -0.036673
N15   N     N_R   0.996220 0.383590 0.834100 -0.041980
N16   N     N_R   0.835850 0.454880 0.118930 -0.036639
Ni1   Ni    Ni4+2 0.103690 0.603690 0.000000 0.211065
Ni2   Ni    Ni4+2 0.896310 0.396310 0.000000 0.208574
Ni3   Ni    Ni4+2 0.991110 0.505800 0.892250 0.209632
Ni4   Ni    Ni4+2 0.008890 0.494200 0.107750 0.205967
O1    O     O_3   0.273713 0.296362 0.596507 -0.639546

loop_
_geom_bond_atom_site_label_1
_geom_bond_atom_site_label_2
_ccdc_geom_bond_type
C25   C31   A    
C52   H33   S    
C58   C62   A    
C18   H5    S    
C6    C45   A    
C27   C29   A    
C11   C13   A    
C35   C36   A    
C51   C61   A    
N15   Ni3   S    
C33   H16   S    
C3    C6    A    
C63   N6    A    
C5    N15   A    
C26   C27   A    
C1    H1    S    
C18   C24   A    
N6    Ni4   S    
C36   C37   A    
C37   C38   A    
C9    C69   A    
N13   Ni1   S    
C16   N2    A    
C68   H42   S    
C30   C31   A    
C52   N5    A    
C10   C17   A    
N14   Ni4   S    
C23   C40   A    
C70   N12   A    
C18   C19   A    
C1    N1    A    
C56   N9    A    
C30   H13   S    
C49   C50   A    
C54   C55   A    
N11   Ni4   S    
C19   C20   A    
N2    N4    A    
C6    C41   S    
C55   H30   S    
C1    C65   A    
C48   H18   S    
N9    Ni2   S    
C32   C38   A    
C63   H35   S    
C53   C65   S    
C68   H43   S    
C28   C34   A    
C59   C60   A    
C13   C14   A    
C41   C43   A    
C7    C56   A    
C44   C46   A    
C54   C59   A    
C53   C55   A    
C32   H14   S    
C2    C8    A    
C17   C24   S    
C12   C27   S    
C3    N14   A    
C9    C70   A    
C22   H8    S    
C66   H38   S    
C5    C7    A    
C12   C63   A    
C53   C57   A    
C28   N3    A    
N16   Ni2   S    
N7    Ni3   S    
C25   C26   A    
N1    Ni1   S    
N5    Ni1   S    
C42   H20   S    
C68   H41   S    
N3    Ni4   S    
N10   Ni3   S    
C29   H11   S    
C29   C30   A    
C47   C48   A    
N8    N14   A    
C45   N8    A    
C2    N13   A    
C61   H27   S    
C66   H40   S    
C64   H36   S    
N4    Ni2   S    
C4    H3    S    
N1    N7    A    
C39   C49   A    
N8    Ni1   S    
C7    C20   S    
C16   C23   A    
C5    H46   S    
C16   H15   S    
C41   C44   A    
C22   C24   A    
C4    C12   A    
C42   C43   A    
N10   N13   A    
C40   N4    A    
C4    N16   A    
N11   N12   A    
C69   H34   S    
C15   C17   A    
C46   C47   A    
C19   H6    S    
C25   H9    S    
C14   H2    S    
C37   H17   S    
N12   Ni2   S    
N9    N15   A    
C49   H19   S    
C56   H12   S    
C51   C60   A    
C57   H31   S    
C46   C50   A    
C34   C52   A    
C43   H22   S    
C31   C38   S    
N6    N16   A    
C28   H26   S    
C64   C65   A    
C58   C59   A    
C13   C34   S    
C10   H47   S    
C3    H45   S    
C67   N10   A    
C32   C33   A    
C2    H44   S    
C57   C58   A    
C66   C70   S    
C23   C39   S    
C33   C35   A    
C42   C47   A    
C66   H39   S    
C61   C62   A    
C36   O1    S    
C26   H10   S    
N3    N5    A    
C44   H24   S    
C10   C11   A    
C40   H32   S    
C62   H29   S    
C60   H25   S    
C50   H21   S    
C15   H4    S    
C20   C21   A    
C8    C67   A    
C69   N11   A    
C64   N7    A    
C21   H7    S    
C67   H23   S    
C14   C15   A    
C54   H28   S    
C68   O1    S    
N2    Ni3   S    
C21   C22   A    
C11   H48   S    
C8    C35   S    
C45   H37   S    
C39   C48   A    
