data_mof_unit_13542.cif
_audit_creation_date              2012-10-26T21:06:31-0400
_audit_creation_method            fapswitch 2.2
_symmetry_space_group_name_H-M    P1
_symmetry_Int_Tables_number       1
_space_group_crystal_system       triclinic
_cell_length_a                    15.852929
_cell_length_b                    10.773135
_cell_length_c                    9.600377
_cell_angle_alpha                 90.870528
_cell_angle_beta                  91.696017
_cell_angle_gamma                 91.677819
_cell_volume                      1637.9749784

loop_
_atom_site_label
_atom_site_type_symbol
_atom_type_description
_atom_site_fract_x
_atom_site_fract_y
_atom_site_fract_z
_atom_type_partial_charge
C1    C     C_R   0.497150 0.262513 0.499032 0.520143
C2    C     C_R   0.553524 0.576552 0.080470 0.036930
C3    C     C_R   0.339961 0.499736 0.498151 0.540307
C4    C     C_R   0.660011 0.500323 0.501890 0.542249
C5    C     C_3   0.970861 0.391869 0.549028 -0.115258
C6    C     C_3   0.029069 0.612741 0.454861 -0.092822
C7    C     C_3   0.022527 0.410508 0.416218 0.045267
C8    C     C_3   0.977104 0.593838 0.587829 0.046495
C9    C     C_1   0.250250 0.500075 0.494273 -0.041406
C10   C     C_1   0.749688 0.500875 0.506173 -0.040919
C11   C     C_3   0.032059 0.483699 0.630282 0.039305
C12   C     C_R   0.502745 0.737496 0.500930 0.518441
C13   C     C_3   0.967943 0.520888 0.373862 0.048077
C14   C     C_3   0.083057 0.501161 0.497797 0.035388
C15   C     C_3   0.916973 0.502804 0.506312 0.023536
C16   C     C_1   0.174704 0.500603 0.493920 -0.070952
C17   C     C_1   0.825241 0.501539 0.507906 -0.076623
C18   C     C_R   0.553675 0.068715 0.415700 -0.112891
C19   C     C_R   0.446000 0.931290 0.583964 -0.103225
C20   C     C_3   0.053665 0.303703 0.326204 -0.275495
C21   C     C_3   0.980964 0.224554 0.261494 -0.433266
C22   C     C_3   0.946049 0.697757 0.682443 -0.274559
C23   C     C_R   0.559855 0.940070 0.417687 0.000523
C24   C     C_3   0.005959 0.811432 0.686793 -0.438521
C25   C     C_3   0.925520 0.548969 0.233188 -0.270724
C26   C     C_3   0.989724 0.570363 0.120713 -0.450181
C27   C     C_3   0.067865 0.449950 0.774272 -0.279793
C28   C     C_3   0.125831 0.551573 0.840032 -0.432845
C29   C     C_2   0.626698 0.879908 0.337164 0.215840
C30   C     C_2   0.372227 0.120010 0.660970 0.206242
C31   C     C_3   0.389160 0.321399 0.127100 -0.261736
C32   C     C_3   0.421853 0.191240 0.100506 -0.421874
C33   C     C_3   0.623923 0.658988 0.873062 -0.248806
C34   C     C_R   0.439612 0.059927 0.581587 0.000884
C35   C     C_3   0.711837 0.607796 0.899964 -0.444862
C36   C     C_R   0.504587 0.871675 0.502217 -0.043593
C37   C     C_R   0.495157 0.128345 0.497560 -0.044263
C38   C     C_R   0.447069 0.419938 0.067266 0.129623
C39   C     C_R   0.556044 0.575377 0.932780 0.132005
C40   C     C_R   0.446204 0.423887 0.919517 0.032578
Cu1   Cu    Cu3+1 0.500000 0.500020 0.640660 0.924508
Cu2   Cu    Cu3+1 0.500000 0.499980 0.359340 0.924223
H1    H     H_    0.945705 0.302043 0.588028 0.104129
H2    H     H_    0.093691 0.341316 0.242901 0.139916
H3    H     H_    0.093433 0.243923 0.392876 0.144097
H4    H     H_    0.072074 0.784921 0.708417 0.162879
H5    H     H_    0.002793 0.859613 0.585404 0.147621
H6    H     H_    0.986951 0.877098 0.769588 0.141908
H7    H     H_    0.883196 0.727086 0.643288 0.144957
H8    H     H_    0.938433 0.661656 0.788961 0.136009
H9    H     H_    0.034417 0.648033 0.151099 0.152064
H10   H     H_    0.025416 0.485144 0.102010 0.153028
H11   H     H_    0.956041 0.594442 0.022428 0.131582
H12   H     H_    0.054675 0.701997 0.415164 0.105489
H13   H     H_    0.881222 0.471383 0.201252 0.146146
H14   H     H_    0.888161 0.633972 0.244891 0.148917
H15   H     H_    0.174850 0.582386 0.767049 0.173075
H16   H     H_    0.088743 0.632073 0.872182 0.151227
H17   H     H_    0.157855 0.515167 0.934717 0.135986
H18   H     H_    0.014690 0.430378 0.844136 0.133267
H19   H     H_    0.103987 0.363681 0.763419 0.149838
H20   H     H_    0.642601 0.784231 0.355601 0.114643
H21   H     H_    0.357412 0.216321 0.644116 0.117431
H22   H     H_    0.420694 0.168859 0.987216 0.179652
H23   H     H_    0.596628 0.123701 0.353976 0.171229
H24   H     H_    0.487519 0.184342 0.142540 0.181382
H25   H     H_    0.381193 0.121529 0.152762 0.149518
H26   H     H_    0.379843 0.331906 0.238583 0.209896
H27   H     H_    0.325149 0.327700 0.077577 0.106696
H28   H     H_    0.727529 0.606439 0.013440 0.139990
H29   H     H_    0.715199 0.512042 0.856411 0.178181
H30   H     H_    0.759763 0.667688 0.849210 0.132326
H31   H     H_    0.615952 0.674651 0.761601 0.208940
H32   H     H_    0.621465 0.752743 0.922617 0.131728
H33   H     H_    0.403097 0.876266 0.645740 0.175873
H34   H     H_    0.403419 0.363220 0.858254 0.121385
H35   H     H_    0.596058 0.637606 0.141719 0.124355
H36   H     H_    0.938650 0.189838 0.343374 0.159158
H37   H     H_    0.944135 0.278824 0.185139 0.153617
H38   H     H_    0.006654 0.143541 0.205832 0.140041
N1    N     N_R   0.500020 0.500030 0.852070 -0.230704
N2    N     N_R   0.499980 0.499970 0.147930 -0.230891
O1    O     O_R   0.500000 0.319660 0.618740 -0.501820
O2    O     O_2   0.331340 0.061864 0.745363 -0.539027
O3    O     O_R   0.500000 0.680340 0.381260 -0.500687
O4    O     O_R   0.499990 0.319630 0.381170 -0.513736
O5    O     O_R   0.500010 0.680370 0.618830 -0.516592
O6    O     O_R   0.379080 0.500000 0.618760 -0.501902
O7    O     O_R   0.620920 0.500000 0.381240 -0.502057
O8    O     O_R   0.379080 0.499970 0.381190 -0.510315
O9    O     O_R   0.620920 0.500030 0.618810 -0.505890
O10   O     O_2   0.665720 0.937191 0.249757 -0.532502

loop_
_geom_bond_atom_site_label_1
_geom_bond_atom_site_label_2
_ccdc_geom_bond_type
C34   C37   A    
Cu1   Cu2   S    
Cu2   N2    S    
C25   H14   S    
C28   H15   S    
C18   H23   S    
C33   C39   S    
C12   O3    A    
C3    O8    A    
C23   C29   S    
C9    C16   T    
C5    C11   S    
C27   H18   S    
C11   C14   S    
C10   C17   T    
Cu1   O1    S    
C27   H19   S    
C2    C39   A    
C7    C14   S    
C35   H28   S    
C21   H36   S    
C8    C22   S    
Cu2   O4    S    
C12   C36   S    
C20   H3    S    
C1    C37   S    
C22   H8    S    
C4    O9    A    
C5    H1    S    
C35   H29   S    
C30   H21   S    
C38   N2    A    
C13   C25   S    
C6    H12   S    
C20   H2    S    
C31   H26   S    
Cu1   O5    S    
C30   C34   S    
C18   C23   A    
C24   H6    S    
C32   H22   S    
C5    C7    S    
C6    C8    S    
C25   C26   S    
C40   H34   S    
Cu2   O8    S    
C3    C9    S    
C26   H10   S    
C6    C14   S    
C31   H27   S    
C31   C32   S    
C11   C27   S    
Cu1   N1    S    
C21   H37   S    
Cu2   O3    S    
C39   N1    A    
C32   H25   S    
C33   H31   S    
Cu1   O9    S    
C35   H30   S    
C7    C20   S    
C8    C15   S    
C13   C15   S    
C14   C16   S    
C2    N2    A    
C4    C10   S    
C26   H11   S    
C32   H24   S    
C4    O7    A    
C28   H17   S    
C22   H7    S    
C1    O4    A    
C15   C17   S    
Cu1   O6    S    
C29   H20   S    
C12   O5    A    
C3    O6    A    
C24   H5    S    
C40   N1    A    
C18   C37   A    
C25   H13   S    
C19   C34   A    
C28   H16   S    
C1    O1    A    
C31   C38   S    
C19   C36   A    
Cu2   O7    S    
C24   H4    S    
C19   H33   S    
C2    H35   S    
C26   H9    S    
C6    C13   S    
C38   C40   A    
C8    C11   S    
C21   H38   S    
C33   C35   S    
C22   C24   S    
C30   O2    D    
C5    C15   S    
C33   H32   S    
C7    C13   S    
C20   C21   S    
C23   C36   A    
C27   C28   S    
C29   O10   D    
