data_mof_unit_12650.cif
_audit_creation_date              2012-12-10T18:02:13-0500
_audit_creation_method            fapswitch 2.2
_symmetry_space_group_name_H-M    P1
_symmetry_Int_Tables_number       1
_space_group_crystal_system       triclinic
_cell_length_a                    10.899602
_cell_length_b                    9.495158
_cell_length_c                    23.607364
_cell_angle_alpha                 90.029174
_cell_angle_beta                  90.276521
_cell_angle_gamma                 89.960435
_cell_volume                      2443.1780346

loop_
_atom_site_label
_atom_site_type_symbol
_atom_type_description
_atom_site_fract_x
_atom_site_fract_y
_atom_site_fract_z
_atom_type_partial_charge
C1    C     C_R   0.261712 0.500629 0.500285 0.969478
C2    C     C_R   0.737674 0.500129 0.499703 0.949477
C3    C     C_R   0.607511 0.423929 0.241274 -0.125551
C4    C     C_R   0.458640 0.373473 0.760998 -0.135782
C5    C     C_R   0.606263 0.424930 0.300463 -0.077108
C6    C     C_R   0.449583 0.379097 0.702084 -0.068380
C7    C     C_R   0.510274 0.497357 0.328777 -0.189251
C8    C     C_R   0.496162 0.498164 0.672586 -0.197459
C9    C     C_R   0.417112 0.565382 0.296986 -0.111690
C10   C     C_R   0.540838 0.614803 0.704530 -0.111632
C11   C     C_R   0.424621 0.570877 0.237249 -0.040871
C12   C     C_R   0.530281 0.615516 0.764283 -0.049790
C13   C     C_R   0.519294 0.496349 0.209651 0.232636
C14   C     C_R   0.495884 0.490481 0.792570 0.229891
C15   C     C_R   0.063070 0.382172 0.517952 0.343223
C16   C     C_R   0.934097 0.618366 0.476239 0.344730
C17   C     C_R   0.935689 0.386207 0.521445 0.333703
C18   C     C_R   0.063042 0.624851 0.481103 0.339191
C19   C     C_R   0.871121 0.500683 0.498257 -0.310063
C20   C     C_R   0.127129 0.502781 0.499771 -0.350502
C21   C     C_R   0.432683 0.074411 0.460977 -0.026934
C22   C     C_R   0.569256 0.925698 0.538137 0.044040
C23   C     C_R   0.568824 0.074558 0.538414 0.046399
C24   C     C_R   0.433256 0.925406 0.460841 -0.001906
C25   C     C_R   0.504029 0.499448 0.391178 0.858517
C26   C     C_R   0.499138 0.499760 0.609347 0.822841
C27   C     C_R   0.611302 0.511022 0.880783 0.585700
C28   C     C_R   0.426075 0.416056 0.121952 0.587508
C29   C     C_R   0.402595 0.436114 0.883702 0.607944
C30   C     C_R   0.617283 0.538377 0.119154 0.613175
C31   C     C_R   0.408797 0.423762 0.942846 -0.054274
C32   C     C_R   0.619073 0.529821 0.059860 -0.053219
C33   C     C_R   0.514457 0.471143 0.971475 -0.076192
C34   C     C_R   0.517628 0.471186 0.031253 -0.074927
C35   C     C_R   0.616515 0.519044 0.940349 -0.085552
C36   C     C_R   0.419045 0.413863 0.062326 -0.093493
C37   C     C_R   0.311293 0.366344 0.973717 -0.246807
C38   C     C_R   0.718487 0.581994 0.028760 -0.250522
C39   C     C_R   0.315742 0.359492 0.033054 0.503737
C40   C     C_R   0.720105 0.573287 0.969401 0.495970
Cu1   Cu    Cu3+1 0.500000 0.640660 0.500000 1.010556
Cu2   Cu    Cu3+1 0.500000 0.359340 0.500000 1.031659
H1    H     H_    0.232065 0.323663 0.951831 0.195365
H2    H     H_    0.795000 0.631361 0.050397 0.195478
H3    H     H_    0.678214 0.366453 0.218871 0.195202
H4    H     H_    0.431261 0.278526 0.783040 0.198727
H5    H     H_    0.378775 0.130567 0.429726 0.133805
H6    H     H_    0.625944 0.869609 0.567946 0.147326
H7    H     H_    0.624021 0.130755 0.569150 0.142651
H8    H     H_    0.381770 0.868708 0.429042 0.156013
N1    N     N_R   0.503085 0.479430 0.853642 -0.455937
N2    N     N_R   0.521007 0.483545 0.148848 -0.459911
N3    N     N_R   0.500000 0.852070 0.500000 -0.176389
N4    N     N_R   0.500000 0.147930 0.500000 -0.168746
O1    O     O_R   0.319640 0.618740 0.500000 -0.539543
O2    O     O_R   0.680360 0.381260 0.500000 -0.531158
O3    O     O_R   0.680360 0.618740 0.500000 -0.560770
O4    O     O_R   0.319640 0.381260 0.500000 -0.543954
O5    O     O_R   0.499960 0.618810 0.417880 -0.608299
O6    O     O_R   0.500040 0.381190 0.582120 -0.578871
O7    O     O_R   0.500040 0.618810 0.582120 -0.584526
O8    O     O_R   0.499960 0.381190 0.417880 -0.560427
O9    O     O_2   0.713434 0.533663 0.850039 -0.471254
O10   O     O_2   0.338521 0.352895 0.153138 -0.456460
O11   O     O_2   0.296358 0.406706 0.856596 -0.530785
O12   O     O_2   0.710439 0.602072 0.146957 -0.528861
O13   O     O_3   0.222572 0.292362 0.062197 -0.517490
C41   C     C_3   0.114578 0.373856 0.058903 -0.207871
H9    H     H_    0.131700 0.486940 0.068904 0.150898
H10   H     H_    0.048624 0.333685 0.090665 0.213640
H11   H     H_    0.070863 0.362478 0.016613 0.121969
O14   O     O_3   0.815025 0.635116 0.939519 -0.522664
C42   C     C_3   0.924825 0.560385 0.949577 -0.198987
H12   H     H_    0.993752 0.594373 0.917992 0.222345
H13   H     H_    0.912320 0.444596 0.944379 0.148504
H14   H     H_    0.962618 0.585423 0.992163 0.122928
C43   C     C_2   0.706483 0.347605 0.330358 0.851839
O15   O     O_2   0.738662 0.381460 0.378047 -0.638689
O16   O     O_R   0.766833 0.236939 0.302955 -0.742954
H15   H     H_    0.833680 0.193067 0.327223 0.340775
C44   C     C_2   0.385816 0.260034 0.673877 0.884838
O17   O     O_2   0.307159 0.282774 0.637911 -0.539826
O18   O     O_R   0.411366 0.121844 0.690604 -0.723665
H16   H     H_    0.361146 0.049931 0.668804 0.357163
C45   C     C_2   0.305463 0.615155 0.326183 0.903774
O19   O     O_2   0.272127 0.737614 0.321808 -0.603476
O20   O     O_R   0.237555 0.518498 0.357797 -0.769522
H17   H     H_    0.157637 0.558295 0.372184 0.311990
C46   C     C_2   0.607203 0.731037 0.676480 0.921118
O21   O     O_2   0.565113 0.850405 0.676974 -0.576271
O22   O     O_R   0.720065 0.703284 0.650864 -0.763666
H18   H     H_    0.762073 0.791624 0.636734 0.330624
C47   C     C_2   0.332224 0.649239 0.202986 0.913052
O23   O     O_2   0.366050 0.727260 0.164937 -0.571008
O24   O     O_R   0.206919 0.631093 0.213092 -0.714637
H19   H     H_    0.153706 0.688824 0.186484 0.345443
C48   C     C_2   0.555018 0.745685 0.797664 0.936002
O25   O     O_2   0.482511 0.782757 0.834143 -0.574461
O26   O     O_R   0.661920 0.823643 0.788545 -0.695649
H20   H     H_    0.668066 0.908899 0.814272 0.351247
O27   O     O_3   0.125584 0.268117 0.540579 -0.507770
C49   C     C_3   0.118698 0.154576 0.502145 -0.152652
H21   H     H_    0.179908 0.069271 0.517545 0.194274
H22   H     H_    0.150380 0.185145 0.459075 0.117042
H23   H     H_    0.024288 0.111037 0.499883 0.189255
O28   O     O_3   0.869361 0.732415 0.454955 -0.560450
C50   C     C_3   0.832348 0.704110 0.398472 -0.252560
H24   H     H_    0.827074 0.805371 0.375174 0.181478
H25   H     H_    0.739431 0.657387 0.397552 0.205447
H26   H     H_    0.896652 0.634280 0.374836 0.144921
O29   O     O_3   0.874613 0.275902 0.547277 -0.562827
C51   C     C_3   0.863417 0.306607 0.605502 -0.199366
H27   H     H_    0.815122 0.217969 0.626309 0.178452
H28   H     H_    0.807790 0.403386 0.612522 0.153295
H29   H     H_    0.954906 0.317291 0.626214 0.204924
O30   O     O_3   0.127596 0.751640 0.476670 -0.553243
C52   C     C_3   0.097314 0.832120 0.428306 -0.186454
H30   H     H_    0.075055 0.767303 0.390673 0.167540
H31   H     H_    0.177092 0.897886 0.416896 0.153638
H32   H     H_    0.022289 0.907035 0.437935 0.190596

loop_
_geom_bond_atom_site_label_1
_geom_bond_atom_site_label_2
_ccdc_geom_bond_type
C22   H6    S    
O20   H17   S    
C47   O23   D    
C8    C26   S    
Cu1   Cu2   S    
O24   H19   S    
Cu1   O7    S    
Cu2   O4    S    
C51   H28   S    
C44   O17   D    
C2    O3    A    
C4    H4    S    
C45   O19   D    
O27   C49   S    
C38   C40   A    
C26   O7    A    
C52   H31   S    
C14   N1    S    
C21   N4    A    
C23   H7    S    
O28   C50   S    
C11   C13   A    
O30   C52   S    
C49   H23   S    
C15   C17   A    
C42   H12   S    
Cu1   O1    S    
Cu2   O2    S    
O29   C51   S    
C10   C46   S    
C41   H9    S    
C50   H24   S    
C31   C33   A    
C32   C38   A    
C46   O22   S    
Cu2   O8    S    
C18   C20   A    
C3    C13   A    
C16   O28   S    
C9    C45   S    
C11   C47   S    
C43   O16   S    
C47   O24   S    
C6    C44   S    
C42   H13   S    
C17   O29   S    
C51   H27   S    
C44   O18   S    
C27   N1    A    
C48   O25   D    
C22   N3    A    
C45   O20   S    
C24   H8    S    
C15   C20   A    
O13   C41   S    
Cu1   O5    S    
C4    C6    A    
C48   O26   S    
C52   H32   S    
Cu2   O6    S    
O22   H18   S    
C5    C7    A    
C17   C19   A    
C6    C8    A    
C27   C35   A    
C24   N3    A    
C43   O15   D    
C3    H3    S    
C31   C37   A    
C32   C34   A    
C37   H1    S    
C38   H2    S    
C13   N2    S    
O18   H16   S    
C29   C31   A    
C33   C34   A    
C15   O27   S    
C49   H22   S    
C9    C11   A    
Cu1   N3    S    
C12   C48   S    
C30   O12   S    
C10   C12   A    
C29   O11   S    
C28   O10   S    
C8    C10   A    
C12   C14   A    
C50   H26   S    
C18   O30   S    
C23   N4    A    
C29   N1    A    
C7    C9    A    
C30   N2    A    
C1    C20   S    
C40   O14   S    
C2    C19   S    
C39   O13   S    
C36   C39   A    
O14   C42   S    
C3    C5    A    
C41   H11   S    
C7    C25   S    
O26   H20   S    
C35   C40   A    
C1    O1    A    
Cu1   O3    S    
C37   C39   A    
C2    O2    A    
C1    O4    A    
Cu2   N4    S    
C30   C32   A    
C28   N2    A    
C50   H25   S    
C26   O6    A    
C16   C19   A    
C33   C35   A    
C34   C36   A    
C25   O8    A    
C4    C14   A    
C49   H21   S    
O16   H15   S    
C42   H14   S    
C28   C36   A    
C16   C18   A    
C21   C24   A    
C41   H10   S    
C22   C23   A    
C27   O9    S    
C25   O5    A    
C46   O21   D    
C52   H30   S    
C5    C43   S    
C51   H29   S    
C21   H5    S    
