data_mof_unit_60549.cif
_audit_creation_date              2013-03-05T16:28:12-0500
_audit_creation_method            fapswitch 2.2
_symmetry_space_group_name_H-M    P1
_symmetry_Int_Tables_number       1
_space_group_crystal_system       triclinic
_cell_length_a                    17.25897
_cell_length_b                    18.117242
_cell_length_c                    19.457934
_cell_angle_alpha                 89.990177
_cell_angle_beta                  90.17074
_cell_angle_gamma                 86.406238
_cell_volume                      6072.21127047

loop_
_atom_site_label
_atom_site_type_symbol
_atom_site_description
_atom_site_fract_x
_atom_site_fract_y
_atom_site_fract_z
_atom_type_partial_charge
O1    O     O_R   0.500030 0.438020 0.599820 -0.584878
O2    O     O_R   0.499970 0.561980 0.400180 -0.584878
O3    O     O_R   0.500000 0.561930 0.599810 -0.587728
O4    O     O_R   0.500000 0.438070 0.400190 -0.587728
C1    C     C_R   0.500143 0.499968 0.632502 0.797270
C2    C     C_R   0.499857 0.500032 0.367498 0.797270
O5    O     O_R   0.613620 0.430860 0.500010 -0.588525
O6    O     O_R   0.386380 0.569140 0.499990 -0.588525
O7    O     O_R   0.613580 0.554770 0.500010 -0.587465
O8    O     O_R   0.386420 0.445230 0.499990 -0.587464
C3    C     C_R   0.650274 0.490757 0.501785 0.804285
C4    C     C_R   0.349725 0.509243 0.498215 0.804284
Cu1   Cu    Cu3+1 0.500020 0.426640 0.500000 0.951051
Cu2   Cu    Cu3+1 0.499980 0.573360 0.500000 0.951051
C5    C     C_R   0.734818 0.487018 0.508555 -0.039989
C6    C     C_R   0.265182 0.512982 0.491445 -0.039989
C7    C     C_R   0.771986 0.551044 0.526666 -0.170136
C8    C     C_R   0.228014 0.448957 0.473334 -0.170137
C9    C     C_R   0.852103 0.548549 0.533645 -0.108723
C10   C     C_R   0.147897 0.451451 0.466354 -0.108722
C11   C     C_R   0.896003 0.482427 0.521465 0.163251
C12   C     C_R   0.103997 0.517573 0.478535 0.163250
C13   C     C_R   0.859425 0.417855 0.505286 -0.114971
C14   C     C_R   0.140574 0.582144 0.494715 -0.114971
C15   C     C_R   0.778869 0.420056 0.498900 -0.190808
C16   C     C_R   0.221130 0.579944 0.501100 -0.190808
C17   C     C_2   0.980434 0.481568 0.523785 0.045488
C18   C     C_2   0.019566 0.518432 0.476215 0.045488
H1    H     H_    0.739221 0.603102 0.535621 0.159315
H2    H     H_    0.260779 0.396899 0.464379 0.159315
H3    H     H_    0.248735 0.630082 0.514437 0.154832
H4    H     H_    0.751265 0.369918 0.485563 0.154832
H5    H     H_    0.893310 0.366413 0.496290 0.151109
H6    H     H_    0.106690 0.633586 0.503710 0.151109
H7    H     H_    0.119833 0.401570 0.452873 0.154452
H8    H     H_    0.880167 0.598430 0.547127 0.154452
C19   C     C_R   0.499981 0.566942 0.255631 -0.173240
C20   C     C_R   0.500019 0.433058 0.744369 -0.173240
H9    H     H_    0.500127 0.619357 0.282376 0.154748
H10   H     H_    0.499873 0.380643 0.717623 0.154747
C21   C     C_R   0.499989 0.566914 0.184070 -0.157208
C22   C     C_R   0.500011 0.433086 0.815930 -0.157209
H11   H     H_    0.499422 0.619234 0.157081 0.134225
H12   H     H_    0.500578 0.380766 0.842919 0.134225
C23   C     C_R   0.499563 0.500034 0.147762 0.101653
C24   C     C_R   0.500437 0.499966 0.852238 0.101653
C25   C     C_R   0.499034 0.433161 0.184093 -0.155042
C26   C     C_R   0.500966 0.566839 0.815907 -0.155042
H13   H     H_    0.499593 0.380838 0.157129 0.137105
H14   H     H_    0.500407 0.619162 0.842871 0.137105
C27   C     C_R   0.499089 0.433137 0.255657 -0.171532
C28   C     C_R   0.500911 0.566863 0.744342 -0.171531
H15   H     H_    0.498914 0.380725 0.282425 0.160406
H16   H     H_    0.501086 0.619275 0.717575 0.160406
C29   C     C_R   0.499635 0.500037 0.292017 -0.040621
C30   C     C_R   0.500365 0.499963 0.707983 -0.040621
C31   C     C_R   0.451330 0.454463 0.035548 -0.165097
C32   C     C_R   0.548670 0.545537 0.964452 -0.165096
H17   H     H_    0.412489 0.419680 0.062330 0.138126
H18   H     H_    0.587511 0.580320 0.937670 0.138125
C33   C     C_R   0.451561 0.454437 0.963987 -0.163873
C34   C     C_R   0.548439 0.545563 0.036012 -0.163872
H19   H     H_    0.412884 0.419640 0.936832 0.137938
H20   H     H_    0.587116 0.580360 0.063168 0.137938
C35   C     C_R   0.500235 0.499972 0.927898 0.092681
C36   C     C_R   0.499765 0.500028 0.072102 0.092681
C37   C     C_R   0.550570 0.274980 0.540408 0.074322
C38   C     C_R   0.449430 0.725019 0.459592 0.074321
H21   H     H_    0.590846 0.302088 0.573137 0.128449
H22   H     H_    0.409154 0.697912 0.426864 0.128449
C39   C     C_R   0.550874 0.197439 0.540102 -0.307615
C40   C     C_R   0.449125 0.802561 0.459898 -0.307616
H23   H     H_    0.591390 0.165729 0.572898 0.157597
H24   H     H_    0.408610 0.834271 0.427102 0.157597
C41   C     C_R   0.498483 0.161392 0.498224 0.054689
C42   C     C_R   0.501516 0.838608 0.501776 0.054689
C43   C     C_R   0.447158 0.205534 0.456260 0.062734
C44   C     C_R   0.552841 0.794466 0.543740 0.062734
C45   C     C_R   0.449100 0.282977 0.458338 0.057912
C46   C     C_R   0.550900 0.717023 0.541661 0.057912
H25   H     H_    0.410179 0.316712 0.425857 0.138922
H26   H     H_    0.589821 0.683288 0.574143 0.138922
N1    N     N_R   0.500010 0.316380 0.499980 -0.186358
N2    N     N_R   0.499990 0.683620 0.500020 -0.186358
C47   C     C_R   0.431908 0.042325 0.515792 -0.122604
C48   C     C_R   0.568092 0.957675 0.484208 -0.122603
H27   H     H_    0.378819 0.074160 0.528918 0.157496
H28   H     H_    0.621181 0.925840 0.471082 0.157496
C49   C     C_R   0.432734 0.964690 0.516443 -0.157537
C50   C     C_R   0.567266 0.035310 0.483557 -0.157537
H29   H     H_    0.380160 0.938340 0.529650 0.143513
H30   H     H_    0.619840 0.061659 0.470349 0.143512
C51   C     C_R   0.501005 0.921346 0.501222 0.129371
C52   C     C_R   0.498995 0.078654 0.498778 0.129371
I1    I     I_    0.369806 0.160213 0.385067 -0.402134
I2    I     I_    0.630194 0.839787 0.614933 -0.402135
I3    I     I_    0.964848 0.576231 0.391956 -0.366853
I4    I     I_    0.035152 0.423769 0.608044 -0.366853

loop_
_geom_bond_atom_site_label_1
_geom_bond_atom_site_label_2
_geom_bond_distance
_ccdc_geom_bond_type
C18   I3    2.131339 S    
C32   C34   1.392433 A    
C39   C41   1.406392 A    
C17   I4    2.131338 S    
C37   N1    1.362532 A    
C7    H1    1.083260 S    
C1    C30   1.468696 S    
Cu2   N2    1.997616 S    
C31   C36   1.403333 A    
C40   C42   1.406392 A    
C25   H13   1.083064 S    
O5    C3    1.290327 A    
O1    C1    1.290163 A    
C9    C11   1.397392 A    
C14   C16   1.393564 A    
C20   C22   1.392430 A    
C9    H8    1.083645 S    
C44   C46   1.406137 A    
C31   H17   1.083043 S    
C32   H18   1.083046 S    
C48   H28   1.082879 S    
C8    C10   1.386907 A    
C22   C24   1.403104 A    
C23   C25   1.403155 A    
O4    Cu1   1.953067 S    
C33   H19   1.083044 S    
C34   H20   1.083046 S    
C10   H7    1.083644 S    
C3    C5    1.462005 S    
C4    C6    1.462005 S    
C44   I2    2.121846 S    
C13   H5    1.083324 S    
C8    H2    1.083258 S    
C49   H29   1.083005 S    
C2    C29   1.468696 S    
C27   C29   1.404054 A    
C46   N2    1.362850 A    
C15   H4    1.083071 S    
C26   H14   1.083064 S    
C11   C17   1.456861 S    
C16   H3    1.083069 S    
C12   C18   1.456861 S    
Cu1   Cu2   2.658119 S    
C49   C51   1.406722 A    
C21   H11   1.083068 S    
O2    C2    1.290164 A    
C22   H12   1.083066 S    
C28   H16   1.083128 S    
C50   C52   1.406722 A    
C43   C45   1.406137 A    
C6    C16   1.403711 A    
C24   C26   1.403154 A    
C34   C36   1.403421 A    
C47   H27   1.082879 S    
C38   N2    1.362533 A    
C24   C35   1.472208 S    
C40   H24   1.083082 S    
C48   C50   1.405769 A    
C45   H25   1.081702 S    
C47   C49   1.405769 A    
C25   C27   1.392491 A    
C43   I1    2.121845 S    
C14   H6    1.083321 S    
C38   C40   1.404527 A    
C37   H21   1.081754 S    
C19   C29   1.403984 A    
O7    Cu2   1.968420 S    
C48   C51   1.407540 A    
C42   C51   1.498502 S    
C41   C43   1.413381 A    
C47   C52   1.407540 A    
C32   C35   1.403333 A    
C50   H30   1.083005 S    
O5    Cu1   1.966891 S    
O6    C4    1.290328 A    
O7    C3    1.286482 A    
O3    Cu2   1.953067 S    
O8    C4    1.286484 A    
O4    C2    1.290058 A    
C10   C12   1.397389 A    
C11   C13   1.399187 A    
C12   C14   1.399184 A    
O1    Cu1   1.953239 S    
C17   C18   1.348713 D    
C39   H23   1.083083 S    
C5    C7    1.404733 A    
O6    Cu2   1.966893 S    
C42   C44   1.413379 A    
O3    C1    1.290059 A    
O8    Cu1   1.968418 S    
C31   C33   1.392433 A    
Cu1   N1    1.997620 S    
C19   H9    1.083087 S    
C20   H10   1.083087 S    
C7    C9    1.386909 A    
C46   H26   1.081700 S    
C37   C39   1.404527 A    
C13   C15   1.393564 A    
C19   C21   1.392430 A    
O2    Cu2   1.953241 S    
C5    C15   1.403715 A    
C45   N1    1.362850 A    
C33   C35   1.403421 A    
C26   C28   1.392491 A    
C20   C30   1.403984 A    
C6    C8    1.404731 A    
C23   C36   1.472208 S    
C38   H22   1.081753 S    
C21   C23   1.403104 A    
C27   H15   1.083128 S    
C28   C30   1.404054 A    
C41   C52   1.498502 S    
