data_mof_unit_48122.cif
_audit_creation_date              2012-12-10T18:49:56-0500
_audit_creation_method            fapswitch 2.2
_symmetry_space_group_name_H-M    P1
_symmetry_Int_Tables_number       1
_space_group_crystal_system       triclinic
_cell_length_a                    10.705639
_cell_length_b                    9.820017
_cell_length_c                    10.774713
_cell_angle_alpha                 89.406131
_cell_angle_beta                  90.510008
_cell_angle_gamma                 89.894609
_cell_volume                      1132.63297181

loop_
_atom_site_label
_atom_site_type_symbol
_atom_type_description
_atom_site_fract_x
_atom_site_fract_y
_atom_site_fract_z
_atom_type_partial_charge
C1    C     C_R   0.259839 0.500087 0.501519 0.966272
C2    C     C_3   0.618520 0.401656 0.936047 -0.086918
C3    C     C_R   0.064248 0.378403 0.524817 -0.113673
C4    C     C_R   0.063540 0.621858 0.477056 -0.144218
C5    C     C_R   0.936373 0.378189 0.523488 -0.117876
C6    C     C_R   0.935658 0.621587 0.475444 -0.184344
C7    C     C_R   0.872520 0.499789 0.498821 -0.006688
C8    C     C_R   0.127399 0.500243 0.501662 0.018850
C9    C     C_R   0.604166 0.071291 0.535077 0.001906
C10   C     C_R   0.604215 0.927460 0.534930 0.049647
C11   C     C_R   0.396356 0.928663 0.462960 -0.043932
C12   C     C_R   0.396337 0.072598 0.462992 -0.060916
C13   C     C_R   0.497311 0.501318 0.257780 0.888532
C14   C     C_R   0.740106 0.499920 0.498751 0.938113
C15   C     C_R   0.507905 0.499298 0.742123 0.931119
C16   C     C_3   0.522941 0.657578 0.070641 -0.107736
C17   C     C_3   0.369412 0.442686 0.068400 -0.102153
C18   C     C_3   0.527810 0.650460 0.925838 -0.278912
C19   C     C_3   0.375806 0.452780 0.922943 -0.339784
C20   C     C_3   0.609409 0.413358 0.080332 -0.509544
C21   C     C_3   0.497123 0.505127 0.121300 -0.160348
C22   C     C_3   0.510813 0.497989 0.879035 -0.192404
H1    H     H_    0.313630 0.874834 0.432934 0.128065
H2    H     H_    0.313559 0.127441 0.433039 0.146793
H3    H     H_    0.444160 0.705698 0.888550 0.216141
H4    H     H_    0.313511 0.537603 0.891635 0.150964
H5    H     H_    0.695806 0.452388 0.123683 0.199581
H6    H     H_    0.607013 0.312136 0.125885 0.229947
H7    H     H_    0.113264 0.283870 0.544516 0.169603
H8    H     H_    0.111970 0.716443 0.457909 0.153587
H9    H     H_    0.887948 0.283614 0.542688 0.163009
H10   H     H_    0.886635 0.716044 0.455418 0.165085
H11   H     H_    0.687609 0.124972 0.563160 0.159694
H12   H     H_    0.687626 0.872723 0.563139 0.144527
N1    N     N_R   0.499970 0.857200 0.499970 -0.085412
N2    N     N_R   0.499970 0.142800 0.499970 -0.098441
O1    O     O_R   0.316750 0.614620 0.499990 -0.647554
O2    O     O_R   0.316750 0.385380 0.499990 -0.625400
O3    O     O_R   0.499970 0.614670 0.314790 -0.612284
O4    O     O_R   0.499970 0.385330 0.314790 -0.639569
O5    O     O_R   0.683220 0.614710 0.500010 -0.631935
O6    O     O_R   0.683220 0.385290 0.500010 -0.623609
O7    O     O_R   0.500010 0.614660 0.685200 -0.601221
O8    O     O_R   0.500010 0.385340 0.685200 -0.591612
Zn1   Zn    Zn3+2 0.499980 0.653120 0.500000 1.012622
Zn2   Zn    Zn3+2 0.499980 0.346880 0.500000 1.010022
C23   C     C_2   0.646924 0.712965 0.124821 0.442825
H13   H     H_    0.735347 0.666838 0.101114 0.065109
O9    O     O_2   0.649903 0.811450 0.193371 -0.531798
C24   C     C_2   0.348050 0.294837 0.112495 0.522903
H14   H     H_    0.421164 0.233912 0.154702 0.133674
O10   O     O_2   0.245991 0.240711 0.099779 -0.530489
C25   C     C_2   0.420468 0.760011 0.106196 0.472339
H15   H     H_    0.358672 0.741620 0.183446 0.096513
O11   O     O_2   0.412612 0.870835 0.054008 -0.543280
C26   C     C_2   0.255355 0.521650 0.113447 0.394640
H16   H     H_    0.201838 0.587633 0.051403 0.080611
O12   O     O_2   0.222390 0.513746 0.221458 -0.593939
C27   C     C_2   0.636282 0.731036 0.869793 0.496511
H17   H     H_    0.732467 0.701438 0.885145 0.067285
O13   O     O_2   0.616005 0.834987 0.809787 -0.563601
C28   C     C_2   0.319109 0.330837 0.856291 0.529156
H18   H     H_    0.361565 0.231066 0.862524 0.126754
O14   O     O_2   0.223345 0.343919 0.794826 -0.585986
C29   C     C_2   0.749481 0.444437 0.892533 0.854496
O15   O     O_2   0.768697 0.463162 0.781922 -0.639808
O16   O     O_R   0.849909 0.454978 0.976087 -0.801129
H19   H     H_    0.930709 0.481885 0.934062 0.367791
C30   C     C_2   0.606013 0.251107 0.897791 0.891304
O17   O     O_2   0.647227 0.213169 0.798314 -0.582075
O18   O     O_R   0.553643 0.153673 0.977188 -0.818385
H20   H     H_    0.553602 0.059054 0.940620 0.410982

loop_
_geom_bond_atom_site_label_1
_geom_bond_atom_site_label_2
_ccdc_geom_bond_type
C17   C24   S    
C2    C22   S    
C9    N2    A    
C24   O10   D    
C11   C12   A    
N2    Zn2   S    
C16   C21   S    
C20   H5    S    
C12   N2    A    
C1    C8    S    
C9    C10   A    
C12   H2    S    
C6    H10   S    
C23   H13   S    
C1    O1    A    
O3    Zn1   S    
C2    C29   S    
C18   C27   S    
C11   N1    A    
C24   H14   S    
C13   C21   S    
O18   H20   S    
C23   O9    D    
C18   C22   S    
C14   O6    A    
C26   H16   S    
O2    Zn2   S    
O4    Zn2   S    
O7    Zn1   S    
C17   C26   S    
C28   H18   S    
C18   H3    S    
C1    O2    A    
C9    H11   S    
C14   O5    A    
C16   C23   S    
C16   C18   S    
C17   C19   S    
C26   O12   D    
C15   O8    A    
C3    C8    A    
C6    C7    A    
C5    C7    A    
C25   O11   D    
C30   O17   D    
C10   N1    A    
C17   C21   S    
C7    C14   S    
C13   O3    A    
C4    C6    A    
C27   O13   D    
C19   C28   S    
O1    Zn1   S    
O16   H19   S    
C2    C30   S    
C3    C5    A    
C30   O18   S    
C27   H17   S    
C19   C22   S    
C20   C21   S    
C15   O7    A    
C10   H12   S    
C29   O15   D    
O6    Zn2   S    
C11   H1    S    
C4    C8    A    
C3    H7    S    
C19   H4    S    
O5    Zn1   S    
C16   C25   S    
C13   O4    A    
C28   O14   D    
C20   H6    S    
C29   O16   S    
C25   H15   S    
C2    C20   S    
C15   C22   S    
C4    H8    S    
O8    Zn2   S    
C5    H9    S    
N1    Zn1   S    
