data_mof_unit_20918.cif
_audit_creation_date              2012-12-10T17:15:14-0500
_audit_creation_method            fapswitch 2.2
_symmetry_space_group_name_H-M    P1
_symmetry_Int_Tables_number       1
_space_group_crystal_system       triclinic
_cell_length_a                    10.176798
_cell_length_b                    10.60123
_cell_length_c                    12.725034
_cell_angle_alpha                 91.335392
_cell_angle_beta                  90.022628
_cell_angle_gamma                 95.743673
_cell_volume                      1365.591886

loop_
_atom_site_label
_atom_site_type_symbol
_atom_type_description
_atom_site_fract_x
_atom_site_fract_y
_atom_site_fract_z
_atom_type_partial_charge
C1    C     C_R   0.445328 0.265955 0.489481 0.959469
C2    C     C_R   0.592684 0.361437 0.032221 -0.030432
C3    C     C_R   0.410828 0.630252 0.857447 0.027717
C4    C     C_R   0.584005 0.366647 0.142721 0.111972
C5    C     C_R   0.482748 0.416659 0.869951 -0.099851
C6    C     C_R   0.514436 0.580864 0.128804 -0.032233
C7    C     C_R   0.517673 0.442421 0.975167 -0.087033
C8    C     C_R   0.476156 0.553070 0.024670 0.037258
C9    C     C_2   0.417053 0.130230 0.468915 -0.008002
C10   C     C_2   0.589773 0.870539 0.502011 0.023020
C11   C     C_2   0.520045 0.067574 0.439466 -0.254201
C12   C     C_R   0.555704 0.734087 0.506927 0.935938
C13   C     C_2   0.513362 0.931299 0.438008 -0.153858
C14   C     C_2   0.536554 0.715533 0.168656 0.450355
C15   C     C_2   0.461947 0.282392 0.828410 0.382582
C16   C     C_3   0.606287 0.251008 0.207222 -0.338703
C17   C     C_3   0.510538 0.135981 0.174731 -0.816018
C18   C     C_3   0.378965 0.744216 0.794088 -0.438875
C19   C     C_3   0.464495 0.865621 0.827958 -0.871600
C20   C     C_2   0.300903 0.707917 0.019948 0.335565
C21   C     C_2   0.689270 0.286284 0.975690 0.364253
C22   C     C_3   0.696616 0.942884 0.570953 -0.415095
C23   C     C_2   0.071499 0.511074 0.523765 0.001319
C24   C     C_3   0.767343 0.862925 0.647280 -0.806166
C25   C     C_3   0.278686 0.065955 0.484414 -0.363488
C26   C     C_3   0.204777 0.047939 0.379933 -0.789031
C27   C     C_2   0.899045 0.633571 0.437343 0.455886
C28   C     C_2   0.104649 0.450111 0.621934 0.486956
C29   C     C_2   0.930743 0.527382 0.503571 -0.098078
C30   C     C_R   0.474143 0.510041 0.698334 0.963492
C31   C     C_R   0.525984 0.490880 0.301515 0.940153
C32   C     C_R   0.545833 0.479850 0.189951 -0.146368
C33   C     C_R   0.453048 0.519071 0.809580 -0.093516
C34   C     C_R   0.400794 0.633636 0.967498 -0.003586
H1    H     H_    0.435320 0.880323 0.390847 0.205585
H2    H     H_    0.709947 0.228367 0.201094 0.258238
H3    H     H_    0.590623 0.267355 0.291897 0.177373
H4    H     H_    0.432884 0.902686 0.905065 0.244277
H5    H     H_    0.569615 0.847598 0.834399 0.265788
H6    H     H_    0.455851 0.940114 0.769066 0.270558
H7    H     H_    0.396212 0.730929 0.709042 0.218878
H8    H     H_    0.272810 0.758399 0.802108 0.207734
H9    H     H_    0.257646 0.782584 0.979724 0.093373
H10   H     H_    0.709895 0.302775 0.893237 0.075800
H11   H     H_    0.695595 0.799763 0.692170 0.245235
H12   H     H_    0.617819 0.116783 0.428587 0.176297
H13   H     H_    0.835677 0.805172 0.604423 0.299511
H14   H     H_    0.826810 0.926448 0.703834 0.249749
H15   H     H_    0.772137 0.993106 0.519637 0.233496
H16   H     H_    0.650243 0.015509 0.618782 0.228058
H17   H     H_    0.196896 0.141301 0.343804 0.254937
H18   H     H_    0.256497 0.987332 0.324623 0.261973
H19   H     H_    0.103671 0.001577 0.393505 0.282424
H20   H     H_    0.281569 0.973020 0.522543 0.223537
H21   H     H_    0.222410 0.124612 0.538117 0.257721
H22   H     H_    0.815406 0.623963 0.385044 0.158739
H23   H     H_    0.863434 0.374345 0.585028 0.172377
H24   H     H_    0.075595 0.489642 0.696810 0.025429
H25   H     H_    0.133965 0.584306 0.386734 0.213703
H26   H     H_    0.516474 0.793073 0.118992 0.068618
H27   H     H_    0.469148 0.204102 0.880774 0.063988
H28   H     H_    0.407420 0.155505 0.192026 0.247083
H29   H     H_    0.518592 0.112070 0.089815 0.271349
H30   H     H_    0.533085 0.052076 0.219361 0.263923
N1    N     N_2   0.162330 0.550370 0.457540 -0.194708
N2    N     N_2   0.837670 0.449630 0.542460 -0.247336
O1    O     O_R   0.567930 0.307680 0.508550 -0.625757
O2    O     O_2   0.429907 0.256589 0.737413 -0.570854
O3    O     O_2   0.259730 0.681411 0.107668 -0.563026
O4    O     O_2   0.750437 0.209223 0.019350 -0.568390
O5    O     O_2   0.968941 0.734213 0.439681 -0.613901
O6    O     O_2   0.154700 0.350337 0.619768 -0.539336
O7    O     O_R   0.432070 0.692320 0.491450 -0.630527
O8    O     O_R   0.351090 0.340020 0.481290 -0.557280
O9    O     O_R   0.648910 0.659980 0.518710 -0.619764
O10   O     O_R   0.590490 0.486480 0.665020 -0.601098
O11   O     O_R   0.409510 0.513520 0.334980 -0.580074
O12   O     O_R   0.373660 0.518820 0.637760 -0.600418
O13   O     O_R   0.626340 0.481180 0.362240 -0.657893
O14   O     O_2   0.585746 0.742591 0.254722 -0.616899
Zn1   Zn    Zn3+2 0.644780 0.478400 0.518200 0.934181
Zn2   Zn    Zn3+2 0.355220 0.521600 0.481800 1.007530

loop_
_geom_bond_atom_site_label_1
_geom_bond_atom_site_label_2
_ccdc_geom_bond_type
C6    C32   A    
C27   C29   S    
C2    C7    A    
H23   N2    S    
C9    C25   S    
C7    C8    A    
C10   C22   S    
C1    O8    A    
C23   C29   S    
C13   H1    S    
C18   H8    S    
C17   H30   S    
C3    C33   A    
C3    C18   S    
C18   C19   S    
C16   C17   S    
C5    C33   A    
C14   O14   D    
C16   H3    S    
C22   H16   S    
C20   C34   S    
C12   O7    A    
C28   O6    D    
O8    Zn2   S    
C31   O11   A    
C24   H14   S    
C1    C9    S    
C25   H20   S    
C18   H7    S    
C5    C7    A    
C27   H22   S    
O9    Zn1   S    
C6    C8    A    
C3    C34   A    
C25   C26   S    
C4    C16   S    
C2    C4    A    
C19   H4    S    
C26   H18   S    
C17   H28   S    
C6    C14   S    
C21   H10   S    
C30   O10   A    
O12   Zn2   S    
C31   C32   S    
C2    C21   S    
C15   H27   S    
C8    C34   A    
C23   C28   S    
C9    C11   D    
C4    C32   A    
C10   C12   S    
C22   H15   S    
O1    Zn1   S    
C22   C24   S    
C20   O3    D    
C24   H11   S    
C26   H19   S    
O7    Zn2   S    
C20   H9    S    
C27   O5    D    
O13   Zn1   S    
C30   C33   S    
H25   N1    S    
C24   H13   S    
C25   H21   S    
C10   C13   D    
O10   Zn1   S    
C31   O13   A    
C28   H24   S    
C14   H26   S    
C21   O4    D    
C23   N1    D    
C26   H17   S    
C16   H2    S    
N2    Zn1   S    
C11   C13   S    
N1    Zn2   S    
O11   Zn2   S    
C15   O2    D    
C1    O1    A    
C5    C15   S    
C19   H6    S    
C29   N2    D    
C30   O12   A    
C19   H5    S    
C12   O9    A    
C11   H12   S    
C17   H29   S    
