data_mof_unit_37474.cif
_audit_creation_date              2012-12-10T17:23:12-0500
_audit_creation_method            fapswitch 2.2
_symmetry_space_group_name_H-M    P1
_symmetry_Int_Tables_number       1
_space_group_crystal_system       triclinic
_cell_length_a                    15.865627
_cell_length_b                    10.781583
_cell_length_c                    9.643633
_cell_angle_alpha                 90.055921
_cell_angle_beta                  89.457322
_cell_angle_gamma                 93.333332
_cell_volume                      1646.74193728

loop_
_atom_site_label
_atom_site_type_symbol
_atom_type_description
_atom_site_fract_x
_atom_site_fract_y
_atom_site_fract_z
_atom_type_partial_charge
C1    C     C_R   0.507068 0.263033 0.500829 0.827080
C2    C     C_3   0.083500 0.501310 0.498134 -0.009029
C3    C     C_3   0.975875 0.618800 0.520205 -0.238277
C4    C     C_3   0.916240 0.502336 0.496236 0.005506
C5    C     C_3   0.031719 0.577121 0.397757 -0.114604
C6    C     C_3   0.971155 0.462058 0.373704 -0.163171
C7    C     C_1   0.175158 0.501076 0.500744 0.197193
C8    C     C_1   0.824734 0.502238 0.497358 0.194005
C9    C     C_R   0.533229 0.108090 0.762899 0.386989
C10   C     C_R   0.500290 0.051059 0.883335 -0.264746
C11   C     C_R   0.444692 0.946738 0.873976 -0.233470
C12   C     C_R   0.340128 0.499540 0.500529 0.846612
C13   C     C_R   0.430987 0.888503 0.745967 0.376362
C14   C     C_R   0.472872 0.937800 0.625559 -0.041724
C15   C     C_R   0.508270 0.060427 0.631067 -0.021779
C16   C     C_R   0.514670 0.128255 0.504410 -0.058611
C17   C     C_R   0.511985 0.064068 0.378121 -0.138174
C18   C     C_R   0.501327 0.936022 0.376871 -0.163231
C19   C     C_R   0.483276 0.871020 0.500468 -0.043595
C20   C     C_R   0.628664 0.633876 0.143803 -0.265952
C21   C     C_R   0.707164 0.654391 0.080491 0.328440
C22   C     C_R   0.714309 0.636508 0.938041 0.356676
C23   C     C_R   0.492148 0.736633 0.500217 0.840606
C24   C     C_R   0.639364 0.623169 0.861371 -0.088049
C25   C     C_R   0.565662 0.564145 0.925857 0.057324
C26   C     C_R   0.563098 0.566776 0.074540 0.072054
C27   C     C_R   0.441202 0.431605 0.074972 0.462491
C28   C     C_R   0.439150 0.435073 0.927126 0.003701
C29   C     C_R   0.659807 0.500259 0.499451 0.849160
C30   C     C_3   0.967537 0.426368 0.596676 0.324873
C31   C     C_3   0.023112 0.386199 0.474281 -0.196222
C32   C     C_1   0.250596 0.500389 0.501489 -0.006153
C33   C     C_1   0.749298 0.501375 0.498229 -0.006668
C34   C     C_3   0.028013 0.541460 0.620144 0.399079
Cu1   Cu    Cu3+1 0.499990 0.499990 0.640660 1.032591
Cu2   Cu    Cu3+1 0.500010 0.500010 0.359340 1.032299
H1    H     H_    0.414531 0.908605 0.967000 0.208427
H2    H     H_    0.507094 0.888220 0.278658 0.162839
H3    H     H_    0.622137 0.667470 0.247360 0.233111
H4    H     H_    0.955977 0.714415 0.539360 0.219553
H5    H     H_    0.519148 0.112550 0.279981 0.178721
H6    H     H_    0.517295 0.088152 0.984318 0.195346
N1    N     N_R   0.500800 0.501210 0.147910 -0.211720
N2    N     N_R   0.500830 0.501290 0.852040 -0.213803
O1    O     O_R   0.499990 0.319640 0.618810 -0.592305
O2    O     O_R   0.500000 0.319660 0.381240 -0.547080
O3    O     O_R   0.379070 0.499980 0.618770 -0.569729
O4    O     O_R   0.379080 0.500000 0.381190 -0.520584
O5    O     O_R   0.500000 0.680340 0.618760 -0.578056
O6    O     O_R   0.500010 0.680360 0.381190 -0.613472
O7    O     O_R   0.620920 0.500000 0.618810 -0.532841
O8    O     O_R   0.620930 0.500020 0.381230 -0.593715
C35   C     C_2   0.046339 0.255285 0.448977 0.498741
H7    H     H_    0.996943 0.182766 0.434259 0.103706
O9    O     O_2   0.120181 0.229548 0.444685 -0.488692
Cl1   Cl    Cl    0.350557 0.768837 0.738456 -0.533537
Cl2   Cl    Cl    0.370807 0.325812 0.163943 -0.517825
Cl3   Cl    Cl    0.793639 0.709979 0.180513 -0.513700
Cl4   Cl    Cl    0.813205 0.663798 0.854232 -0.409861
C36   C     C_2   0.631018 0.729975 0.768921 0.495168
H8    H     H_    0.583078 0.794461 0.791829 0.051026
O10   O     O_2   0.679625 0.751090 0.671717 -0.506449
C37   C     C_2   0.370501 0.363100 0.855391 0.534736
H9    H     H_    0.383917 0.299886 0.772389 0.076235
O11   O     O_2   0.296909 0.374607 0.888651 -0.451139
Cl5   Cl    Cl    0.923897 0.327184 0.730146 -0.445074
C38   C     C_2   0.941798 0.417823 0.233808 0.487113
H10   H     H_    0.987813 0.393286 0.156087 0.125746
O12   O     O_2   0.866755 0.409279 0.206522 -0.467764
C39   C     C_2   0.064771 0.662771 0.285033 0.494826
H11   H     H_    0.020832 0.710680 0.221673 0.135666
O13   O     O_2   0.140524 0.678965 0.263671 -0.483814
Cl6   Cl    Cl    0.065906 0.594126 0.784575 -0.411422
Cl7   Cl    Cl    0.619406 0.217684 0.783284 -0.537964

loop_
_geom_bond_atom_site_label_1
_geom_bond_atom_site_label_2
_ccdc_geom_bond_type
C37   O11   D    
C10   H6    S    
C2    C7    S    
C12   O4    A    
Cu1   O3    S    
C35   H7    S    
C5    C6    S    
C1    O2    A    
C23   O5    A    
C15   C16   A    
C29   C33   S    
C36   O10   D    
C18   C19   A    
C11   H1    S    
Cu1   Cu2   S    
C16   C17   A    
Cu1   O5    S    
Cu2   O2    S    
C39   H11   S    
C9    C10   A    
Cu2   O8    S    
C4    C8    S    
C13   Cl1   S    
C2    C34   S    
C6    C31   S    
C13   C14   A    
C12   C32   S    
C12   O3    A    
C25   N2    A    
C26   N1    A    
C35   O9    D    
C30   C34   S    
C38   H10   S    
C24   C25   A    
C4    C6    S    
C27   Cl2   S    
C22   Cl4   S    
C20   H3    S    
C23   O6    A    
C3    C34   S    
C25   C26   A    
C28   N2    A    
C2    C31   S    
C38   O12   D    
C19   C23   S    
C5    C39   S    
C24   C36   S    
C17   C18   A    
C1    C16   S    
C31   C35   S    
Cu1   N2    S    
C30   Cl5   S    
C6    C38   S    
C3    H4    S    
Cu1   O7    S    
C22   C24   A    
C2    C5    S    
C9    Cl7   S    
C3    C4    S    
Cu1   O1    S    
Cu2   O6    S    
C29   O7    A    
C7    C32   T    
C14   C19   A    
C3    C5    S    
C18   H2    S    
C21   Cl3   S    
C11   C13   A    
C1    O1    A    
C30   C31   S    
C20   C26   A    
Cu2   O4    S    
C8    C33   T    
C9    C15   A    
C17   H5    S    
C10   C11   A    
C34   Cl6   S    
C37   H9    S    
C28   C37   S    
C27   N1    A    
C20   C21   A    
C27   C28   A    
C14   C15   A    
C36   H8    S    
Cu2   N1    S    
C39   O13   D    
C21   C22   A    
C4    C30   S    
C29   O8    A    
