data_mof_unit_24196.cif
_audit_creation_date              2012-12-10T16:54:54-0500
_audit_creation_method            fapswitch 2.2
_symmetry_space_group_name_H-M    P1
_symmetry_Int_Tables_number       1
_space_group_crystal_system       triclinic
_cell_length_a                    7.771528
_cell_length_b                    8.566976
_cell_length_c                    15.71618
_cell_angle_alpha                 90.470628
_cell_angle_beta                  87.546358
_cell_angle_gamma                 93.41438
_cell_volume                      1043.52776911

loop_
_atom_site_label
_atom_site_type_symbol
_atom_type_description
_atom_site_fract_x
_atom_site_fract_y
_atom_site_fract_z
_atom_type_partial_charge
Br1   Br    Br    0.098881 0.431931 0.085079 -0.572303
Br2   Br    Br    0.654684 0.180295 0.896572 -0.559095
C1    C     C_R   0.545553 0.794576 0.497795 0.961587
C2    C     C_2   0.430425 0.041990 0.503416 -0.370983
C3    C     C_R   0.504537 0.500018 0.661490 0.904052
C4    C     C_R   0.454446 0.205427 0.502182 0.963797
C5    C     C_R   0.495123 0.499553 0.338539 0.888285
C6    C     C_3   0.336043 0.574552 0.950690 0.282704
C7    C     C_3   0.659864 0.568841 0.953268 -0.433544
C8    C     C_3   0.634739 0.589613 0.050198 -0.420014
C9    C     C_1   0.481855 0.495581 0.250121 -0.155544
C10   C     C_3   0.496151 0.483659 0.917086 0.019371
C11   C     C_3   0.121301 0.425846 0.868916 0.160684
C12   C     C_3   0.309329 0.554232 0.048946 -0.053037
C13   C     C_3   0.010695 0.458457 0.793969 -0.771450
C14   C     C_3   0.627839 0.114019 0.116959 0.134276
C15   C     C_3   0.802508 0.054117 0.135637 -0.727476
C16   C     C_3   0.475224 0.486538 0.083459 0.076730
C17   C     C_3   0.492895 0.315272 0.051229 0.359704
C18   C     C_3   0.484384 0.312230 0.952249 0.086257
C19   C     C_1   0.473148 0.491363 0.175070 0.020685
C20   C     C_1   0.511672 0.489605 0.825416 0.026564
C21   C     C_1   0.513435 0.495053 0.750065 -0.148783
C22   C     C_2   0.569572 0.958016 0.496504 -0.371250
H1    H     H_    0.293337 0.671903 0.077959 0.142621
H2    H     H_    0.753519 0.558781 0.081606 0.279456
H3    H     H_    0.359254 0.251817 0.937963 0.084898
H4    H     H_    0.379226 0.242607 0.077967 0.061772
H5    H     H_    0.041589 0.356386 0.916723 0.219865
H6    H     H_    0.222824 0.353817 0.842124 0.132169
H7    H     H_    0.092643 0.512477 0.741346 0.258500
H8    H     H_    0.947402 0.347657 0.770513 0.241547
H9    H     H_    0.910596 0.540619 0.812283 0.255240
H10   H     H_    0.560006 0.027272 0.074924 0.140647
H11   H     H_    0.551955 0.124747 0.178220 0.121117
H12   H     H_    0.701133 0.008703 0.489891 0.182465
H13   H     H_    0.871915 0.136537 0.179060 0.270577
H14   H     H_    0.784505 0.937780 0.166486 0.184550
H15   H     H_    0.881101 0.042694 0.075433 0.279885
H16   H     H_    0.298864 0.991303 0.510022 0.182798
H17   H     H_    0.012671 0.383122 0.436621 0.199191
H18   H     H_    0.987327 0.616729 0.563470 0.194605
H19   H     H_    0.381648 0.699876 0.943699 0.135870
H20   H     H_    0.773774 0.499028 0.940457 0.274993
H21   H     H_    0.688200 0.685331 0.923174 0.198305
H22   H     H_    0.616099 0.714832 0.065406 0.159568
N1    N     N_2   0.950340 0.457950 0.477370 -0.169238
N2    N     N_2   0.049660 0.542050 0.522630 -0.175416
O1    O     O_R   0.389240 0.738570 0.505550 -0.611270
O2    O     O_3   0.652370 0.261305 0.076974 -0.539604
O3    O     O_R   0.678400 0.711630 0.491050 -0.630267
O4    O     O_R   0.355360 0.513470 0.630110 -0.621439
O5    O     O_R   0.644510 0.486530 0.615610 -0.617977
O6    O     O_R   0.321600 0.288370 0.508950 -0.630450
O7    O     O_R   0.610760 0.261430 0.494450 -0.611909
O8    O     O_R   0.355490 0.513470 0.384390 -0.616132
O9    O     O_R   0.644640 0.486530 0.369890 -0.602921
O10   O     O_3   0.180995 0.570709 0.904360 -0.584547
Zn1   Zn    Zn3+2 0.306930 0.517990 0.509680 0.950946
Zn2   Zn    Zn3+2 0.693070 0.482010 0.490320 0.958365

loop_
_geom_bond_atom_site_label_1
_geom_bond_atom_site_label_2
_ccdc_geom_bond_type
C8    H22   S    
C6    C12   S    
C6    H19   S    
C3    O4    A    
C7    H21   S    
O3    Zn2   S    
O4    Zn1   S    
C16   C19   S    
C7    C8    S    
C12   C16   S    
N1    N2    D    
O1    Zn1   S    
O8    Zn1   S    
C4    O7    A    
C6    C10   S    
C14   H10   S    
C10   C18   S    
C17   C18   S    
H17   N1    S    
C13   H8    S    
C12   H1    S    
H18   N2    S    
O7    Zn2   S    
C5    C9    S    
C17   H4    S    
C17   O2    S    
C8    H2    S    
C1    C22   S    
C22   H12   S    
C5    O8    A    
C4    O6    A    
C2    C22   D    
C11   H5    S    
C18   H3    S    
O5    Zn2   S    
C14   O2    S    
C15   H14   S    
C11   C13   S    
C14   H11   S    
C1    O1    A    
C8    C16   S    
C7    C10   S    
Br2   C18   S    
C10   C20   S    
C11   H6    S    
N2    Zn1   S    
C2    C4    S    
C16   C17   S    
C15   H15   S    
C3    O5    A    
C11   O10   S    
C1    O3    A    
C20   C21   T    
O9    Zn2   S    
C15   H13   S    
Br1   C12   S    
C6    O10   S    
N1    Zn2   S    
O6    Zn1   S    
C13   H7    S    
C5    O9    A    
C9    C19   T    
C2    H16   S    
C13   H9    S    
C14   C15   S    
C7    H20   S    
C3    C21   S    
