data_mof_unit_36485.cif
_audit_creation_date              2012-12-10T20:41:47-0500
_audit_creation_method            fapswitch 2.2
_symmetry_space_group_name_H-M    P1
_symmetry_Int_Tables_number       1
_space_group_crystal_system       triclinic
_cell_length_a                    14.964819
_cell_length_b                    15.373543
_cell_length_c                    9.931583
_cell_angle_alpha                 89.525295
_cell_angle_beta                  89.786495
_cell_angle_gamma                 90.627621
_cell_volume                      2284.6505667

loop_
_atom_site_label
_atom_site_type_symbol
_atom_type_description
_atom_site_fract_x
_atom_site_fract_y
_atom_site_fract_z
_atom_type_partial_charge
C1    C     C_R   0.377612 0.882655 0.499359 0.982051
C2    C     C_R   0.384474 0.123940 0.500380 0.932158
C3    C     C_R   0.876452 0.384384 0.499111 0.966940
C4    C     C_R   0.880336 0.619908 0.498520 0.909086
C5    C     C_3   0.233721 0.149441 0.715379 0.183036
C6    C     C_3   0.391772 0.692777 0.628286 0.191194
C7    C     C_3   0.818197 0.737164 0.757480 0.205046
C8    C     C_3   0.917500 0.196659 0.437938 0.175359
C9    C     C_R   0.434383 0.957045 0.072601 0.266412
C10   C     C_R   0.922543 0.486611 0.071924 0.283602
C11   C     C_R   0.562418 0.046604 0.065852 0.410564
C12   C     C_R   0.075760 0.521566 0.067282 0.429275
C13   C     C_R   0.555882 0.052135 0.924553 -0.051473
C14   C     C_R   0.073858 0.521965 0.924750 -0.041970
C15   C     C_R   0.435560 0.955742 0.930386 0.267200
C16   C     C_R   0.922198 0.487635 0.930122 0.227699
C17   C     C_3   0.418248 0.860348 0.927021 -0.523874
C18   C     C_3   0.861477 0.410004 0.926563 -0.440028
C19   C     C_3   0.416589 0.861342 0.079690 -0.458300
C20   C     C_3   0.863460 0.408077 0.078884 -0.458030
C21   C     C_R   0.626297 0.113361 0.500192 0.926590
C22   C     C_R   0.618831 0.879769 0.500851 0.952344
C23   C     C_R   0.119311 0.619730 0.499812 0.939470
C24   C     C_R   0.117185 0.377489 0.499848 0.993680
C25   C     C_R   0.277070 0.213779 0.621541 -0.049203
C26   C     C_R   0.334240 0.731862 0.522548 -0.121975
C27   C     C_R   0.798645 0.733743 0.609614 -0.107788
C28   C     C_R   0.831380 0.242861 0.424989 -0.059292
C29   C     C_R   0.327635 0.198924 0.504489 -0.248201
C30   C     C_R   0.310459 0.817203 0.492792 -0.253788
C31   C     C_R   0.816539 0.687771 0.492778 -0.206118
C32   C     C_R   0.809223 0.319569 0.491209 -0.246466
C33   C     C_R   0.317474 0.254904 0.392207 0.349834
C34   C     C_R   0.225662 0.833472 0.434891 0.413804
C35   C     C_R   0.770505 0.711533 0.371647 0.398519
C36   C     C_R   0.722561 0.332677 0.540396 0.396777
C37   C     C_R   0.705492 0.774706 0.379016 -0.096370
C38   C     C_R   0.665164 0.261392 0.547039 -0.217301
C39   C     C_R   0.243804 0.308984 0.388798 -0.118956
C40   C     C_R   0.162037 0.766560 0.438957 -0.213317
C41   C     C_R   0.685367 0.814984 0.500908 -0.023715
C42   C     C_R   0.693276 0.179886 0.502896 -0.138940
C43   C     C_R   0.184668 0.312298 0.498443 -0.161647
C44   C     C_R   0.183332 0.686810 0.498300 -0.150184
C45   C     C_R   0.736282 0.795678 0.613619 0.039702
C46   C     C_R   0.775909 0.170190 0.437209 0.061450
C47   C     C_R   0.203014 0.266170 0.615629 0.060262
C48   C     C_R   0.270692 0.668000 0.530634 0.038144
C49   C     C_3   0.745825 0.809148 0.762245 0.130438
C50   C     C_3   0.858597 0.120058 0.480350 0.065826
C51   C     C_3   0.147091 0.198116 0.687442 0.135175
C52   C     C_3   0.313685 0.627895 0.652040 0.168136
H1    H     H_    0.349564 0.845693 0.122638 0.254352
H2    H     H_    0.472582 0.824975 0.126267 0.211828
H3    H     H_    0.797297 0.420799 0.125029 0.261282
H4    H     H_    0.897561 0.350196 0.119883 0.272488
H5    H     H_    0.668951 0.791623 0.288914 0.202240
H6    H     H_    0.597614 0.269229 0.584537 0.193415
H7    H     H_    0.233268 0.348912 0.300558 0.241320
H8    H     H_    0.095200 0.777112 0.400997 0.194187
H9    H     H_    0.684598 0.787607 0.817444 0.103325
H10   H     H_    0.858676 0.111556 0.591894 0.114965
H11   H     H_    0.104822 0.161764 0.614431 0.104547
H12   H     H_    0.275791 0.643668 0.745224 0.100938
H13   H     H_    0.233544 0.081828 0.677541 0.135128
H14   H     H_    0.403313 0.737315 0.713700 0.076606
H15   H     H_    0.796567 0.676558 0.810643 0.122425
H16   H     H_    0.961142 0.221526 0.519163 0.077241
H17   H     H_    0.601668 0.092772 0.867331 0.219834
H18   H     H_    0.132303 0.539926 0.866626 0.208206
H19   H     H_    0.352094 0.844490 0.882409 0.231822
H20   H     H_    0.475682 0.824004 0.884986 0.219787
H21   H     H_    0.794139 0.425322 0.887544 0.265252
H22   H     H_    0.892811 0.352660 0.880906 0.286999
N1    N     N_R   0.499140 0.000000 0.142800 -0.177487
N2    N     N_R   0.999140 0.500000 0.142800 -0.162607
N3    N     N_R   0.499160 0.000000 0.857150 -0.141773
N4    N     N_R   0.999160 0.500000 0.857150 -0.118748
O1    O     O_R   0.408400 0.908380 0.614690 -0.640077
O2    O     O_R   0.408400 0.091620 0.614690 -0.590556
O3    O     O_R   0.908400 0.408380 0.614690 -0.580318
O4    O     O_R   0.908400 0.591620 0.614690 -0.584791
O5    O     O_R   0.408370 0.908370 0.385350 -0.583700
O6    O     O_R   0.408370 0.091630 0.385350 -0.542468
O7    O     O_R   0.908370 0.408370 0.385350 -0.602126
O8    O     O_R   0.908370 0.591630 0.385350 -0.561122
O9    O     O_R   0.591610 0.091610 0.614650 -0.626687
O10   O     O_R   0.591610 0.908390 0.614650 -0.607237
O11   O     O_R   0.091610 0.591610 0.614650 -0.607697
O12   O     O_R   0.091610 0.408390 0.614650 -0.541818
O13   O     O_R   0.591590 0.091600 0.385310 -0.496121
O14   O     O_R   0.591590 0.908400 0.385310 -0.616194
O15   O     O_R   0.091590 0.591600 0.385310 -0.543658
O16   O     O_R   0.091590 0.408400 0.385310 -0.572737
Zn1   Zn    Zn3+2 0.500010 0.000000 0.653130 1.036494
Zn2   Zn    Zn3+2 0.000010 0.500000 0.653130 1.092808
Zn3   Zn    Zn3+2 0.499980 0.000000 0.346870 1.109131
Zn4   Zn    Zn3+2 0.999980 0.500000 0.346870 1.114723
S1    S     S_3+6 0.397167 0.264452 0.260224 0.124177
O17   O     O_2   0.386397 0.189819 0.164924 -0.187970
O18   O     O_2   0.385142 0.348102 0.183177 -0.212100
O19   O     O_3   0.500570 0.262880 0.325278 -0.501950
H23   H     H_    0.505469 0.317076 0.378154 0.376118
S2    S     S_3+6 0.192678 0.935738 0.368327 0.071625
O20   O     O_2   0.108334 0.924770 0.288248 -0.170054
O21   O     O_2   0.175458 0.996257 0.483074 -0.332083
O22   O     O_3   0.270979 0.979918 0.266624 -0.538507
H24   H     H_    0.249999 0.039614 0.247409 0.418288
S3    S     S_3+6 0.786279 0.665154 0.209435 0.062991
O23   O     O_2   0.766243 0.569468 0.218715 -0.239511
O24   O     O_2   0.724995 0.704640 0.106584 -0.330266
O25   O     O_3   0.892299 0.681212 0.157186 -0.508184
H25   H     H_    0.904897 0.743564 0.173926 0.385811
S4    S     S_3+6 0.680508 0.437067 0.577449 0.064816
O26   O     O_2   0.666739 0.485143 0.447023 -0.217651
O27   O     O_2   0.592667 0.428332 0.650284 -0.209329
O28   O     O_3   0.751605 0.494570 0.672737 -0.591864
H26   H     H_    0.719794 0.549076 0.693090 0.393405
S5    S     S_3+6 0.780493 0.917563 0.808742 0.118181
O29   O     O_2   0.864241 0.946243 0.736761 -0.144663
O30   O     O_2   0.708813 0.981163 0.775300 -0.336352
O31   O     O_3   0.797995 0.919503 0.975824 -0.385516
H27   H     H_    0.741803 0.896708 0.016457 0.355550
S6    S     S_3+6 0.880849 0.016984 0.404303 0.186861
O32   O     O_2   0.880335 0.018477 0.253241 -0.074229
O33   O     O_2   0.969880 0.986110 0.453338 -0.147755
O34   O     O_3   0.803244 0.946710 0.457197 -0.532470
H28   H     H_    0.761803 0.981717 0.511703 0.330910
S7    S     S_3+6 0.079248 0.235007 0.824872 0.094014
O35   O     O_2   0.082147 0.172413 0.941729 -0.159687
O36   O     O_2   0.108016 0.323815 0.870654 -0.256274
O37   O     O_3   0.973497 0.239678 0.770017 -0.603167
H29   H     H_    0.950826 0.178955 0.774564 0.379944
S8    S     S_3+6 0.331727 0.512881 0.642240 0.101941
O38   O     O_2   0.333557 0.483303 0.498424 -0.217651
O39   O     O_2   0.417963 0.489887 0.710270 -0.186790
O40   O     O_3   0.247907 0.460878 0.722877 -0.558698
H30   H     H_    0.272400 0.443300 0.811290 0.393643
S9    S     S_3+6 0.283371 0.158950 0.879937 0.138574
O41   O     O_2   0.246036 0.088782 0.970779 -0.203732
O42   O     O_2   0.382518 0.147606 0.869007 -0.291365
O43   O     O_3   0.265133 0.256563 0.949198 -0.420122
H31   H     H_    0.306486 0.297100 0.901481 0.381373
S10   S     S_3+6 0.493900 0.658645 0.547645 0.107996
O44   O     O_2   0.568742 0.663543 0.647705 -0.291691
O45   O     O_2   0.490125 0.568603 0.490848 -0.114285
O46   O     O_3   0.515789 0.727156 0.418832 -0.603803
H32   H     H_    0.479555 0.705472 0.342619 0.373239
S11   S     S_3+6 0.933589 0.765440 0.791691 0.143090
O47   O     O_2   0.941108 0.818552 0.917368 -0.129767
O48   O     O_2   0.986028 0.684149 0.813887 -0.303789
O49   O     O_3   0.979487 0.821211 0.661875 -0.435380
H33   H     H_    0.987403 0.777756 0.589967 0.327505
S12   S     S_3+6 0.973691 0.192204 0.276323 0.108875
O50   O     O_2   0.041275 0.120605 0.277448 -0.164714
O51   O     O_2   0.907449 0.177491 0.165109 -0.200924
O52   O     O_3   0.027619 0.285934 0.243927 -0.579873
H34   H     H_    0.064196 0.274956 0.162680 0.415228
S13   S     S_3+6 0.665942 0.085983 0.126249 0.095061
O53   O     O_2   0.701505 0.023571 0.229083 -0.254649
O54   O     O_2   0.732976 0.092932 0.013305 -0.235037
O55   O     O_3   0.652696 0.186263 0.189549 -0.483405
H35   H     H_    0.709753 0.217551 0.171438 0.385544
S14   S     S_3+6 0.180904 0.554562 0.134119 0.073728
O56   O     O_2   0.206933 0.503631 0.256540 -0.253808
O57   O     O_2   0.253020 0.542996 0.030137 -0.316108
O58   O     O_3   0.176305 0.661061 0.170412 -0.527056
H36   H     H_    0.238696 0.678325 0.191222 0.377484

loop_
_geom_bond_atom_site_label_1
_geom_bond_atom_site_label_2
_ccdc_geom_bond_type
C21   O9    A    
O52   H34   S    
C40   H8    S    
C3    O7    A    
S9    O42   D    
C2    O6    A    
O46   H32   S    
C20   H4    S    
C36   S4    S    
S8    O40   S    
S2    O21   D    
S4    O26   D    
C51   S7    S    
C11   S13   S    
S14   O57   D    
C15   N3    A    
C28   C46   A    
C33   C39   A    
C2    C29   S    
C34   C40   A    
O6    Zn3   S    
C32   C36   A    
S14   O56   D    
C35   C37   A    
C38   C42   A    
C48   C52   S    
S11   O48   D    
S9    O43   S    
C22   C41   S    
C4    O8    A    
O16   Zn4   S    
N2    Zn4   S    
C29   C33   A    
N1    Zn3   S    
C7    C27   S    
C18   C20   S    
C42   C46   A    
S2    O20   D    
O7    Zn4   S    
C7    S11   S    
C10   N2    A    
C9    C19   S    
S13   O53   D    
C10   C20   S    
O37   H29   S    
O9    Zn1   S    
C3    O3    A    
O22   H24   S    
S13   O54   D    
C22   O10   A    
C8    S12   S    
C25   C47   A    
S12   O51   D    
C35   S3    S    
C26   C48   A    
S7    O37   S    
C27   C45   A    
O10   Zn1   S    
C18   H22   S    
C38   H6    S    
C14   H18   S    
S10   O46   S    
O19   H23   S    
C20   H3    S    
O25   H25   S    
O14   Zn3   S    
C5    S9    S    
S5    O30   D    
C25   C29   A    
C13   N3    A    
O4    Zn2   S    
C30   C34   A    
C27   C31   A    
S4    O28   S    
C28   C32   A    
C51   H11   S    
C7    C49   S    
S12   O52   S    
S10   O45   D    
C52   H12   S    
S11   O49   S    
N4    Zn2   S    
O58   H36   S    
O3    Zn2   S    
S7    O35   D    
C47   C51   S    
N3    Zn1   S    
C34   S2    S    
C23   C44   S    
C23   O15   A    
C33   S1    S    
O1    Zn1   S    
C24   O16   A    
C12   S14   S    
S4    O27   D    
S1    O17   D    
C6    H14   S    
S9    O41   D    
C39   H7    S    
C23   O11   A    
C45   C49   S    
S13   O55   S    
C50   S6    S    
O13   Zn3   S    
O2    Zn1   S    
O12   Zn2   S    
S12   O50   D    
C17   H20   S    
S6    O34   S    
C5    C25   S    
C19   H2    S    
C5    H13   S    
S1    O18   D    
C12   C14   A    
C8    H16   S    
C18   H21   S    
C12   N2    A    
C50   H10   S    
C31   C35   A    
S3    O25   S    
C6    S10   S    
O34   H28   S    
C8    C50   S    
S6    O33   D    
O55   H35   S    
C21   O13   A    
S5    O31   S    
C15   C17   S    
C22   O14   A    
S14   O58   S    
S10   O44   D    
C24   O12   A    
S8    O39   D    
S5    O29   D    
C17   H19   S    
S8    O38   D    
C1    O5    A    
O40   H30   S    
C46   C50   S    
C49   S5    S    
O28   H26   S    
O11   Zn2   S    
S3    O24   D    
C9    C15   A    
C10   C16   A    
S11   O47   D    
C11   C13   A    
C49   H9    S    
C19   H1    S    
C6    C26   S    
C13   H17   S    
C1    O1    A    
C36   C38   A    
C1    C30   S    
C17   C19   S    
C16   N4    A    
C14   N4    A    
C37   C41   A    
C3    C32   S    
O8    Zn4   S    
C4    C31   S    
C2    O2    A    
C7    H15   S    
C21   C42   S    
C52   S8    S    
C40   C44   A    
S1    O19   S    
C4    O4    A    
O49   H33   S    
C39   C43   A    
C8    C28   S    
C16   C18   S    
O5    Zn3   S    
C24   C43   S    
C41   C45   A    
O43   H31   S    
C5    C51   S    
C11   N1    A    
C9    N1    A    
C6    C52   S    
O31   H27   S    
S3    O23   D    
C43   C47   A    
O15   Zn4   S    
S2    O22   S    
C37   H5    S    
C44   C48   A    
S6    O32   D    
S7    O36   D    
C26   C30   A    
