data_mof_unit_16476.cif
_audit_creation_date              2012-10-26T21:16:06-0400
_audit_creation_method            fapswitch 2.2
_symmetry_space_group_name_H-M    P1
_symmetry_Int_Tables_number       1
_space_group_crystal_system       triclinic
_cell_length_a                    19.266635
_cell_length_b                    10.925189
_cell_length_c                    9.701221
_cell_angle_alpha                 91.73668
_cell_angle_beta                  89.859406
_cell_angle_gamma                 90.715824
_cell_volume                      2040.92414096

loop_
_atom_site_label
_atom_site_type_symbol
_atom_type_description
_atom_site_fract_x
_atom_site_fract_y
_atom_site_fract_z
_atom_type_partial_charge
C1    C     C_R   0.501527 0.265913 0.497287 0.545522
C2    C     C_R   0.853596 0.547654 0.503389 -0.035999
C3    C     C_2   0.454664 0.934642 0.418998 0.000950
C4    C     C_R   0.367228 0.496129 0.499592 0.510864
C5    C     C_2   0.481921 0.864297 0.515651 -0.114372
C6    C     C_2   0.448760 0.066018 0.455359 0.009920
C7    C     C_2   0.506747 0.134277 0.484951 0.016616
C8    C     C_2   0.459599 0.428190 0.922157 0.111982
C9    C     C_2   0.468085 0.417732 0.076159 0.012827
C10   C     C_R   0.494801 0.734000 0.502561 0.555768
C11   C     C_R   0.632661 0.497766 0.499927 0.539226
C12   C     C_R   0.290648 0.499860 0.498213 0.013268
C13   C     C_R   0.257458 0.564416 0.606634 -0.141701
C14   C     C_R   0.186120 0.583399 0.604287 -0.124006
C15   C     C_R   0.146350 0.540420 0.491879 0.016379
C16   C     C_R   0.179077 0.476198 0.383122 -0.095068
C17   C     C_R   0.250122 0.449710 0.387037 -0.002342
C18   C     C_3   0.375836 0.118029 0.463347 -0.276428
C19   C     C_3   0.335684 0.066447 0.584797 -0.432600
C20   C     C_3   0.580594 0.087193 0.470949 -0.287888
C21   C     C_3   0.601645 0.064537 0.320459 -0.418261
C22   C     C_2   0.403394 0.349919 0.860111 0.246108
C23   C     C_R   0.929678 0.560100 0.495695 0.282398
C24   C     C_3   0.279218 0.366897 0.272219 -0.263619
C25   C     C_3   0.238986 0.245527 0.256491 -0.439931
C26   C     C_2   0.868434 0.410103 0.703145 0.249887
C27   C     C_3   0.720411 0.332390 0.671351 -0.250034
C28   C     C_3   0.750040 0.209655 0.620420 -0.435276
C29   C     C_2   0.841811 0.696153 0.309684 0.260831
C30   C     C_3   0.429006 0.888072 0.278911 -0.253799
C31   C     C_3   0.361387 0.814309 0.289979 -0.407636
C32   C     C_R   0.070227 0.554975 0.490588 0.334491
C33   C     C_R   0.823210 0.467254 0.599298 0.032225
C34   C     C_R   0.750888 0.439559 0.592202 0.022513
C35   C     C_R   0.709123 0.505696 0.500371 -0.022810
C36   C     C_R   0.740042 0.587432 0.409726 -0.106155
C37   C     C_R   0.811729 0.607826 0.408079 0.002501
Cu1   Cu    Cu3+1 0.500010 0.500020 0.638630 0.917520
Cu2   Cu    Cu3+1 0.499990 0.499980 0.361370 0.916969
H1    H     H_    0.287094 0.602993 0.692586 0.137604
H2    H     H_    0.363191 0.089495 0.682879 0.169129
H3    H     H_    0.283161 0.107068 0.589692 0.150035
H4    H     H_    0.375460 0.219148 0.475381 0.142270
H5    H     H_    0.347851 0.094675 0.366206 0.142640
H6    H     H_    0.571125 0.987920 0.272592 0.156252
H7    H     H_    0.593925 0.148397 0.260674 0.172333
H8    H     H_    0.657404 0.040244 0.315292 0.156743
H9    H     H_    0.616904 0.157182 0.515350 0.134501
H10   H     H_    0.589219 0.004366 0.531124 0.139037
H11   H     H_    0.400419 0.328307 0.751702 0.176792
H12   H     H_    0.492563 0.905675 0.617099 0.094946
H13   H     H_    0.233114 0.202212 0.358038 0.152108
H14   H     H_    0.186899 0.259286 0.211475 0.164046
H15   H     H_    0.267594 0.182131 0.185704 0.164447
H16   H     H_    0.277400 0.415424 0.173308 0.186518
H17   H     H_    0.333613 0.341619 0.290465 0.171857
H18   H     H_    0.919849 0.378843 0.674347 0.130977
H19   H     H_    0.743686 0.198534 0.506915 0.153064
H20   H     H_    0.805741 0.201752 0.646100 0.180650
H21   H     H_    0.721798 0.133651 0.670515 0.142822
H22   H     H_    0.729070 0.345983 0.783692 0.209165
H23   H     H_    0.539955 0.543802 0.895243 0.205893
H24   H     H_    0.663623 0.323227 0.659404 0.154813
H25   H     H_    0.896260 0.722175 0.314580 0.139125
H26   H     H_    0.346741 0.776086 0.186614 0.143553
H27   H     H_    0.366943 0.737592 0.361018 0.183397
H28   H     H_    0.318881 0.874002 0.328350 0.139478
H29   H     H_    0.419179 0.966953 0.212195 0.136953
H30   H     H_    0.469403 0.833491 0.224617 0.165270
H31   H     H_    0.443789 0.340730 0.126345 0.171023
H32   H     H_    0.517407 0.576603 0.107691 0.207388
H33   H     H_    0.162316 0.633004 0.689997 0.145291
H34   H     H_    0.148615 0.443127 0.295855 0.145079
H35   H     H_    0.707402 0.637377 0.340580 0.175515
H36   H     H_    0.329869 0.965421 0.573062 0.156695
N1    N     N_R   0.032541 0.513217 0.380405 -0.227454
N2    N     N_R   0.963609 0.515497 0.382926 -0.216784
N3    N     N_R   0.966994 0.604255 0.605188 -0.205716
N4    N     N_R   0.036082 0.601862 0.602560 -0.221442
N5    N     N_2   0.499250 0.498660 0.846910 -0.376497
N6    N     N_2   0.499230 0.498630 0.153040 -0.367081
O1    O     O_R   0.500010 0.321960 0.617040 -0.529697
O2    O     O_2   0.849816 0.401454 0.822814 -0.486345
O3    O     O_2   0.805915 0.741780 0.221737 -0.495529
O4    O     O_R   0.499990 0.321920 0.382900 -0.500078
O5    O     O_R   0.400160 0.500010 0.617110 -0.516355
O6    O     O_R   0.400130 0.499970 0.382960 -0.507259
O7    O     O_R   0.500010 0.678080 0.617100 -0.488189
O8    O     O_R   0.499990 0.678040 0.382960 -0.495196
O9    O     O_R   0.599870 0.500030 0.617040 -0.493598
O10   O     O_R   0.599840 0.499990 0.382890 -0.482364
O11   O     O_2   0.358190 0.306080 0.932794 -0.578668

loop_
_geom_bond_atom_site_label_1
_geom_bond_atom_site_label_2
_ccdc_geom_bond_type
C31   H27   S    
C26   O2    D    
C35   C36   A    
C2    C37   A    
Cu2   O6    S    
C3    C6    S    
C15   C32   S    
C4    O6    A    
C24   H16   S    
C31   H28   S    
C12   C13   A    
C10   O7    A    
Cu1   O5    S    
H23   N5    S    
C36   C37   A    
C25   H14   S    
C18   C19   S    
C30   C31   S    
C4    O5    A    
C15   C16   A    
C34   C35   A    
C13   H1    S    
C27   H22   S    
C10   O8    A    
C8    C9    S    
C12   C17   A    
C8    C22   S    
C4    C12   S    
C19   H3    S    
C22   H11   S    
C29   H25   S    
C13   C14   A    
Cu1   O1    S    
Cu2   O10   S    
C21   H6    S    
N1    N2    A    
C28   H21   S    
C27   C34   S    
C1    O4    A    
C6    C18   S    
C17   C24   S    
C16   H34   S    
C24   C25   S    
Cu2   N6    S    
C29   O3    D    
N3    N4    A    
C16   C17   A    
C1    O1    A    
C23   N2    A    
Cu1   O7    S    
C3    C30   S    
C20   H10   S    
C18   H5    S    
C26   C33   S    
C33   C34   A    
C25   H15   S    
C20   H9    S    
C27   H24   S    
C2    C33   A    
Cu2   O4    S    
C2    C23   S    
C30   H30   S    
C21   H7    S    
C28   H20   S    
C31   H26   S    
C36   H35   S    
C1    C7    S    
C14   H33   S    
C3    C5    D    
C32   N1    A    
C6    C7    D    
C28   H19   S    
C24   H17   S    
Cu1   O9    S    
C11   C35   S    
C25   H13   S    
C5    C10   S    
C18   H4    S    
C32   N4    A    
C11   O9    A    
Cu1   Cu2   S    
Cu1   N5    S    
C19   H36   S    
C23   N3    A    
C26   H18   S    
C9    H31   S    
C11   O10   A    
C20   C21   S    
C7    C20   S    
C29   C37   S    
C27   C28   S    
C8    N5    D    
C22   O11   D    
C14   C15   A    
C5    H12   S    
C21   H8    S    
Cu2   O8    S    
C30   H29   S    
C19   H2    S    
C9    N6    D    
H32   N6    S    
