data_mof_unit_58309.cif
_audit_creation_date              2012-12-10T18:11:43-0500
_audit_creation_method            fapswitch 2.2
_symmetry_space_group_name_H-M    P1
_symmetry_Int_Tables_number       1
_space_group_crystal_system       triclinic
_cell_length_a                    10.552987
_cell_length_b                    12.639845
_cell_length_c                    13.152042
_cell_angle_alpha                 82.600732
_cell_angle_beta                  90.848461
_cell_angle_gamma                 102.180782
_cell_volume                      1700.41244226

loop_
_atom_site_label
_atom_site_type_symbol
_atom_type_description
_atom_site_fract_x
_atom_site_fract_y
_atom_site_fract_z
_atom_type_partial_charge
C1    C     C_R   0.488483 0.439236 0.691138 0.851090
C2    C     C_3   0.065160 0.598559 0.512502 0.135765
C3    C     C_3   0.967372 0.524254 0.587661 0.069155
C4    C     C_3   0.876722 0.500047 0.498557 -0.024044
C5    C     C_R   0.709748 0.691002 0.072208 -0.240015
C6    C     C_R   0.551771 0.596476 0.201887 -0.044227
C7    C     C_R   0.384742 0.306856 0.835110 -0.197885
C8    C     C_R   0.353258 0.281062 0.938664 -0.152238
C9    C     C_R   0.407905 0.352302 0.007396 -0.177706
C10   C     C_R   0.500519 0.448960 0.973658 0.092965
C11   C     C_R   0.545514 0.466037 0.871452 0.066091
C12   C     C_R   0.741912 0.500204 0.499981 0.886980
C13   C     C_R   0.550245 0.529033 0.037975 0.042761
C14   C     C_R   0.658918 0.613879 0.006074 0.147081
C15   C     C_R   0.715775 0.618969 0.909598 0.071925
C16   C     C_R   0.657216 0.547108 0.842298 -0.259859
C17   C     C_R   0.493480 0.527236 0.133179 -0.293402
C18   C     C_R   0.658303 0.681527 0.170988 0.078280
C19   C     C_R   0.477680 0.400986 0.800647 -0.093669
C20   C     C_R   0.317130 0.083950 0.350512 -0.275756
C21   C     C_R   0.656042 0.799878 0.628101 0.021287
C22   C     C_R   0.692239 0.905115 0.654114 -0.256279
C23   C     C_R   0.517821 0.560809 0.309156 0.864610
C24   C     C_R   0.635902 0.987270 0.604033 -0.186958
C25   C     C_R   0.543333 0.964098 0.526908 0.023024
C26   C     C_R   0.510910 0.855334 0.502879 0.222132
C27   C     C_R   0.480238 0.043267 0.473870 -0.017472
C28   C     C_R   0.386873 0.010930 0.398911 0.137211
C29   C     C_R   0.360441 0.904855 0.374553 -0.268109
C30   C     C_R   0.422032 0.828341 0.425761 -0.168545
C31   C     C_R   0.503388 0.152974 0.492979 -0.084399
C32   C     C_R   0.337779 0.188511 0.376555 0.244979
C33   C     C_R   0.258292 0.500117 0.498961 0.871575
C34   C     C_3   0.936355 0.402534 0.484083 0.159137
C35   C     C_3   0.026110 0.424792 0.575562 -0.219260
C36   C     C_3   0.123830 0.500618 0.498313 -0.038218
C37   C     C_3   0.035151 0.475655 0.406558 -0.258931
C38   C     C_3   0.975063 0.575466 0.421426 -0.233874
H1    H     H_    0.378676 0.328114 0.086683 0.135465
H2    H     H_    0.282315 0.207803 0.965270 0.141923
H3    H     H_    0.242729 0.058724 0.295548 0.149482
H4    H     H_    0.574888 0.185167 0.546528 0.149340
H5    H     H_    0.763815 0.923045 0.712727 0.147280
H6    H     H_    0.792315 0.756446 0.049292 0.164248
N1    N     N_R   0.432930 0.222190 0.444670 -0.114767
N2    N     N_R   0.566370 0.776980 0.554790 -0.129630
O1    O     O_R   0.467970 0.366730 0.627150 -0.614566
O2    O     O_R   0.510820 0.544830 0.662520 -0.615118
O3    O     O_R   0.664630 0.410960 0.482340 -0.610210
O4    O     O_R   0.707470 0.589060 0.517710 -0.629243
O5    O     O_R   0.489180 0.455170 0.337480 -0.631002
O6    O     O_R   0.532030 0.633270 0.372850 -0.612810
O7    O     O_R   0.292530 0.410940 0.482290 -0.639914
O8    O     O_R   0.335370 0.589040 0.517660 -0.627892
Zn1   Zn    Zn3+2 0.471390 0.381080 0.476380 0.928045
Zn2   Zn    Zn3+2 0.528610 0.618920 0.523620 0.934692
H7    H     H_    0.048957 0.363519 0.637539 0.141216
H8    H     H_    0.405735 0.469162 0.158011 0.139268
H9    H     H_    0.333270 0.255246 0.781574 0.154908
H10   H     H_    0.701767 0.553389 0.767797 0.172908
N3    N     N_3   0.251810 0.255741 0.334524 -0.487424
H11   H     H_    0.303689 0.330449 0.299828 0.214326
H12   H     H_    0.191427 0.265916 0.392928 0.205761
H13   H     H_    0.289887 0.880235 0.316703 0.154103
H14   H     H_    0.700199 0.735802 0.665326 0.123759
N4    N     N_3   0.863591 0.294435 0.468527 -0.448228
H15   H     H_    0.930625 0.244796 0.464983 0.174407
H16   H     H_    0.821270 0.301251 0.396282 0.197693
H17   H     H_    0.666527 0.067473 0.627052 0.145648
H18   H     H_    0.396735 0.748025 0.404355 0.215905
H19   H     H_    0.065908 0.453505 0.333163 0.142384
H20   H     H_    0.952174 0.637396 0.360193 0.143486
N5    N     N_3   0.137151 0.706670 0.528850 -0.443359
H21   H     H_    0.069884 0.756166 0.531953 0.175559
H22   H     H_    0.179065 0.699832 0.601240 0.193296
N6    N     N_3   0.929122 0.552174 0.684905 -0.483793
H23   H     H_    0.011018 0.561355 0.731227 0.179490
H24   H     H_    0.905422 0.628861 0.670186 0.169914
N7    N     N_3   0.718490 0.754515 0.240855 -0.430779
H25   H     H_    0.716180 0.834092 0.208498 0.184929
H26   H     H_    0.815649 0.748662 0.248041 0.168158
N8    N     N_3   0.833512 0.696496 0.880242 -0.483224
H27   H     H_    0.903578 0.653618 0.863713 0.190185
H28   H     H_    0.817090 0.745945 0.813648 0.168976

loop_
_geom_bond_atom_site_label_1
_geom_bond_atom_site_label_2
_ccdc_geom_bond_type
N4    H16   S    
C31   H4    S    
C34   C37   S    
C32   N1    A    
C35   C36   S    
C34   N4    S    
C12   O3    A    
C7    C8    A    
C38   H20   S    
C11   C19   A    
C29   C30   A    
C36   C37   S    
N6    H24   S    
C32   N3    S    
C16   H10   S    
C15   C16   A    
C9    H1    S    
C33   C36   S    
C34   C35   S    
N5    H21   S    
N3    H12   S    
C8    C9    A    
C4    C12   S    
C9    C10   A    
C17   H8    S    
N4    H15   S    
C29   H13   S    
C13   C14   A    
N5    H22   S    
C18   N7    S    
C7    H9    S    
C30   H18   S    
C24   H17   S    
C20   H3    S    
C15   N8    S    
C4    C34   S    
O7    Zn1   S    
C33   O7    A    
C6    C18   A    
O8    Zn2   S    
C1    C19   S    
C27   C31   A    
N6    H23   S    
N7    H26   S    
C1    O1    A    
C5    C18   A    
C20   C28   A    
C25   C26   A    
O3    Zn1   S    
O4    Zn2   S    
C37   C38   S    
C11   C16   A    
C2    C38   S    
C23   O5    A    
C22   H5    S    
C3    C35   S    
C24   C25   A    
C3    N6    S    
C5    C14   A    
C2    N5    S    
C5    H6    S    
C4    C38   S    
C26   C30   A    
C7    C19   A    
C37   H19   S    
C22   C24   A    
C3    C4    S    
O1    Zn1   S    
C21   N2    A    
C20   C32   A    
C2    C36   S    
C33   O8    A    
O2    Zn2   S    
C6    C17   A    
C28   C29   A    
C21   H14   S    
C10   C13   A    
C12   O4    A    
C1    O2    A    
C25   C27   A    
N8    H28   S    
C13   C17   A    
C35   H7    S    
C2    C3    S    
C23   O6    A    
C6    C23   S    
O5    Zn1   S    
N3    H11   S    
C10   C11   A    
C26   N2    A    
N7    H25   S    
N1    Zn1   S    
N8    H27   S    
C31   N1    A    
N2    Zn2   S    
C27   C28   A    
C14   C15   A    
C8    H2    S    
C21   C22   A    
O6    Zn2   S    
