data_mof_unit_41689.cif
_audit_creation_date              2012-12-10T17:46:26-0500
_audit_creation_method            fapswitch 2.2
_symmetry_space_group_name_H-M    P1
_symmetry_Int_Tables_number       1
_space_group_crystal_system       triclinic
_cell_length_a                    20.794156
_cell_length_b                    21.198209
_cell_length_c                    14.738669
_cell_angle_alpha                 90.008623
_cell_angle_beta                  127.791649
_cell_angle_gamma                 90.001057
_cell_volume                      5134.05026151

loop_
_atom_site_label
_atom_site_type_symbol
_atom_type_description
_atom_site_fract_x
_atom_site_fract_y
_atom_site_fract_z
_atom_type_partial_charge
C1    C     C_R   0.603833 0.914579 0.632764 0.803835
C2    C     C_R   0.707984 0.198992 0.119138 -0.230222
C3    C     C_R   0.744335 0.790904 0.990465 0.063801
C4    C     C_R   0.201318 0.741246 0.940242 0.066367
C5    C     C_R   0.797940 0.259424 0.058759 0.064810
C6    C     C_R   0.798147 0.740744 0.058994 0.066463
C7    C     C_R   0.243403 0.290240 0.989444 0.064647
C8    C     C_R   0.297913 0.821878 0.974800 -0.222017
C9    C     C_R   0.702418 0.178078 0.025339 -0.221123
C10   C     C_R   0.702039 0.821687 0.024986 -0.220754
C11   C     C_R   0.349468 0.216291 0.034814 -0.220766
C12   C     C_R   0.850039 0.283357 0.035401 -0.221153
C13   C     C_R   0.707449 0.800661 0.118594 -0.218353
C14   C     C_R   0.148553 0.717871 0.962782 -0.222013
C15   C     C_R   0.201104 0.321040 0.023962 -0.222512
C16   C     C_R   0.850563 0.717094 0.036003 -0.222655
C17   C     C_R   0.344756 0.237755 0.942034 -0.227139
C18   C     C_R   0.845188 0.261983 0.942453 -0.222122
C19   C     C_R   0.153182 0.739443 0.055469 -0.229337
C20   C     C_R   0.206560 0.300072 0.117626 -0.220831
C21   C     C_R   0.845866 0.738611 0.943247 -0.229952
C22   C     C_R   0.321256 0.996673 0.664803 0.046227
C23   C     C_R   0.678803 0.003372 0.335283 0.045447
C24   C     C_R   0.821233 0.502932 0.664754 0.048609
C25   C     C_R   0.397647 0.086625 0.369084 0.803166
C26   C     C_R   0.178791 0.496799 0.335264 0.046085
C27   C     C_R   0.352050 0.998119 0.602787 0.024997
C28   C     C_R   0.647962 0.001922 0.397253 0.023793
C29   C     C_R   0.852044 0.501648 0.602762 0.024428
C30   C     C_R   0.147960 0.498183 0.397244 0.024425
C31   C     C_R   0.487613 0.000736 0.774914 -0.014104
C32   C     C_R   0.512451 0.998946 0.225094 -0.015128
C33   C     C_R   0.987596 0.499053 0.774910 -0.015228
C34   C     C_R   0.012428 0.500712 0.225093 -0.016488
C35   C     C_R   0.461259 0.999355 0.844334 -0.064780
C36   C     C_R   0.396140 0.914598 0.367195 0.804394
C37   C     C_R   0.538886 0.999684 0.155745 -0.065259
C38   C     C_R   0.961200 0.499661 0.844293 -0.066621
C39   C     C_R   0.038822 0.499375 0.155711 -0.066357
C40   C     C_R   0.376107 0.996943 0.786289 0.140756
C41   C     C_R   0.624036 0.002128 0.213815 0.139982
C42   C     C_R   0.876041 0.501864 0.786226 0.140666
C43   C     C_R   0.123973 0.497058 0.213779 0.140839
C44   C     C_R   0.515897 0.000073 0.968246 0.096754
C45   C     C_R   0.484306 0.998346 0.031860 0.095369
C46   C     C_R   0.015802 0.498392 0.968192 0.093867
C47   C     C_R   0.603799 0.085441 0.632726 0.803804
C48   C     C_R   0.984211 0.500037 0.031805 0.090987
C49   C     C_R   0.399210 0.995067 0.969423 -0.261356
C50   C     C_R   0.601050 0.002392 0.030721 -0.267851
C51   C     C_R   0.899062 0.502190 0.969329 -0.254682
C52   C     C_R   0.100905 0.495233 0.030645 -0.260515
C53   C     C_R   0.346772 0.994378 0.850129 -0.185452
C54   C     C_R   0.653467 0.003178 0.150020 -0.189909
C55   C     C_R   0.846631 0.502835 0.850030 -0.176620
C56   C     C_R   0.153333 0.494572 0.149954 -0.185336
C57   C     C_R   0.666756 0.131272 0.711983 -0.052524
C58   C     C_R   0.103736 0.414514 0.632642 0.804062
C59   C     C_R   0.332923 0.868981 0.287597 -0.055085
C60   C     C_R   0.344086 0.139851 0.301258 -0.054694
C61   C     C_R   0.666905 0.868838 0.712154 -0.054765
C62   C     C_R   0.155441 0.640223 0.698251 -0.054222
C63   C     C_R   0.844435 0.359873 0.301644 -0.056413
C64   C     C_R   0.844454 0.640115 0.301611 -0.054333
C65   C     C_R   0.166517 0.368548 0.711686 -0.054235
C66   C     C_R   0.779992 0.198873 0.770787 -0.192517
C67   C     C_R   0.218660 0.802286 0.227520 -0.197196
C68   C     C_R   0.254903 0.224832 0.270057 -0.192390
C69   C     C_R   0.897728 0.586694 0.369166 0.802738
C70   C     C_R   0.780645 0.801689 0.771555 -0.197956
C71   C     C_R   0.244573 0.725232 0.729303 -0.191648
C72   C     C_R   0.755994 0.274445 0.271240 -0.198817
C73   C     C_R   0.755507 0.725229 0.270677 -0.191926
C74   C     C_R   0.279833 0.301025 0.770644 -0.197075
C75   C     C_R   0.720437 0.155761 0.693521 -0.192574
C76   C     C_R   0.278635 0.845010 0.305319 -0.193130
C77   C     C_R   0.300866 0.171787 0.331721 -0.191483
C78   C     C_R   0.720924 0.844641 0.694094 -0.192614
C79   C     C_R   0.198861 0.672012 0.667981 -0.191401
C80   C     C_R   0.897714 0.413312 0.369158 0.803130
C81   C     C_R   0.801569 0.327728 0.332487 -0.190177
C82   C     C_R   0.801229 0.672044 0.332066 -0.191844
C83   C     C_R   0.220391 0.344212 0.693470 -0.193073
C84   C     C_R   0.674195 0.149292 0.809202 -0.254911
C85   C     C_R   0.325704 0.850789 0.190609 -0.256353
C86   C     C_R   0.340463 0.161117 0.208592 -0.250230
C87   C     C_R   0.674168 0.850662 0.809171 -0.255648
C88   C     C_R   0.158456 0.661924 0.790242 -0.250247
C89   C     C_R   0.840867 0.338554 0.209034 -0.250624
C90   C     C_R   0.841169 0.661598 0.209297 -0.250567
C91   C     C_R   0.102247 0.586723 0.630806 0.802429
C92   C     C_R   0.173574 0.350232 0.808472 -0.256379
C93   C     C_R   0.735409 0.191006 0.890358 0.089547
C94   C     C_R   0.264084 0.809484 0.108918 0.090320
C95   C     C_R   0.297836 0.216109 0.148607 0.090306
C96   C     C_R   0.735548 0.809119 0.890538 0.090370
C97   C     C_R   0.200936 0.717039 0.849950 0.089953
C98   C     C_R   0.798616 0.283356 0.149449 0.091155
C99   C     C_R   0.798699 0.716688 0.149517 0.090172
C100  C     C_R   0.234711 0.308491 0.889604 0.090293
C101  C     C_R   0.787197 0.217274 0.868062 0.164795
C102  C     C_R   0.292565 0.800790 0.881257 -0.218725
C103  C     C_R   0.211641 0.783751 0.130441 0.165900
C104  C     C_R   0.252910 0.247138 0.178746 0.162100
C105  C     C_R   0.787688 0.783153 0.868643 0.166144
C106  C     C_R   0.246186 0.747837 0.820150 0.161618
C107  C     C_R   0.754018 0.252124 0.179939 0.163176
C108  C     C_R   0.753710 0.747666 0.179595 0.161319
C109  C     C_R   0.286754 0.282425 0.867611 0.164825
C110  C     C_R   0.744347 0.209109 0.990448 0.065653
C111  C     C_R   0.255346 0.791259 0.009027 0.064352
C112  C     C_R   0.297165 0.240055 0.057935 0.065721
Cu1   Cu    Cu3+1 0.526640 0.000000 0.436960 0.934232
Cu2   Cu    Cu3+1 0.473360 0.000000 0.563040 0.934450
Cu3   Cu    Cu3+1 0.026640 0.500000 0.436960 0.933712
Cu4   Cu    Cu3+1 0.973360 0.500000 0.563040 0.933744
H1    H     H_    0.326047 0.825583 0.857772 0.154447
H2    H     H_    0.629732 0.003601 0.989876 0.131851
H3    H     H_    0.870383 0.503338 0.010172 0.134516
H4    H     H_    0.129510 0.492957 0.989749 0.132668
H5    H     H_    0.370509 0.868096 0.182253 0.152124
H6    H     H_    0.629844 0.131534 0.818129 0.151534
H7    H     H_    0.629562 0.868166 0.817776 0.152809
H8    H     H_    0.370443 0.133179 0.183519 0.149270
H9    H     H_    0.870569 0.366617 0.183656 0.149704
H10   H     H_    0.128228 0.634199 0.815168 0.149559
H11   H     H_    0.129015 0.367823 0.817097 0.151951
H12   H     H_    0.675009 0.173876 0.143144 0.147892
H13   H     H_    0.871228 0.633738 0.184255 0.148260
H14   H     H_    0.282900 0.858817 0.379600 0.155852
H15   H     H_    0.715967 0.142104 0.619017 0.152759
H16   H     H_    0.716613 0.858421 0.619773 0.156424
H17   H     H_    0.303025 0.156116 0.403482 0.155231
H18   H     H_    0.803727 0.343410 0.404249 0.157734
H19   H     H_    0.197101 0.656061 0.596675 0.154974
H20   H     H_    0.216185 0.358070 0.619261 0.155743
H21   H     H_    0.803179 0.656246 0.403596 0.154242
H22   H     H_    0.278344 0.748951 0.705333 0.137218
H23   H     H_    0.674165 0.825577 0.142286 0.153759
H24   H     H_    0.722703 0.250411 0.295707 0.134044
H25   H     H_    0.721918 0.749079 0.294829 0.136688
H26   H     H_    0.320098 0.281834 0.754160 0.135512
H27   H     H_    0.820075 0.218206 0.754081 0.135538
H28   H     H_    0.178078 0.783375 0.243636 0.135293
H29   H     H_    0.221342 0.248707 0.294232 0.136869
H30   H     H_    0.821000 0.782595 0.755159 0.135038
H31   H     H_    0.334081 0.863680 0.016481 0.143492
H32   H     H_    0.666615 0.136082 0.984015 0.143184
H33   H     H_    0.666049 0.863582 0.983515 0.145222
H34   H     H_    0.385854 0.218297 0.927262 0.146637
H35   H     H_    0.396698 0.182275 0.088947 0.146352
H36   H     H_    0.897196 0.317451 0.089470 0.146829
H37   H     H_    0.101058 0.684093 0.908226 0.145514
H38   H     H_    0.165079 0.362908 0.982472 0.143471
H39   H     H_    0.897847 0.683127 0.090229 0.145341
H40   H     H_    0.282119 0.991645 0.807922 0.174506
H41   H     H_    0.718181 0.004698 0.192258 0.175634
H42   H     H_    0.781912 0.504183 0.807786 0.172747
H43   H     H_    0.217993 0.491921 0.192188 0.174462
H44   H     H_    0.449063 0.997874 0.188313 0.129571
H45   H     H_    0.886109 0.281583 0.927466 0.148014
H46   H     H_    0.550985 0.002063 0.811638 0.128791
H47   H     H_    0.949059 0.502003 0.188356 0.130500
H48   H     H_    0.050986 0.498157 0.811673 0.129969
H49   H     H_    0.688895 0.002940 0.490136 0.123939
H50   H     H_    0.311074 0.997670 0.509891 0.124474
H51   H     H_    0.188919 0.497753 0.490140 0.124614
H52   H     H_    0.811094 0.502544 0.509880 0.125470
H53   H     H_    0.203828 0.988819 0.516774 0.212370
H54   H     H_    0.217453 0.038786 0.615347 0.217781
H55   H     H_    0.796651 0.000848 0.483550 0.212140
H56   H     H_    0.111729 0.720293 0.069817 0.143787
H57   H     H_    0.778681 0.051582 0.383173 0.214721
H58   H     H_    0.703392 0.499649 0.516582 0.212766
H59   H     H_    0.720982 0.550757 0.616282 0.215578
H60   H     H_    0.296199 0.488940 0.483303 0.211936
H61   H     H_    0.282578 0.539043 0.384924 0.217528
H62   H     H_    0.173299 0.325018 0.141331 0.153396
H63   H     H_    0.887060 0.719250 0.928573 0.143785
H64   H     H_    0.370601 0.992744 0.010307 0.132477
N1    N     N_R   0.433280 0.000000 0.657760 -0.187176
N2    N     N_R   0.566720 0.000000 0.342240 -0.186936
N3    N     N_R   0.933280 0.500000 0.657760 -0.187585
N4    N     N_R   0.066720 0.500000 0.342240 -0.187346
N5    N     N_3   0.234787 0.994732 0.604950 -0.606314
N6    N     N_3   0.765236 0.006254 0.395174 -0.605221
N7    N     N_3   0.734785 0.505428 0.604879 -0.604218
N8    N     N_3   0.265265 0.494939 0.395159 -0.606745
O1    O     O_R   0.600040 0.935040 0.546740 -0.584945
O2    O     O_R   0.444990 0.064930 0.346780 -0.586385
O3    O     O_R   0.444990 0.935070 0.346780 -0.586744
O4    O     O_R   0.555010 0.064930 0.653220 -0.587970
O5    O     O_R   0.055010 0.435070 0.653220 -0.587269
O6    O     O_R   0.944990 0.564930 0.346780 -0.587435
O7    O     O_R   0.944990 0.435070 0.346780 -0.585610
O8    O     O_R   0.055010 0.564930 0.653220 -0.586982
O9    O     O_R   0.399960 0.064960 0.453260 -0.586354
O10   O     O_R   0.399960 0.935040 0.453260 -0.585590
O11   O     O_R   0.600040 0.064960 0.546740 -0.587570
O12   O     O_R   0.100040 0.435040 0.546740 -0.585905
O13   O     O_R   0.899960 0.564960 0.453260 -0.587236
O14   O     O_R   0.899960 0.435040 0.453260 -0.584620
O15   O     O_R   0.100040 0.564960 0.546740 -0.586526
O16   O     O_R   0.555010 0.935070 0.653220 -0.586145

loop_
_geom_bond_atom_site_label_1
_geom_bond_atom_site_label_2
_ccdc_geom_bond_type
C65   C92   A    
C96   C105  A    
C69   O13   A    
C16   C21   A    
C70   C78   A    
C36   O3    A    
C24   C42   A    
C12   H36   S    
C17   H34   S    
C64   C90   A    
C74   C83   A    
C36   C59   S    
C74   C109  A    
C71   C79   A    
Cu3   N4    S    
C72   C81   A    
C67   C103  A    
C81   H18   S    
C73   H25   S    
C95   C104  A    
Cu1   O2    S    
C58   O5    A    
C58   O12   A    
C19   C103  A    
C50   C54   A    
H61   N8    S    
C63   C81   A    
C24   N7    S    
C13   H23   S    
C29   H52   S    
C32   N2    A    
C36   O10   A    
C30   H51   S    
C38   C42   A    
C56   H43   S    
C95   C112  A    
C10   H33   S    
H58   N7    S    
C18   H45   S    
C65   C83   A    
C5    C110  A    
C84   H6    S    
Cu3   Cu4   S    
Cu4   N3    S    
C46   C52   A    
C2    C107  A    
C68   C77   A    
C7    C112  A    
C47   O4    A    
C28   N2    A    
C24   C29   A    
C15   H38   S    
C88   H10   S    
C61   C87   A    
C90   H13   S    
C76   H14   S    
C48   C51   A    
C80   O14   A    
Cu2   O9    S    
Cu3   O15   S    
C33   N3    A    
C51   H3    S    
C34   N4    A    
C3    C96   A    
C70   H30   S    
C25   C60   S    
C61   C78   A    
C51   C55   A    
C88   C97   A    
C93   C110  A    
C49   H64   S    
C3    C6    A    
C7    C15   A    
C74   H26   S    
C31   H46   S    
C100  C109  A    
C4    C97   A    
C31   N1    A    
C37   C41   A    
C66   C101  A    
C47   O11   A    
C77   H17   S    
C13   C108  A    
C67   H28   S    
C75   H15   S    
C26   C43   A    
Cu4   O13   S    
C71   H22   S    
C63   C80   S    
C55   H42   S    
C15   C20   A    
Cu1   O3    S    
C46   C48   A    
C60   C77   A    
Cu2   O4    S    
C7    C100  A    
C26   N8    S    
C34   C39   A    
C62   C79   A    
C33   H48   S    
C19   H56   S    
C5    C12   A    
C34   H47   S    
C8    C111  A    
C93   C101  A    
C60   C86   A    
C73   C108  A    
C39   C43   A    
C66   H27   S    
C23   C28   A    
C62   C88   A    
C10   C13   A    
C98   C107  A    
C1    C61   S    
C18   C101  A    
C25   O2    A    
C59   C85   A    
C99   C108  A    
C42   C55   A    
C47   C57   S    
C85   C94   A    
C58   C65   S    
Cu1   N2    S    
C72   C107  A    
C45   C49   A    
C94   C111  A    
C22   C40   A    
C62   C91   S    
C63   C89   A    
C16   H39   S    
Cu1   O11   S    
C57   C84   A    
C32   C37   A    
C85   H5    S    
C35   C44   A    
C64   C82   A    
C83   H20   S    
C102  H1    S    
C27   N1    A    
C97   C106  A    
C28   H49   S    
C11   H35   S    
C4    C111  A    
C94   C103  A    
C26   C30   A    
C22   C27   A    
C14   H37   S    
C86   H8    S    
C31   C35   A    
C8    H31   S    
Cu4   O5    S    
C72   H24   S    
C37   C45   A    
C92   H11   S    
C52   H4    S    
C90   C99   A    
Cu1   O1    S    
C44   C45   A    
C92   C100  A    
C78   H16   S    
Cu1   Cu2   S    
C44   C50   A    
C9    C110  A    
C80   O7    A    
Cu3   O7    S    
C11   C17   A    
H60   N8    S    
C29   N3    A    
H55   N6    S    
C11   C112  A    
C50   H2    S    
C30   N4    A    
C14   C19   A    
Cu3   O6    S    
C68   C104  A    
C70   C105  A    
C17   C109  A    
C23   N6    S    
Cu4   O14   S    
C87   C96   A    
C20   C104  A    
C82   H21   S    
Cu2   N1    S    
C79   H19   S    
Cu3   O12   S    
C9    H32   S    
C33   C38   A    
C23   C41   A    
C89   C98   A    
C89   H9    S    
C6    C99   A    
C57   C75   A    
C22   N5    S    
C35   C40   A    
H53   N5    S    
C3    C10   A    
C54   H41   S    
C87   H7    S    
C91   O8    A    
C1    O16   A    
H57   N6    S    
C49   C53   A    
C66   C75   A    
H54   N5    S    
C69   O6    A    
C73   C82   A    
C102  C106  A    
Cu2   O16   S    
C84   C93   A    
C4    C14   A    
C64   C69   S    
C21   C105  A    
C41   C54   A    
C38   C46   A    
C25   O9    A    
C86   C95   A    
C27   H50   S    
C6    C16   A    
Cu4   O8    S    
C43   C56   A    
C21   H63   S    
C5    C98   A    
C53   H40   S    
C40   C53   A    
Cu2   O10   S    
C71   C106  A    
C12   C18   A    
C91   O15   A    
C67   C76   A    
C2    C9    A    
C8    C102  A    
C59   C76   A    
H59   N7    S    
C20   H62   S    
C68   H29   S    
C52   C56   A    
C2    H12   S    
C39   C48   A    
C32   H44   S    
C1    O1    A    
