data_mof_unit_38034.cif
_audit_creation_date              2012-12-10T19:30:26-0500
_audit_creation_method            fapswitch 2.2
_symmetry_space_group_name_H-M    P1
_symmetry_Int_Tables_number       1
_space_group_crystal_system       triclinic
_cell_length_a                    17.746957
_cell_length_b                    16.541746
_cell_length_c                    19.319511
_cell_angle_alpha                 90.035254
_cell_angle_beta                  93.380861
_cell_angle_gamma                 89.229083
_cell_volume                      5661.16147453

loop_
_atom_site_label
_atom_site_type_symbol
_atom_type_description
_atom_site_fract_x
_atom_site_fract_y
_atom_site_fract_z
_atom_type_partial_charge
C1    C     C_R   0.355411 0.500619 0.504556 0.869581
C2    C     C_R   0.644566 0.499525 0.495842 0.893769
C3    C     C_R   0.727388 0.499646 0.485677 -0.243753
C4    C     C_R   0.271601 0.503128 0.508606 -0.185779
C5    C     C_R   0.885278 0.511702 0.481956 -0.092671
C6    C     C_R   0.113932 0.512968 0.484386 -0.082001
C7    C     C_1   0.965610 0.516315 0.479802 0.068691
C8    C     C_1   0.033133 0.516485 0.480277 0.062471
C9    C     C_R   0.554967 0.828028 0.543124 0.285013
C10   C     C_R   0.460690 0.169419 0.448015 0.358730
C11   C     C_R   0.454071 0.831727 0.454047 0.332130
C12   C     C_R   0.540044 0.168897 0.553147 0.320157
C13   C     C_R   0.548723 0.742453 0.545555 0.053661
C14   C     C_R   0.454730 0.255597 0.451949 0.066291
C15   C     C_R   0.455296 0.745552 0.452102 0.046399
C16   C     C_R   0.542619 0.255267 0.550658 0.016364
C17   C     C_R   0.504550 0.873459 0.499098 -0.125309
C18   C     C_R   0.501372 0.125858 0.500223 -0.155599
C19   C     C_1   0.503517 0.962636 0.500051 0.052870
C20   C     C_1   0.502540 0.036605 0.500105 0.049118
C21   C     C_R   0.499242 0.500038 0.367171 0.813283
C22   C     C_R   0.499473 0.500027 0.632818 0.828894
C23   C     C_R   0.517470 0.570233 0.255758 -0.081128
C24   C     C_R   0.508235 0.427891 0.746193 -0.127306
C25   C     C_R   0.484208 0.572215 0.744413 -0.127693
C26   C     C_R   0.475740 0.431506 0.253336 -0.177093
C27   C     C_R   0.516989 0.571694 0.183225 -0.012011
C28   C     C_R   0.507305 0.426957 0.818653 0.012394
C29   C     C_R   0.482846 0.573460 0.816857 0.008028
C30   C     C_R   0.473372 0.431395 0.180687 0.028858
C31   C     C_R   0.495054 0.501632 0.145463 -0.098831
C32   C     C_R   0.494790 0.500343 0.854193 -0.096623
C33   C     C_R   0.497748 0.500416 0.291001 -0.129265
C34   C     C_R   0.497501 0.500082 0.708903 -0.129974
C35   C     C_R   0.494733 0.500724 0.929973 0.325680
C36   C     C_R   0.494856 0.501727 0.069619 0.327099
C37   C     C_R   0.838952 0.569291 0.447072 0.338776
C38   C     C_R   0.150378 0.437494 0.482826 0.339164
C39   C     C_R   0.154536 0.583511 0.498799 0.325652
C40   C     C_R   0.854560 0.446567 0.516297 0.397635
C41   C     C_R   0.760035 0.566049 0.451439 -0.090454
C42   C     C_R   0.228426 0.431471 0.499982 -0.152261
C43   C     C_R   0.232741 0.578728 0.514439 -0.126595
C44   C     C_R   0.775660 0.436317 0.512897 -0.158544
Cu1   Cu    Cu3+1 0.500000 0.580420 0.500000 0.990717
Cu2   Cu    Cu3+1 0.500000 0.419580 0.500000 0.933667
H1    H     H_    0.533719 0.623730 0.285051 0.229852
H2    H     H_    0.517413 0.371977 0.718667 0.205616
H3    H     H_    0.474459 0.627770 0.715461 0.193537
H4    H     H_    0.459990 0.377751 0.280713 0.174757
N1    N     N_R   0.560876 0.498319 0.037749 -0.228958
N2    N     N_R   0.428696 0.504219 0.961810 -0.218881
N3    N     N_R   0.560813 0.497762 0.968895 -0.223852
N4    N     N_R   0.428752 0.504591 0.030680 -0.218895
N5    N     N_R   0.500000 0.701220 0.500000 -0.268225
N6    N     N_R   0.500000 0.298780 0.500000 -0.284980
O1    O     O_R   0.391260 0.567930 0.500000 -0.594358
O2    O     O_R   0.608740 0.432070 0.500000 -0.646974
O3    O     O_R   0.608740 0.567930 0.500000 -0.507784
O4    O     O_R   0.391260 0.432070 0.500000 -0.572099
O5    O     O_R   0.499990 0.567930 0.400140 -0.568979
O6    O     O_R   0.500010 0.432070 0.599860 -0.598205
O7    O     O_R   0.500010 0.567930 0.599860 -0.588601
O8    O     O_R   0.499990 0.432070 0.400140 -0.624026
C45   C     C_2   0.538103 0.647199 0.147667 0.403614
H5    H     H_    0.534999 0.651124 0.091548 0.086511
O9    O     O_2   0.559173 0.706499 0.180770 -0.517903
C46   C     C_2   0.518636 0.348863 0.856372 0.396687
H6    H     H_    0.516020 0.346132 0.912257 0.083973
O10   O     O_2   0.530955 0.286130 0.825354 -0.532158
C47   C     C_2   0.469952 0.651631 0.852813 0.393846
H7    H     H_    0.470398 0.654570 0.908907 0.090049
O11   O     O_2   0.458769 0.714235 0.820091 -0.532154
C48   C     C_2   0.448935 0.357330 0.142354 0.368855
H8    H     H_    0.455514 0.351838 0.087098 0.092810
O12   O     O_2   0.420355 0.301399 0.172057 -0.558577
O13   O     O_3   0.871995 0.631847 0.412307 -0.626700
C49   C     C_3   0.864786 0.618868 0.339622 0.055605
H9    H     H_    0.867715 0.678896 0.314238 0.176472
H10   H     H_    0.809579 0.592674 0.321454 0.148902
C50   C     C_3   0.929152 0.565168 0.315450 -0.383869
H11   H     H_    0.984093 0.589244 0.335845 0.220295
H12   H     H_    0.923017 0.502896 0.335565 0.212903
C51   C     C_3   0.928532 0.561481 0.236536 -0.880078
H13   H     H_    0.874437 0.536258 0.214877 0.264438
H14   H     H_    0.975617 0.521914 0.220889 0.258853
H15   H     H_    0.936007 0.622820 0.214813 0.259279
O14   O     O_3   0.107559 0.368428 0.473150 -0.600382
C52   C     C_3   0.112059 0.340228 0.404203 0.065153
H16   H     H_    0.105084 0.273600 0.405104 0.184172
H17   H     H_    0.167875 0.351199 0.382300 0.125158
C53   C     C_3   0.048619 0.377358 0.356709 -0.365546
H18   H     H_    0.993530 0.368750 0.380082 0.243574
H19   H     H_    0.058210 0.443148 0.350979 0.200847
C54   C     C_3   0.045689 0.338767 0.284894 -0.874084
H20   H     H_    0.099819 0.347918 0.260073 0.265281
H21   H     H_    0.999343 0.367196 0.251866 0.257440
H22   H     H_    0.034851 0.272983 0.288664 0.261687
O15   O     O_3   0.116176 0.656377 0.505119 -0.599074
C55   C     C_3   0.105842 0.692413 0.438858 0.034256
H23   H     H_    0.086744 0.648025 0.398300 0.132584
H24   H     H_    0.159778 0.719146 0.423929 0.125309
C56   C     C_3   0.045859 0.759270 0.441475 -0.289764
H25   H     H_    0.992872 0.733458 0.459398 0.259888
H26   H     H_    0.065560 0.806418 0.479096 0.217139
C57   C     C_3   0.029393 0.797958 0.370408 -0.904528
H27   H     H_    0.081507 0.824362 0.351306 0.258343
H28   H     H_    0.986392 0.846860 0.374371 0.261835
H29   H     H_    0.007129 0.752243 0.332623 0.260821
O16   O     O_3   0.902694 0.387731 0.545987 -0.573419
C58   C     C_3   0.912099 0.399828 0.618708 0.154197
H30   H     H_    0.912667 0.339225 0.643524 0.203966
H31   H     H_    0.865150 0.435071 0.641046 0.140594
C59   C     C_3   0.987489 0.440458 0.637989 -0.396697
H32   H     H_    0.033534 0.408918 0.611655 0.267964
H33   H     H_    0.984643 0.504510 0.620849 0.223643
C60   C     C_3   0.005774 0.438726 0.716144 -0.856536
H34   H     H_    0.960689 0.470433 0.743559 0.258974
H35   H     H_    0.060076 0.469685 0.728375 0.273351
H36   H     H_    0.011199 0.375340 0.734924 0.262074
C61   C     C_2   0.714088 0.631567 0.416524 0.433587
H37   H     H_    0.733476 0.693471 0.419482 0.088829
O17   O     O_2   0.657555 0.616338 0.380093 -0.558706
C62   C     C_2   0.260528 0.349638 0.515482 0.468590
H38   H     H_    0.242795 0.298144 0.484149 0.091047
O18   O     O_2   0.303262 0.338009 0.566488 -0.516802
C63   C     C_2   0.270017 0.652671 0.542680 0.457204
H39   H     H_    0.252875 0.711788 0.522727 0.047329
O19   O     O_2   0.316814 0.648607 0.591549 -0.522593
C64   C     C_2   0.745666 0.356808 0.532613 0.418770
H40   H     H_    0.703209 0.327602 0.498991 0.075308
O20   O     O_2   0.768867 0.322110 0.585519 -0.528080
O21   O     O_3   0.605379 0.866439 0.589571 -0.607479
C65   C     C_3   0.664857 0.901429 0.554293 0.075028
H41   H     H_    0.683878 0.955546 0.584236 0.187082
H42   H     H_    0.647815 0.923025 0.500958 0.134361
C66   C     C_3   0.731514 0.842136 0.550841 -0.325727
H43   H     H_    0.748085 0.819276 0.603722 0.257961
H44   H     H_    0.714433 0.790338 0.517208 0.234059
C67   C     C_3   0.799385 0.882048 0.520768 -0.904014
H45   H     H_    0.784288 0.904512 0.467502 0.257250
H46   H     H_    0.846260 0.837162 0.518285 0.269176
H47   H     H_    0.819002 0.933326 0.554002 0.265985
O22   O     O_3   0.421194 0.127359 0.395709 -0.557125
C68   C     C_3   0.471160 0.099973 0.345823 0.057142
H48   H     H_    0.448517 0.042539 0.323800 0.194681
H49   H     H_    0.529347 0.085706 0.367922 0.122036
C69   C     C_3   0.474760 0.161625 0.287096 -0.300661
H50   H     H_    0.416868 0.173638 0.264004 0.285428
H51   H     H_    0.498157 0.219232 0.308030 0.205494
C70   C     C_3   0.524559 0.130693 0.230737 -0.850310
H52   H     H_    0.582922 0.118864 0.252706 0.245678
H53   H     H_    0.526722 0.176794 0.189202 0.282839
H54   H     H_    0.501316 0.074117 0.207601 0.263586
O23   O     O_3   0.405057 0.875528 0.409514 -0.559379
C71   C     C_3   0.336157 0.886596 0.441555 0.082658
H55   H     H_    0.344971 0.921722 0.490568 0.142822
H56   H     H_    0.310751 0.827223 0.453240 0.111513
C72   C     C_3   0.281033 0.933496 0.392401 -0.286183
H57   H     H_    0.305675 0.992792 0.379870 0.253607
H58   H     H_    0.271407 0.898821 0.343437 0.235632
C73   C     C_3   0.205567 0.947776 0.424698 -0.917547
H59   H     H_    0.180190 0.889217 0.438020 0.251854
H60   H     H_    0.166157 0.980265 0.387224 0.266111
H61   H     H_    0.213525 0.985008 0.472375 0.268563
O24   O     O_3   0.581457 0.126006 0.604260 -0.566466
C74   C     C_3   0.533058 0.104363 0.656644 0.127400
H62   H     H_    0.487948 0.063274 0.635961 0.127369
H63   H     H_    0.506085 0.159066 0.678826 0.180403
C75   C     C_3   0.579386 0.060367 0.714530 -0.297236
H64   H     H_    0.606230 0.005437 0.693060 0.236018
H65   H     H_    0.624696 0.100639 0.735903 0.261118
C76   C     C_3   0.530192 0.035522 0.772880 -0.841545
H66   H     H_    0.503804 0.089707 0.795956 0.277864
H67   H     H_    0.565515 0.003750 0.813988 0.266100
H68   H     H_    0.485266 0.994025 0.752884 0.261057
C77   C     C_2   0.594505 0.699296 0.600126 0.537783
H69   H     H_    0.571252 0.688473 0.649818 0.051420
O25   O     O_2   0.659683 0.679328 0.591509 -0.589446
C78   C     C_2   0.395781 0.296457 0.405228 0.381541
H70   H     H_    0.393246 0.360345 0.397351 0.109553
O26   O     O_2   0.345319 0.258228 0.375241 -0.543647
C79   C     C_2   0.408247 0.705497 0.396321 0.418842
H71   H     H_    0.382410 0.648107 0.403776 0.078979
O27   O     O_2   0.397912 0.736983 0.339327 -0.513619
C80   C     C_2   0.591921 0.296769 0.604528 0.467170
H72   H     H_    0.611203 0.357009 0.597890 0.111612
O28   O     O_2   0.613156 0.263608 0.658767 -0.509889

loop_
_geom_bond_atom_site_label_1
_geom_bond_atom_site_label_2
_ccdc_geom_bond_type
C14   N6    A    
C5    C37   A    
C35   N3    A    
C54   H20   S    
C51   H15   S    
C68   C69   S    
C65   C66   S    
C16   N6    A    
C59   H32   S    
C54   H22   S    
C42   C62   S    
C7    C8    T    
C74   H63   S    
C76   H66   S    
C66   H44   S    
Cu1   O1    S    
C67   H45   S    
C48   O12   D    
Cu2   O6    S    
C71   H55   S    
C28   C46   S    
C69   H51   S    
C38   C42   A    
C29   C32   A    
C60   H35   S    
C12   O24   S    
C30   C31   A    
C30   C48   S    
C49   H10   S    
C21   C33   S    
C57   H27   S    
C44   C64   S    
C70   H54   S    
C41   C61   S    
C9    C13   A    
O16   C58   S    
C55   H23   S    
C21   O8    A    
C52   C53   S    
C56   H25   S    
C50   H12   S    
C22   O7    A    
C11   C15   A    
C71   H56   S    
C3    C41   A    
C12   C16   A    
C78   O26   D    
C46   H6    S    
C23   C33   A    
C15   C79   S    
C70   H52   S    
C6    C38   A    
C23   C27   A    
C52   H17   S    
C31   C36   S    
C21   O5    A    
C11   O23   S    
C25   C34   A    
Cu2   O2    S    
C55   H24   S    
C68   H49   S    
N2    N4    A    
C50   H11   S    
C74   C75   S    
C73   H60   S    
C76   H67   S    
C25   C29   A    
C22   C34   S    
C66   C67   S    
C3    C44   A    
C23   H1    S    
C48   H8    S    
C27   C31   A    
C24   H2    S    
C32   C35   S    
C28   C32   A    
C69   C70   S    
C69   H50   S    
C56   H26   S    
C10   C14   A    
C1    O4    A    
C43   C63   S    
C74   H62   S    
C47   O11   D    
C49   H9    S    
C6    C8    S    
C77   O25   D    
O13   C49   S    
C37   O13   S    
Cu1   O7    S    
C55   C56   S    
C24   C34   A    
Cu2   O8    S    
N1    N3    A    
C15   N5    A    
C56   C57   S    
C64   O20   D    
C79   H71   S    
C63   O19   D    
C65   H42   S    
C27   C45   S    
C1    O1    A    
C22   O6    A    
C73   H61   S    
C5    C7    S    
C26   C33   A    
C59   H33   S    
C72   H57   S    
C53   H19   S    
C72   C73   S    
C58   H31   S    
C10   O22   S    
C51   H13   S    
C67   H47   S    
Cu1   N5    S    
C61   H37   S    
C36   N1    A    
C77   H69   S    
C9    C17   A    
C26   C30   A    
O24   C74   S    
C4    C42   A    
C60   H36   S    
C53   C54   S    
C12   C18   A    
C63   H39   S    
C68   H48   S    
C35   N2    A    
C50   C51   S    
C78   H70   S    
C62   O18   D    
C73   H59   S    
C76   H68   S    
Cu1   O3    S    
C58   H30   S    
Cu2   O4    S    
C2    O3    A    
C71   C72   S    
C38   O14   S    
C24   C28   A    
C51   H14   S    
O22   C68   S    
C11   C17   A    
C40   O16   S    
C54   H21   S    
C65   H41   S    
C67   H46   S    
C4    C43   A    
C66   H43   S    
C45   O9    D    
O15   C55   S    
C1    C4    S    
C19   C20   T    
C26   H4    S    
C2    C3    S    
C80   H72   S    
C47   H7    S    
C16   C80   S    
C60   H34   S    
C49   C50   S    
O21   C65   S    
C57   H28   S    
C10   C18   A    
C13   C77   S    
Cu1   O5    S    
C53   H18   S    
C17   C19   S    
C64   H40   S    
C58   C59   S    
C18   C20   S    
C70   H53   S    
C37   C41   A    
C2    O2    A    
C25   H3    S    
C61   O17   D    
C59   C60   S    
C36   N4    A    
Cu1   Cu2   S    
C39   O15   S    
C40   C44   A    
O14   C52   S    
C39   C43   A    
C79   O27   D    
C46   O10   D    
C45   H5    S    
C75   H64   S    
C5    C40   A    
Cu2   N6    S    
O23   C71   S    
C6    C39   A    
C75   H65   S    
C29   C47   S    
C52   H16   S    
C72   H58   S    
C80   O28   D    
C57   H29   S    
C14   C78   S    
C62   H38   S    
C13   N5    A    
C75   C76   S    
C9    O21   S    
