data_mof_unit_21440.cif
_audit_creation_date              2012-10-26T19:03:58-0400
_audit_creation_method            fapswitch 2.2
_symmetry_space_group_name_H-M    P1
_symmetry_Int_Tables_number       1
_space_group_crystal_system       triclinic
_cell_length_a                    16.178573
_cell_length_b                    13.296933
_cell_length_c                    11.856818
_cell_angle_alpha                 98.521884
_cell_angle_beta                  92.536891
_cell_angle_gamma                 94.468297
_cell_volume                      2510.84237456

loop_
_atom_site_label
_atom_site_type_symbol
_atom_type_description
_atom_site_fract_x
_atom_site_fract_y
_atom_site_fract_z
_atom_type_partial_charge
C1    C     C_R   0.499474 0.299745 0.479692 0.585085
C2    C     C_R   0.503047 0.186898 0.469418 -0.022377
C3    C     C_R   0.188467 0.753894 0.616661 -0.049205
C4    C     C_R   0.912354 0.734670 0.550183 0.041371
C5    C     C_R   0.942957 0.805739 0.647616 -0.132671
C6    C     C_R   0.896882 0.883414 0.698260 -0.128688
C7    C     C_R   0.817039 0.892991 0.656012 -0.109383
C8    C     C_R   0.783397 0.825823 0.561698 -0.081749
C9    C     C_R   0.829720 0.749377 0.509538 -0.035278
C10   C     C_R   0.536961 0.024309 0.362295 0.241587
C11   C     C_R   0.340936 0.504534 0.501416 0.548359
C12   C     C_R   0.540861 0.131748 0.376823 -0.066638
C13   C     C_R   0.473271 0.133656 0.555721 0.202438
C14   C     C_R   0.485722 0.029095 0.551538 -0.031650
C15   C     C_R   0.503450 0.971778 0.447330 0.016986
C16   C     C_R   0.491915 0.864204 0.434480 0.279662
C17   C     C_R   0.495723 0.875622 0.641862 -0.095724
C18   C     C_R   0.488157 0.982576 0.650598 -0.014181
C19   C     C_3   0.948029 0.501618 0.631795 0.022583
C20   C     C_R   0.417014 0.402435 0.025699 -0.050018
C21   C     C_R   0.425254 0.413157 0.147414 0.325964
C22   C     C_R   0.537527 0.540696 0.155221 0.376273
C23   C     C_R   0.498276 0.700492 0.520586 0.566613
C24   C     C_R   0.533600 0.533036 0.032352 -0.045353
C25   C     C_R   0.470799 0.464769 0.967611 -0.119432
C26   C     C_R   0.465160 0.458547 0.845727 -0.012652
C27   C     C_R   0.578828 0.580875 0.850333 0.411144
C28   C     C_R   0.590228 0.588572 0.970011 0.215973
C29   C     C_R   0.659566 0.503671 0.499271 0.559984
C30   C     C_3   0.917991 0.531254 0.503148 0.015456
C31   C     C_3   0.052240 0.512787 0.639499 0.142770
C32   C     C_3   0.045073 0.433967 0.406431 0.024448
C33   C     C_3   0.942051 0.443425 0.397066 0.193373
C34   C     C_1   0.749212 0.515467 0.498870 -0.009748
C35   C     C_3   0.085788 0.527650 0.512431 0.021538
C36   C     C_R   0.898510 0.393245 0.650003 0.137516
C37   C     C_R   0.815278 0.392177 0.688198 -0.072933
C38   C     C_R   0.771353 0.304664 0.714263 -0.122423
C39   C     C_R   0.806683 0.212345 0.701285 -0.114849
C40   C     C_R   0.884521 0.206616 0.658320 -0.094032
C41   C     C_3   0.960485 0.645023 0.483355 0.140249
C42   C     C_R   0.928409 0.293712 0.631404 0.037488
C43   C     C_R   0.106388 0.592855 0.735756 0.076718
C44   C     C_R   0.079377 0.681684 0.800597 -0.114443
C45   C     C_R   0.129043 0.743780 0.887340 -0.111553
C46   C     C_R   0.208852 0.720533 0.914356 -0.099815
C47   C     C_R   0.239432 0.635506 0.853778 -0.140160
C48   C     C_R   0.190515 0.574385 0.766250 -0.070634
C49   C     C_R   0.919683 0.566701 0.743659 -0.028951
C50   C     C_R   0.945820 0.541422 0.852012 -0.099630
C51   C     C_R   0.926544 0.599087 0.954620 -0.114741
C52   C     C_3   0.063426 0.644049 0.491264 0.187571
C53   C     C_R   0.878523 0.680710 0.953726 -0.058848
C54   C     C_R   0.843835 0.699497 0.850835 -0.052156
C55   C     C_R   0.859636 0.638938 0.748476 -0.102025
C56   C     C_R   0.510421 0.833449 0.750148 0.082999
C57   C     C_R   0.586748 0.859337 0.812929 -0.028589
C58   C     C_R   0.594242 0.846664 0.927713 -0.024540
C59   C     C_R   0.526367 0.805622 0.979688 -0.042473
C60   C     C_R   0.452299 0.772794 0.915823 -0.142339
C61   C     C_R   0.444325 0.785645 0.801066 -0.075596
C62   C     C_R   0.511830 0.047026 0.762207 0.114410
C63   C     C_1   0.824807 0.525860 0.500811 -0.034583
C64   C     C_R   0.466322 0.034041 0.857698 -0.054739
C65   C     C_R   0.506929 0.049624 0.965864 -0.126680
C66   C     C_R   0.591852 0.080606 0.978059 -0.107761
C67   C     C_R   0.633384 0.110278 0.886285 -0.148846
C68   C     C_R   0.593086 0.094374 0.778029 -0.088084
C69   C     C_R   0.583454 0.185519 0.293159 0.065350
C70   C     C_R   0.669856 0.207429 0.301446 -0.047218
C71   C     C_R   0.708036 0.256881 0.218841 -0.087252
C72   C     C_R   0.659825 0.288908 0.132432 -0.121262
C73   C     C_R   0.574198 0.269634 0.126451 -0.106493
C74   C     C_1   0.178268 0.524211 0.509145 -0.008419
C75   C     C_R   0.536471 0.213745 0.203452 -0.039596
C76   C     C_R   0.355264 0.321860 0.961193 0.057007
C77   C     C_R   0.355229 0.219556 0.979085 -0.025720
C78   C     C_R   0.292189 0.146395 0.930076 -0.091154
C79   C     C_R   0.231061 0.172880 0.856454 -0.095799
C80   C     C_R   0.234145 0.271594 0.830267 -0.086648
C81   C     C_R   0.294229 0.346555 0.884424 -0.092750
C82   C     C_R   0.089529 0.442885 0.287101 0.039392
C83   C     C_R   0.152446 0.378166 0.247164 -0.064543
C84   C     C_R   0.176087 0.367098 0.134124 -0.079685
C85   C     C_1   0.252724 0.516459 0.504574 -0.016365
C86   C     C_R   0.150332 0.432020 0.061313 -0.097449
C87   C     C_R   0.098211 0.504620 0.099304 -0.087380
C88   C     C_R   0.064676 0.505281 0.205516 -0.017733
C89   C     C_R   0.066189 0.319914 0.426032 0.056416
C90   C     C_R   0.139247 0.298926 0.488960 -0.071259
C91   C     C_R   0.169692 0.202731 0.480016 -0.118059
C92   C     C_R   0.131039 0.121584 0.405079 -0.116685
C93   C     C_R   0.059246 0.135014 0.343909 -0.123804
C94   C     C_R   0.028412 0.230882 0.352915 -0.080534
C95   C     C_R   0.901831 0.442731 0.270792 0.105384
C96   C     C_R   0.493638 0.814090 0.532357 -0.021817
C97   C     C_R   0.831462 0.495260 0.245801 -0.006363
C98   C     C_R   0.794120 0.485980 0.136217 -0.091785
C99   C     C_R   0.823308 0.423125 0.045538 -0.141048
C100  C     C_R   0.887478 0.364463 0.065733 -0.151382
C101  C     C_R   0.923729 0.371245 0.175830 -0.103891
C102  C     C_R   0.109197 0.746219 0.557916 0.073281
C103  C     C_R   0.085139 0.841322 0.528997 -0.032281
C104  C     C_R   0.125341 0.935056 0.578085 -0.139106
C105  C     C_R   0.198823 0.938467 0.643323 -0.107970
C106  C     C_R   0.230782 0.848234 0.661288 -0.096253
Cl1   Cl    Cl    0.938921 0.674913 0.341478 -0.683055
Cl2   Cl    Cl    0.877755 0.328601 0.410312 -0.761097
Cl3   Cl    Cl    0.118470 0.670356 0.366341 -0.581736
Cl4   Cl    Cl    0.455476 0.797674 0.298364 -0.497647
Cl5   Cl    Cl    0.590209 0.959675 0.249538 -0.595904
Cl6   Cl    Cl    0.409232 0.192296 0.659483 -0.659890
Cl7   Cl    Cl    0.081467 0.402653 0.697170 -0.835466
Cl8   Cl    Cl    0.650075 0.650411 0.777771 -0.609990
Cl9   Cl    Cl    0.678463 0.668423 0.032159 -0.599384
Cl10  Cl    Cl    0.359771 0.336303 0.220652 -0.662761
Cl11  Cl    Cl    0.607177 0.630036 0.243642 -0.468856
Cu1   Cu    Cu3+1 0.506190 0.507730 0.615930 1.033813
Cu2   Cu    Cu3+1 0.493810 0.492270 0.384070 1.147685
H1    H     H_    0.421880 0.404151 0.792836 0.191735
H2    H     H_    0.301358 0.615890 0.874055 0.109580
H3    H     H_    0.219870 0.510451 0.723117 0.157282
H4    H     H_    0.983321 0.478578 0.857806 0.180406
H5    H     H_    0.947672 0.580181 0.035682 0.143117
H6    H     H_    0.864913 0.726179 0.033159 0.189122
H7    H     H_    0.802361 0.759494 0.850663 0.180313
H8    H     H_    0.821920 0.648941 0.676131 0.157451
H9    H     H_    0.639008 0.894323 0.774698 0.106423
H10   H     H_    0.652230 0.870735 0.976805 0.182808
H11   H     H_    0.531894 0.796230 0.068593 0.250518
H12   H     H_    0.782816 0.460211 0.701690 0.151032
H13   H     H_    0.400993 0.739064 0.956464 0.122543
H14   H     H_    0.386588 0.760103 0.752855 0.101403
H15   H     H_    0.403700 0.997697 0.846369 0.106945
H16   H     H_    0.474403 0.029563 0.038276 0.144717
H17   H     H_    0.625590 0.081875 0.058971 0.180568
H18   H     H_    0.698259 0.138315 0.897641 0.104657
H19   H     H_    0.628337 0.106066 0.704925 0.098390
H20   H     H_    0.707264 0.183789 0.369257 0.166955
H21   H     H_    0.774675 0.267703 0.219501 0.187334
H22   H     H_    0.687709 0.321986 0.064561 0.120858
H23   H     H_    0.709546 0.308958 0.745204 0.126528
H24   H     H_    0.538853 0.288384 0.054523 0.120845
H25   H     H_    0.470702 0.192084 0.195209 0.154394
H26   H     H_    0.402331 0.196751 0.033974 0.116123
H27   H     H_    0.290622 0.069317 0.949536 0.097588
H28   H     H_    0.181211 0.117228 0.819718 0.103110
H29   H     H_    0.188767 0.289919 0.769688 0.189135
H30   H     H_    0.292235 0.424140 0.867890 0.099317
H31   H     H_    0.182063 0.330158 0.298808 0.162985
H32   H     H_    0.214735 0.307767 0.102801 0.176521
H33   H     H_    0.169426 0.426724 0.975123 0.148136
H34   H     H_    0.773181 0.144466 0.721494 0.093166
H35   H     H_    0.081091 0.557746 0.043642 0.133263
H36   H     H_    0.017503 0.555434 0.220197 0.218932
H37   H     H_    0.178742 0.354399 0.543714 0.168634
H38   H     H_    0.225824 0.192337 0.528709 0.166288
H39   H     H_    0.156813 0.048314 0.394078 0.146939
H40   H     H_    0.028362 0.071328 0.285719 0.132628
H41   H     H_    0.975552 0.230500 0.296741 0.168182
H42   H     H_    0.804045 0.547660 0.306792 0.174545
H43   H     H_    0.739943 0.525013 0.122923 0.212493
H44   H     H_    0.794159 0.417340 0.960602 0.139679
H45   H     H_    0.910380 0.133441 0.642388 0.115507
H46   H     H_    0.909516 0.313300 0.995883 0.128111
H47   H     H_    0.974549 0.325453 0.180408 0.111446
H48   H     H_    0.032932 0.843310 0.469569 0.199204
H49   H     H_    0.100012 0.004992 0.563498 0.119092
H50   H     H_    0.233186 0.010661 0.675422 0.143109
H51   H     H_    0.289878 0.852238 0.707631 0.099742
H52   H     H_    0.221776 0.689453 0.625001 0.119663
H53   H     H_    0.003159 0.807012 0.686376 0.105467
H54   H     H_    0.923443 0.936177 0.771618 0.108521
H55   H     H_    0.781344 0.952487 0.696266 0.096680
H56   H     H_    0.982215 0.277402 0.585716 0.209446
H57   H     H_    0.721104 0.832972 0.528190 0.146904
H58   H     H_    0.799257 0.701291 0.435731 0.177889
H59   H     H_    0.019300 0.704942 0.791098 0.122600
H60   H     H_    0.104737 0.809998 0.934736 0.119871
H61   H     H_    0.246818 0.768322 0.982151 0.135563
N1    N     N_R   0.515490 0.519350 0.790130 -0.260617
N2    N     N_R   0.484510 0.480650 0.209890 -0.216378
O1    O     O_R   0.504390 0.354460 0.582000 -0.466860
O2    O     O_R   0.493940 0.341410 0.386200 -0.471600
O3    O     O_R   0.384660 0.506540 0.597940 -0.536108
O4    O     O_R   0.374210 0.493480 0.402140 -0.419168
O5    O     O_R   0.506060 0.658590 0.613800 -0.482728
O6    O     O_R   0.495610 0.645540 0.418000 -0.402022
O7    O     O_R   0.625790 0.506520 0.597860 -0.463197
O8    O     O_R   0.615340 0.493460 0.402060 -0.470956

loop_
_geom_bond_atom_site_label_1
_geom_bond_atom_site_label_2
_ccdc_geom_bond_type
C22   Cl11  S    
C12   C69   S    
C35   C74   S    
C103  H48   S    
C93   C94   A    
C11   O4    A    
C73   C75   A    
C32   C35   S    
C14   C18   A    
C71   H21   S    
C68   H19   S    
Cu2   O8    S    
C87   C88   A    
C29   O7    A    
C2    C12   A    
C60   H13   S    
C57   H9    S    
C97   C98   A    
C1    O1    A    
C16   Cl4   S    
C7    C8    A    
C59   H11   S    
C77   C78   A    
C23   C96   S    
C54   H7    S    
C52   C102  S    
C26   N1    A    
C105  H50   S    
C39   H34   S    
C83   C84   A    
C36   C37   A    
C84   C86   A    
C40   H45   S    
C13   Cl6   S    
C42   H56   S    
C48   H3    S    
C5    C6    A    
Cu1   O7    S    
C81   H30   S    
C47   H2    S    
C20   C25   A    
C58   H10   S    
C15   C16   A    
C7    H55   S    
C56   C57   A    
C20   C76   S    
C92   H39   S    
C1    C2    S    
C89   C94   A    
C93   H40   S    
C2    C13   A    
Cu1   Cu2   S    
C100  C101  A    
C62   C64   A    
Cu2   O6    S    
C36   C42   A    
C1    O2    A    
C47   C48   A    
C8    C9    A    
C30   C41   S    
C70   C71   A    
C43   C48   A    
C41   C52   S    
C90   C91   A    
C53   H6    S    
C83   H31   S    
C40   C42   A    
C66   C67   A    
C19   C31   S    
C59   C60   A    
C11   O3    A    
C30   C63   S    
C51   H5    S    
C106  H51   S    
C102  C103  A    
C33   Cl2   S    
C21   Cl10  S    
C33   C95   S    
C104  C105  A    
C98   H43   S    
Cu1   O3    S    
C50   C51   A    
C10   C12   A    
C3    C106  A    
C72   H22   S    
C64   H15   S    
C16   C96   A    
C61   H14   S    
C67   C68   A    
C88   H36   S    
C46   H61   S    
C76   C77   A    
C44   H59   S    
C91   C92   A    
C45   H60   S    
C78   C79   A    
C80   C81   A    
C79   H28   S    
C58   C59   A    
Cu1   O1    S    
C29   C34   S    
C82   C83   A    
C37   H12   S    
C60   C61   A    
C51   C53   A    
Cu2   N2    S    
C43   C44   A    
C27   N1    A    
C37   C38   A    
C28   Cl9   S    
C86   H33   S    
C21   N2    A    
C104  H49   S    
C84   H32   S    
C19   C49   S    
C99   C100  A    
C14   C15   A    
C80   H29   S    
C34   C63   T    
C95   C97   A    
C17   C18   A    
C87   H35   S    
C10   Cl5   S    
C17   C96   A    
C24   C25   A    
C17   C56   S    
C65   H16   S    
C31   C43   S    
C99   H44   S    
C23   O6    A    
C3    C102  A    
C55   H8    S    
C49   C50   A    
C97   H42   S    
C32   C89   S    
C66   H17   S    
C38   H23   S    
C90   H37   S    
C89   C90   A    
C77   H26   S    
C39   C40   A    
C9    H58   S    
C44   C45   A    
C86   C87   A    
C73   H24   S    
Cu1   N1    S    
C54   C55   A    
C46   C47   A    
C94   H41   S    
C41   Cl1   S    
C30   C33   S    
C10   C15   A    
C56   C61   A    
C18   C62   S    
C50   H4    S    
C24   C28   A    
C26   H1    S    
C72   C73   A    
C76   C81   A    
Cu1   O5    S    
C8    H57   S    
C53   C54   A    
C6    C7    A    
C6    H54   S    
C32   C82   S    
C105  C106  A    
C62   C68   A    
C19   C36   S    
C32   C33   S    
C25   C26   A    
Cu2   O4    S    
C71   C72   A    
C22   N2    A    
C49   C55   A    
C64   C65   A    
C23   O5    A    
C35   C52   S    
C3    H52   S    
C57   C58   A    
C38   C39   A    
C52   Cl3   S    
C11   C85   S    
C82   C88   A    
C4    C5    A    
C31   C35   S    
C92   C93   A    
C5    H53   S    
C69   C75   A    
C22   C24   A    
Cu2   O2    S    
C65   C66   A    
C74   C85   T    
C101  H47   S    
C67   H18   S    
C69   C70   A    
C91   H38   S    
C75   H25   S    
C78   H27   S    
C79   C80   A    
C27   Cl8   S    
C45   C46   A    
C70   H20   S    
C20   C21   A    
C98   C99   A    
C4    C41   S    
C103  C104  A    
C29   O8    A    
C100  H46   S    
C4    C9    A    
C13   C14   A    
C19   C30   S    
C31   Cl7   S    
C95   C101  A    
C27   C28   A    
