data_mof_unit_58612.cif
_audit_creation_date              2012-12-11T15:23:51-0500
_audit_creation_method            fapswitch 2.2
_symmetry_space_group_name_H-M    P1
_symmetry_Int_Tables_number       1
_space_group_crystal_system       triclinic
_cell_length_a                    17.223789
_cell_length_b                    24.296272
_cell_length_c                    14.889785
_cell_angle_alpha                 89.853989
_cell_angle_beta                  125.195283
_cell_angle_gamma                 89.764273
_cell_volume                      5091.77860246

loop_
_atom_site_label
_atom_site_type_symbol
_atom_type_description
_atom_site_fract_x
_atom_site_fract_y
_atom_site_fract_z
_atom_type_partial_charge
C1    C     C_R   0.316730 0.368311 0.912115 -0.134671
C2    C     C_R   0.551452 0.499242 0.725174 0.039414
C3    C     C_3   0.509085 0.113305 0.230169 -0.228697
C4    C     C_3   0.502123 0.126919 0.125597 -1.055695
C5    C     C_3   0.497188 0.027291 0.601520 0.172388
C6    C     C_3   0.425190 0.980454 0.562478 -0.335821
C7    C     C_3   0.392632 0.973105 0.637767 -0.986809
C8    C     C_3   0.281758 0.603777 0.200443 0.135020
C9    C     C_3   0.342894 0.581429 0.318118 -0.239462
C10   C     C_3   0.321969 0.521044 0.323674 -1.004033
C11   C     C_3   0.511374 0.762579 0.713465 0.149540
C12   C     C_3   0.446959 0.810156 0.639866 -0.243421
C13   C     C_R   0.066634 0.999473 0.367960 0.046817
C14   C     C_3   0.442477 0.814068 0.534624 -1.060754
C15   C     C_3   0.770737 0.127756 0.240267 0.159665
C16   C     C_3   0.846716 0.095423 0.342674 -0.251272
C17   C     C_3   0.804477 0.064801 0.394561 -1.012416
C18   C     C_3   0.016176 0.257752 0.714661 0.152171
C19   C     C_3   0.953267 0.303540 0.633563 -0.252431
C20   C     C_3   0.950498 0.301017 0.529326 -1.045873
C21   C     C_R   0.051430 0.999434 0.725231 0.034249
C22   C     C_R   0.173414 0.500006 0.698245 -0.030432
C23   C     C_R   0.826248 0.496609 0.302084 -0.133354
C24   C     C_R   0.684655 0.998982 0.649014 -0.091808
C25   C     C_R   0.322663 0.998755 0.262994 -0.070293
C26   C     C_2   0.931805 0.461028 0.482044 -0.214633
C27   C     C_2   0.022214 0.456246 0.587055 -0.300441
C28   C     C_2   0.477685 0.955861 0.366996 -0.285481
C29   C     C_R   0.647076 0.347098 0.090456 -0.129478
C30   C     C_2   0.573740 0.962899 0.466410 -0.219101
C31   C     C_2   0.922351 0.491642 0.400453 0.613972
C32   C     C_2   0.070840 0.501965 0.636438 0.623587
C33   C     C_2   0.424094 0.999448 0.307942 0.598019
C34   C     C_2   0.590844 0.998583 0.545022 0.597913
C35   C     C_R   0.157730 0.686883 0.900439 -0.236778
C36   C     C_R   0.717321 0.763331 0.103231 -0.242560
C37   C     C_R   0.656079 0.185134 0.900715 -0.244994
C38   C     C_R   0.214676 0.263377 0.103370 -0.238204
C39   C     C_R   0.608463 0.231293 0.899661 -0.161744
C40   C     C_R   0.812024 0.873775 0.910782 -0.131458
C41   C     C_R   0.268622 0.305580 0.105711 -0.162649
C42   C     C_R   0.107758 0.731743 0.899118 -0.162100
C43   C     C_R   0.767384 0.807868 0.105498 -0.162496
C44   C     C_R   0.638359 0.256695 0.998873 0.095359
C45   C     C_R   0.246282 0.327906 0.007058 0.098259
C46   C     C_R   0.136751 0.756712 0.998360 0.073785
C47   C     C_R   0.742815 0.831692 0.006889 0.100615
C48   C     C_R   0.700270 0.228355 0.097934 -0.337179
C49   C     C_R   0.158365 0.316724 0.909054 -0.357166
C50   C     C_R   0.199203 0.728532 0.097453 -0.287545
C51   C     C_R   0.145658 0.846754 0.090151 -0.145173
C52   C     C_R   0.655386 0.819244 0.909330 -0.359463
C53   C     C_R   0.247268 0.682098 0.099077 0.549248
C54   C     C_R   0.604106 0.773286 0.904953 0.571326
C55   C     C_R   0.746698 0.180800 0.099467 0.547965
C56   C     C_R   0.104283 0.272503 0.904481 0.570465
C57   C     C_R   0.403288 0.625879 0.092531 -0.130626
C58   C     C_R   0.557294 0.651679 0.909415 -0.128617
C59   C     C_R   0.901484 0.123877 0.091999 -0.103897
C60   C     C_R   0.055819 0.151931 0.909320 -0.133887
C61   C     C_R   0.237053 0.667292 0.000883 -0.043568
C62   C     C_R   0.314109 0.640734 0.001604 0.073439
C63   C     C_R   0.642020 0.742038 0.002407 0.008419
C64   C     C_R   0.734665 0.164693 0.000931 -0.003753
C65   C     C_R   0.139272 0.242311 0.002264 0.006988
C66   C     C_R   0.607477 0.548986 0.627282 -0.175449
C67   C     C_R   0.610186 0.548998 0.536163 -0.186987
C68   C     C_R   0.105334 0.049570 0.625805 -0.168938
C69   C     C_R   0.107514 0.049580 0.534420 -0.184746
C70   C     C_R   0.601152 0.499217 0.483589 0.147514
C71   C     C_R   0.595384 0.499197 0.665490 0.142851
C72   C     C_R   0.100575 0.999670 0.483292 0.148645
C73   C     C_R   0.616649 0.684141 0.000397 0.087964
C74   C     C_R   0.095189 0.999676 0.665418 0.142204
C75   C     C_R   0.610036 0.449357 0.536450 -0.172030
C76   C     C_R   0.607719 0.449372 0.627806 -0.167932
C77   C     C_R   0.111397 0.949923 0.537449 -0.172487
C78   C     C_R   0.109085 0.949949 0.628860 -0.164452
C79   C     C_R   0.550223 0.453700 0.304218 -0.144420
C80   C     C_R   0.520019 0.453243 0.751079 -0.124422
C81   C     C_R   0.050229 0.953783 0.304323 -0.134108
C82   C     C_R   0.020075 0.953335 0.751042 -0.125416
C83   C     C_R   0.230361 0.545418 0.730078 -0.100730
C84   C     C_R   0.810517 0.136391 0.001021 0.083350
C85   C     C_R   0.770274 0.544152 0.267865 -0.112544
C86   C     C_R   0.737303 0.045040 0.704364 -0.100454
C87   C     C_R   0.267128 0.044947 0.241900 -0.073242
C88   C     C_R   0.549458 0.544994 0.303424 -0.154159
C89   C     C_R   0.520893 0.545374 0.751979 -0.127831
C90   C     C_R   0.049180 0.045083 0.303211 -0.156124
C91   C     C_R   0.020840 0.045486 0.752108 -0.130434
C92   C     C_R   0.231119 0.453892 0.731074 -0.171022
C93   C     C_R   0.767058 0.451739 0.259683 -0.146718
C94   C     C_R   0.739343 0.953352 0.705354 -0.176343
C95   C     C_R   0.113677 0.184659 0.000130 0.095158
C96   C     C_R   0.266432 0.953012 0.241577 -0.191159
C97   C     C_R   0.313616 0.629622 0.909604 -0.123003
C98   C     C_R   0.647211 0.651512 0.091741 -0.144619
C99   C     C_R   0.809020 0.123869 0.908514 -0.130026
C100  C     C_R   0.144831 0.152053 0.091360 -0.162321
C101  C     C_R   0.405908 0.373185 0.095129 -0.140816
C102  C     C_R   0.555577 0.347188 0.908127 -0.149066
C103  C     C_R   0.904019 0.875098 0.094441 -0.135110
C104  C     C_R   0.054787 0.847134 0.907901 -0.146043
C105  C     C_R   0.318772 0.356754 0.004745 0.079761
C106  C     C_R   0.566943 0.499312 0.368109 0.055446
C107  C     C_R   0.616441 0.314888 0.999351 0.087210
C108  C     C_R   0.814672 0.861357 0.003818 0.076719
C109  C     C_R   0.114642 0.814659 0.998985 0.091182
C110  C     C_3   0.984078 0.540152 0.318282 0.196122
C111  C     C_3   0.077236 0.563005 0.343701 -0.239611
C112  C     C_3   0.063287 0.590117 0.242808 -1.058619
C113  C     C_3   0.012387 0.570309 0.687774 0.138592
C114  C     C_3   0.919732 0.547337 0.664832 -0.292208
C115  C     C_3   0.898662 0.571383 0.743291 -0.991356
C116  C     C_3   0.456373 0.060283 0.217944 0.159914
H1    H     H_    0.264332 0.354420 0.830141 0.087598
H2    H     H_    0.332610 0.316237 0.184222 0.117184
H3    H     H_    0.879831 0.299164 0.611022 0.205321
H4    H     H_    0.980231 0.344378 0.672480 0.189078
H5    H     H_    0.022777 0.307217 0.549452 0.268319
H6    H     H_    0.902882 0.333939 0.471367 0.267504
H7    H     H_    0.922939 0.260593 0.488425 0.272736
H8    H     H_    0.432554 0.630974 0.178186 0.156516
H9    H     H_    0.512196 0.664380 0.824644 0.138357
H10   H     H_    0.931352 0.129398 0.177613 0.163127
H11   H     H_    0.010113 0.164483 0.824606 0.137451
H12   H     H_    0.567776 0.587083 0.330504 0.088863
H13   H     H_    0.054449 0.749926 0.820326 0.114682
H14   H     H_    0.531620 0.588046 0.742243 0.085432
H15   H     H_    0.067505 0.087191 0.330133 0.093146
H16   H     H_    0.031538 0.088208 0.742680 0.086652
H17   H     H_    0.830839 0.819131 0.183940 0.116821
H18   H     H_    0.719658 0.245086 0.175439 0.133600
H19   H     H_    0.135166 0.339925 0.835490 0.125980
H20   H     H_    0.216488 0.744195 0.174833 0.140661
H21   H     H_    0.630569 0.843098 0.836070 0.129048
H22   H     H_    0.604922 0.588248 0.659449 0.108984
H23   H     H_    0.609606 0.588287 0.501639 0.111370
H24   H     H_    0.101342 0.088855 0.656814 0.105330
H25   H     H_    0.684919 0.333333 0.174792 0.087876
H26   H     H_    0.104901 0.088884 0.498667 0.110046
H27   H     H_    0.609232 0.410066 0.502139 0.107008
H28   H     H_    0.605487 0.410118 0.660500 0.110708
H29   H     H_    0.112211 0.910644 0.504141 0.106718
H30   H     H_    0.108246 0.910720 0.662662 0.109447
H31   H     H_    0.569518 0.411586 0.332132 0.085010
H32   H     H_    0.529905 0.410507 0.740502 0.094266
H33   H     H_    0.069470 0.911685 0.332426 0.084857
H34   H     H_    0.030025 0.910626 0.740299 0.093920
H35   H     H_    0.206502 0.586838 0.701399 0.116391
H36   H     H_    0.754294 0.866478 0.826465 0.094261
H37   H     H_    0.793307 0.585983 0.294038 0.099837
H38   H     H_    0.720768 0.086860 0.673545 0.108274
H39   H     H_    0.288526 0.087325 0.248879 0.123887
H40   H     H_    0.209175 0.412319 0.704556 0.094764
H41   H     H_    0.786891 0.408768 0.277850 0.098432
H42   H     H_    0.724718 0.911262 0.677099 0.091577
H43   H     H_    0.286444 0.910368 0.247157 0.111740
H44   H     H_    0.261566 0.643132 0.827127 0.090495
H45   H     H_    0.683461 0.664612 0.175987 0.090347
H46   H     H_    0.751081 0.129755 0.823787 0.094843
H47   H     H_    0.183070 0.832878 0.174408 0.092653
H48   H     H_    0.179811 0.165309 0.175339 0.094545
H49   H     H_    0.433277 0.369670 0.180737 0.094535
H50   H     H_    0.508131 0.333571 0.824194 0.086532
H51   H     H_    0.931756 0.871046 0.180063 0.093825
H52   H     H_    0.007362 0.833726 0.823818 0.084954
H53   H     H_    0.872801 0.438641 0.472055 0.100858
H54   H     H_    0.053441 0.415470 0.612311 0.112094
H55   H     H_    0.446543 0.915752 0.357600 0.103555
H56   H     H_    0.627362 0.932998 0.482191 0.098275
H57   H     H_    0.931855 0.574593 0.287421 0.106342
H58   H     H_    0.140327 0.672378 0.822452 0.125731
H59   H     H_    0.957897 0.507699 0.254408 0.096169
H60   H     H_    0.105526 0.594018 0.410216 0.208281
H61   H     H_    0.130310 0.529116 0.372975 0.201125
H62   H     H_    0.040394 0.559191 0.177317 0.272175
H63   H     H_    0.131429 0.608319 0.265981 0.273510
H64   H     H_    0.009190 0.623523 0.210868 0.274236
H65   H     H_    0.006935 0.615918 0.683168 0.134872
H66   H     H_    0.073997 0.559759 0.773103 0.077995
H67   H     H_    0.859815 0.557379 0.578873 0.211007
H68   H     H_    0.925244 0.501854 0.674672 0.193434
H69   H     H_    0.745143 0.742724 0.180545 0.133893
H70   H     H_    0.957365 0.561418 0.829750 0.266545
H71   H     H_    0.831837 0.553557 0.725297 0.279137
H72   H     H_    0.889937 0.616783 0.732963 0.263199
H73   H     H_    0.379870 0.065748 0.149448 0.093826
H74   H     H_    0.487334 0.026090 0.197865 0.097266
H75   H     H_    0.478315 0.147926 0.249010 0.199651
H76   H     H_    0.585204 0.108641 0.299550 0.200990
H77   H     H_    0.534145 0.093284 0.106346 0.266062
H78   H     H_    0.541145 0.165552 0.137400 0.268383
H79   H     H_    0.426654 0.132755 0.055371 0.276711
H80   H     H_    0.637591 0.170125 0.822514 0.135074
H81   H     H_    0.463453 0.065774 0.604032 0.133465
H82   H     H_    0.559899 0.019591 0.687343 0.090798
H83   H     H_    0.362178 0.989644 0.478014 0.225220
H84   H     H_    0.457950 0.941350 0.560867 0.197934
H85   H     H_    0.454212 0.962964 0.722647 0.265010
H86   H     H_    0.340830 0.938897 0.607079 0.271434
H87   H     H_    0.357536 0.011296 0.638932 0.271581
H88   H     H_    0.289925 0.576286 0.146693 0.117185
H89   H     H_    0.205944 0.603608 0.171574 0.102216
H90   H     H_    0.419105 0.585549 0.351177 0.206409
H91   H     H_    0.240124 0.243747 0.180899 0.135008
H92   H     H_    0.329270 0.606073 0.370560 0.193869
H93   H     H_    0.246217 0.515919 0.292168 0.270483
H94   H     H_    0.367316 0.506523 0.410364 0.275275
H95   H     H_    0.337925 0.495477 0.274342 0.271312
H96   H     H_    0.479245 0.723504 0.668674 0.114231
H97   H     H_    0.582300 0.764591 0.727495 0.080778
H98   H     H_    0.374091 0.803655 0.617887 0.203977
H99   H     H_    0.473348 0.849729 0.684571 0.200260
H100  H     H_    0.513837 0.823484 0.554467 0.266319
H101  H     H_    0.392529 0.847505 0.481385 0.268864
H102  H     H_    0.555836 0.249787 0.820929 0.116122
H103  H     H_    0.416829 0.774771 0.488608 0.277370
H104  H     H_    0.717533 0.098137 0.178149 0.103535
H105  H     H_    0.735093 0.156929 0.263440 0.112272
H106  H     H_    0.881209 0.065210 0.319941 0.206684
H107  H     H_    0.902034 0.124162 0.404130 0.198627
H108  H     H_    0.772455 0.094411 0.421402 0.262575
H109  H     H_    0.861438 0.041250 0.467546 0.278020
H110  H     H_    0.749195 0.035579 0.334851 0.269559
H111  H     H_    0.985103 0.217616 0.674387 0.112520
H112  H     H_    0.088420 0.258475 0.731992 0.077938
N1    N     N_R   0.395440 0.396300 0.944370 -0.037831
N2    N     N_R   0.474910 0.470990 0.794360 -0.039661
N3    N     N_R   0.025090 0.970990 0.205640 -0.036741
N4    N     N_R   0.974910 0.970990 0.794360 -0.038750
N5    N     N_R   0.320240 0.527820 0.794510 -0.044626
N6    N     N_R   0.679760 0.527820 0.205490 -0.032874
N7    N     N_R   0.820240 0.027820 0.794510 -0.039044
N8    N     N_R   0.179760 0.027820 0.205490 -0.044922
N9    N     N_R   0.524580 0.527810 0.205160 -0.039876
N10   N     N_R   0.475420 0.527810 0.794840 -0.041563
N11   N     N_R   0.024580 0.027810 0.205160 -0.038986
N12   N     N_R   0.604560 0.396300 0.055630 -0.038998
N13   N     N_R   0.975420 0.027810 0.794840 -0.039880
N14   N     N_R   0.320750 0.470990 0.794990 -0.030987
N15   N     N_R   0.679250 0.470990 0.205010 -0.028663
N16   N     N_R   0.820750 0.970990 0.794990 -0.026139
N17   N     N_R   0.179250 0.970990 0.205010 -0.028639
N18   N     N_R   0.393580 0.602500 0.942610 -0.040501
N19   N     N_R   0.606420 0.602500 0.057390 -0.039794
N20   N     N_R   0.893580 0.102500 0.942610 -0.040351
N21   N     N_R   0.106420 0.102500 0.057390 -0.043692
N22   N     N_R   0.451750 0.396300 0.057540 -0.040451
N23   N     N_R   0.895440 0.896300 0.944370 -0.039493
N24   N     N_R   0.548250 0.396300 0.942460 -0.038757
N25   N     N_R   0.951750 0.896300 0.057540 -0.040399
N26   N     N_R   0.048250 0.896300 0.942460 -0.039156
N27   N     N_R   0.104560 0.896300 0.055630 -0.037849
N28   N     N_R   0.449890 0.602500 0.055780 -0.047066
N29   N     N_R   0.550110 0.602500 0.944220 -0.047281
N30   N     N_R   0.949890 0.102500 0.055780 -0.051560
N31   N     N_R   0.050110 0.102500 0.944220 -0.046944
N32   N     N_R   0.525090 0.470990 0.205640 -0.037962
Ni1   Ni    Ni4+2 0.435420 0.434250 0.870220 0.214478
Ni2   Ni    Ni4+2 0.564580 0.434250 0.129780 0.207669
Ni3   Ni    Ni4+2 0.935420 0.934250 0.870220 0.211436
Ni4   Ni    Ni4+2 0.064580 0.934250 0.129780 0.210972
Ni5   Ni    Ni4+2 0.563400 0.564580 0.128670 0.209290
Ni6   Ni    Ni4+2 0.436600 0.564580 0.871330 0.217560
Ni7   Ni    Ni4+2 0.063400 0.064580 0.128670 0.208474
Ni8   Ni    Ni4+2 0.936600 0.064580 0.871330 0.217802
O1    O     O_3   0.001261 0.518106 0.416018 -0.639484
O2    O     O_3   0.025328 0.552885 0.606678 -0.637282
O3    O     O_3   0.466945 0.049349 0.317537 -0.617321
O4    O     O_3   0.521670 0.036079 0.526627 -0.622688
O5    O     O_3   0.312318 0.657553 0.199610 -0.686322
O6    O     O_3   0.514921 0.760739 0.811053 -0.681135
O7    O     O_3   0.815074 0.156680 0.199171 -0.694006
O8    O     O_3   0.015487 0.260662 0.809433 -0.678842

loop_
_geom_bond_atom_site_label_1
_geom_bond_atom_site_label_2
_ccdc_geom_bond_type
C114  H67   S    
C4    H79   S    
C44   C48   A    
N3    Ni4   S    
C103  H51   S    
C15   H104  S    
N4    Ni3   S    
C13   C90   A    
C48   C55   A    
C6    C7    S    
C39   H102  S    
C16   H106  S    
C111  C112  S    
C12   H98   S    
N28   Ni5   S    
C51   N27   A    
C98   H45   S    
C101  N22   A    
C114  C115  S    
C57   C62   A    
C77   C78   A    
C59   H10   S    
C4    H78   S    
C26   C27   S    
N26   N27   A    
C94   H42   S    
C22   C32   S    
C90   N11   A    
C102  N24   A    
C79   N32   A    
C60   N31   A    
C48   H18   S    
C36   H69   S    
C7    H86   S    
C3    H75   S    
C3    C116  S    
C5    C6    S    
C88   H12   S    
C114  H68   S    
C25   C96   A    
N23   N25   A    
C54   C63   A    
C68   C74   A    
C15   C16   S    
C99   H46   S    
C13   C81   A    
C25   C87   A    
C104  N26   A    
C40   H36   S    
N3    N11   A    
C18   C19   S    
C42   C46   A    
C43   H17   S    
C35   C42   A    
C94   N16   A    
C110  C111  S    
N22   Ni2   S    
C20   H7    S    
C7    H87   S    
N31   Ni8   S    
C28   H55   S    
N5    Ni6   S    
C68   C69   A    
C53   C61   A    
C10   H94   S    
C64   C84   S    
C91   N13   A    
C26   H53   S    
C52   C54   A    
C16   C17   S    
C56   O8    S    
N8    Ni7   S    
C35   C61   A    
C59   N30   A    
C51   H47   S    
C103  C108  A    
N15   Ni2   S    
C41   H2    S    
C36   C63   A    
C67   H23   S    
C9    C10   S    
C29   N12   A    
C20   H6    S    
N1    N22   A    
C65   C95   S    
C115  H71   S    
N6    N15   A    
C112  H64   S    
C61   C62   S    
C53   O5    S    
C66   C67   A    
C49   H19   S    
N2    Ni1   S    
C19   H3    S    
C26   C31   D    
C102  H50   S    
C33   O3    S    
C84   C99   A    
C34   O4    S    
C73   C98   A    
C92   N14   A    
N21   N31   A    
N30   Ni7   S    
N8    N17   A    
N19   N29   A    
C45   C105  S    
C82   N4    A    
C83   H35   S    
C101  C105  A    
C4    H77   S    
C2    C89   A    
C113  H65   S    
N9    Ni5   S    
C50   C53   A    
C38   H91   S    
C30   C34   D    
C58   N29   A    
C14   H100  S    
C111  H60   S    
C97   H44   S    
C83   N5    A    
C8    H88   S    
C2    C80   A    
C113  O2    S    
C38   C41   A    
N32   Ni2   S    
C100  N21   A    
C93   N15   A    
N12   Ni2   S    
C97   N18   A    
C115  H70   S    
C78   H30   S    
C95   C100  A    
C8    C9    S    
N6    Ni5   S    
C85   H37   S    
C91   H16   S    
C63   C73   S    
C14   H101  S    
C69   H26   S    
C110  H59   S    
C5    H82   S    
C21   C74   S    
C32   O2    S    
C24   C34   S    
C87   N8    A    
C85   N6    A    
C79   C106  A    
C23   C31   S    
C15   H105  S    
C69   C72   A    
C15   O7    S    
C75   C76   A    
C37   H80   S    
C11   O6    S    
C31   O1    S    
C72   C77   A    
C24   C94   A    
C11   H96   S    
C104  H52   S    
C62   C97   A    
C88   C106  A    
C17   H110  S    
N5    N14   A    
C10   H93   S    
C66   C71   A    
C66   H22   S    
C38   C65   A    
C45   C49   A    
C54   O6    S    
C29   H25   S    
C55   C64   A    
C44   C107  S    
N9    N32   A    
C52   H21   S    
N13   Ni8   S    
N11   Ni7   S    
C102  C107  A    
C92   H40   S    
N16   Ni3   S    
C1    H1    S    
C2    C71   S    
C59   C84   A    
C93   H41   S    
C27   H54   S    
C30   H56   S    
C20   H5    S    
C82   H34   S    
C75   H27   S    
N24   Ni1   S    
C11   H97   S    
C112  H63   S    
N20   N30   A    
C90   H15   S    
C76   H28   S    
N25   Ni4   S    
C12   C14   S    
C28   C33   D    
N12   N24   A    
N1    Ni1   S    
C74   C78   A    
C101  H49   S    
C103  N25   A    
C23   C93   A    
C14   H103  S    
N2    N10   A    
C39   C44   A    
C17   H109  S    
C3    C4    S    
C116  O3    S    
C113  H66   S    
C77   H29   S    
C96   N17   A    
C37   C64   A    
C116  H73   S    
C112  H62   S    
C113  C114  S    
C21   C91   A    
C110  H57   S    
N18   Ni6   S    
N7    Ni8   S    
C40   N23   A    
C116  H74   S    
C5    O4    S    
C41   C45   A    
C27   C32   D    
C35   H58   S    
C89   N10   A    
C60   H11   S    
N29   Ni6   S    
C8    O5    S    
C80   N2    A    
C16   H107  S    
C9    H92   S    
C100  H48   S    
C71   C76   A    
N26   Ni3   S    
C110  O1    S    
C5    H81   S    
C11   C12   S    
C47   C52   A    
N20   Ni8   S    
C13   C72   S    
C19   H4    S    
C24   C86   A    
C49   C56   A    
C46   C50   A    
C55   O7    S    
C86   N7    A    
C1    C105  A    
C40   C108  A    
C9    H90   S    
C67   C70   A    
C22   C83   A    
N21   Ni7   S    
C19   C20   S    
C28   C30   S    
C86   H38   S    
C23   C85   A    
N4    N13   A    
C37   C39   A    
C17   H108  S    
C50   H20   S    
N10   Ni6   S    
C7    H85   S    
C57   H8    S    
C6    H84   S    
C115  H72   S    
C6    H83   S    
N18   N28   A    
C3    H76   S    
C57   N28   A    
C81   H33   S    
C88   N9    A    
C98   N19   A    
N14   Ni1   S    
C79   H31   S    
C42   H13   S    
C87   H39   S    
C8    H89   S    
N7    N16   A    
C70   C106  S    
C68   H24   S    
C18   H111  S    
C89   H14   S    
C18   O8    S    
N19   Ni5   S    
C60   C95   A    
C1    N1    A    
C10   H95   S    
C80   H32   S    
C96   H43   S    
N27   Ni4   S    
C21   C82   A    
C58   H9    S    
C51   C109  A    
C47   C108  S    
C81   N3    A    
C46   C109  S    
N23   Ni3   S    
C70   C75   A    
C111  H61   S    
C22   C92   A    
C104  C109  A    
C29   C107  A    
C36   C43   A    
C12   H99   S    
C99   N20   A    
C18   H112  S    
N17   Ni4   S    
C43   C47   A    
C56   C65   A    
C58   C73   A    
C25   C33   S    
