data_mof_unit_39218.cif
_audit_creation_date              2012-12-10T17:32:12-0500
_audit_creation_method            fapswitch 2.2
_symmetry_space_group_name_H-M    P1
_symmetry_Int_Tables_number       1
_space_group_crystal_system       triclinic
_cell_length_a                    12.314625
_cell_length_b                    13.188879
_cell_length_c                    15.063395
_cell_angle_alpha                 77.406281
_cell_angle_beta                  101.443114
_cell_angle_gamma                 116.619309
_cell_volume                      2120.32457698

loop_
_atom_site_label
_atom_site_type_symbol
_atom_type_description
_atom_site_fract_x
_atom_site_fract_y
_atom_site_fract_z
_atom_type_partial_charge
C1    C     C_R   0.854863 0.286579 0.507893 0.776609
C2    C     C_R   0.902053 0.505597 0.076095 0.137646
C3    C     C_R   0.192591 0.477720 0.081438 0.489777
C4    C     C_R   0.192125 0.479415 0.988134 -0.301369
C5    C     C_R   0.095601 0.487857 0.924641 0.030076
C6    C     C_R   0.998488 0.496100 0.954025 0.060785
C7    C     C_R   0.901201 0.505111 0.890180 0.130758
C8    C     C_R   0.805031 0.513445 0.919829 -0.217204
C9    C     C_R   0.805478 0.513726 0.012325 -0.213832
C10   C     C_R   0.095051 0.488940 0.831914 -0.214674
C11   C     C_R   0.998755 0.498288 0.768268 -0.072461
C12   C     C_R   0.999467 0.499457 0.671249 0.807658
C13   C     C_R   0.902001 0.506123 0.797628 -0.255435
C14   C     C_R   0.275091 0.021605 0.376885 -0.191273
C15   C     C_R   0.227893 0.834621 0.467093 -0.048909
C16   C     C_R   0.815675 0.085026 0.567249 -0.188184
C17   C     C_R   0.736983 0.969962 0.584793 -0.145403
C18   C     C_R   0.613536 0.932339 0.552418 -0.182137
C19   C     C_R   0.566614 0.009410 0.498228 0.079766
C20   C     C_R   0.650045 0.124001 0.471341 0.081272
C21   C     C_R   0.439847 0.976228 0.468969 0.073401
C22   C     C_R   0.399978 0.053585 0.406367 0.168037
C23   C     C_R   0.145102 0.713458 0.486363 0.802829
C24   C     C_R   0.485282 0.160903 0.372204 -0.239359
C25   C     C_R   0.608549 0.195082 0.403100 -0.195918
C26   C     C_R   0.351083 0.868598 0.500819 -0.251660
C27   C     C_R   0.189344 0.912141 0.406611 -0.193094
C28   C     C_R   0.773091 0.163601 0.512722 -0.102605
C29   C     C_R   0.347742 0.329240 0.646734 -0.302612
C30   C     C_R   0.758748 0.644837 0.375388 0.065392
C31   C     C_R   0.661598 0.675887 0.348124 -0.241290
C32   C     C_R   0.558359 0.621152 0.394831 -0.173185
C33   C     C_R   0.551014 0.534115 0.469983 -0.012920
C34   C     C_R   0.000209 0.499969 0.328818 0.806244
C35   C     C_R   0.653063 0.505158 0.495390 0.288580
C36   C     C_R   0.446922 0.474967 0.520889 -0.036337
C37   C     C_R   0.447376 0.388493 0.595541 0.178135
C38   C     C_R   0.547288 0.361576 0.619006 -0.288674
C39   C     C_R   0.647636 0.418593 0.570255 -0.189715
C40   C     C_R   0.341638 0.497464 0.501560 0.020627
C41   C     C_R   0.247519 0.355610 0.624280 0.065986
C42   C     C_R   0.903248 0.506841 0.168416 -0.244986
C43   C     C_R   0.999979 0.498941 0.232087 -0.090944
C44   C     C_R   0.096173 0.489559 0.203323 -0.212278
C45   C     C_R   0.096714 0.487924 0.111038 -0.004598
C46   C     C_R   0.999038 0.496294 0.047120 -0.004803
Cu1   Cu    Cu3+1 0.098270 0.475420 0.521130 0.934013
Cu2   Cu    Cu3+1 0.901730 0.524580 0.478870 0.923161
H1    H     H_    0.828505 0.513665 0.190584 0.154292
H2    H     H_    0.456645 0.218892 0.321340 0.137161
H3    H     H_    0.244208 0.080194 0.328886 0.127739
H4    H     H_    0.375160 0.808363 0.551538 0.147902
H5    H     H_    0.909712 0.112914 0.598310 0.152112
H6    H     H_    0.558117 0.841897 0.569273 0.129272
H7    H     H_    0.771157 0.909920 0.626220 0.142968
H8    H     H_    0.670673 0.276812 0.370625 0.175272
H9    H     H_    0.170292 0.310201 0.663501 0.120804
H10   H     H_    0.548235 0.295588 0.676123 0.154144
H11   H     H_    0.347489 0.262985 0.703861 0.137054
H12   H     H_    0.170726 0.483704 0.252980 0.195516
H13   H     H_    0.333311 0.561590 0.446087 0.124692
H14   H     H_    0.838474 0.687851 0.338739 0.125053
H15   H     H_    0.485959 0.648646 0.370736 0.142319
H16   H     H_    0.666335 0.742661 0.290559 0.149203
H17   H     H_    0.719186 0.391655 0.594238 0.207586
H18   H     H_    0.267673 0.474515 0.965509 0.159140
H19   H     H_    0.170112 0.483030 0.809404 0.155442
H20   H     H_    0.827196 0.512854 0.748642 0.157555
H21   H     H_    0.729795 0.520159 0.871459 0.144535
H22   H     H_    0.730527 0.520642 0.033981 0.144457
H23   H     H_    0.094024 0.886734 0.379586 0.147122
N1    N     N_R   0.246280 0.438190 0.553160 -0.180448
N2    N     N_R   0.754320 0.561190 0.447410 -0.206926
O1    O     O_R   0.972510 0.318130 0.526570 -0.579102
O2    O     O_R   0.806530 0.359650 0.490890 -0.604278
O3    O     O_R   0.082980 0.479210 0.647590 -0.588058
O4    O     O_R   0.917000 0.520730 0.611900 -0.601105
O5    O     O_R   0.193470 0.640350 0.509110 -0.587302
O6    O     O_R   0.027490 0.681870 0.473430 -0.585335
O7    O     O_R   0.083000 0.479270 0.388100 -0.588218
O8    O     O_R   0.917020 0.520790 0.352410 -0.596851
O9    O     O_3   0.291273 0.474399 0.142593 -0.577919
C47   C     C_3   0.275940 0.359645 0.165599 -0.354465
H24   H     H_    0.189221 0.303786 0.196383 0.159327
H25   H     H_    0.352379 0.356347 0.217602 0.191660
H26   H     H_    0.279086 0.325856 0.105066 0.162787

loop_
_geom_bond_atom_site_label_1
_geom_bond_atom_site_label_2
_ccdc_geom_bond_type
C16   C28   A    
C21   C26   A    
C19   C20   A    
C25   H8    S    
C7    C8    A    
C10   H19   S    
C2    C46   A    
C8    H21   S    
C1    O1    A    
Cu2   O6    S    
C36   C37   A    
C19   C21   A    
C44   H12   S    
Cu1   O3    S    
C5    C6    A    
C20   C25   A    
C33   C36   A    
Cu2   O8    S    
C18   C19   A    
C16   H5    S    
C34   O7    A    
C38   H10   S    
C47   H24   S    
C8    C9    A    
C1    C28   S    
C34   O8    A    
C14   C27   A    
C40   N1    A    
C17   H7    S    
C15   C23   S    
C21   C22   A    
C39   H17   S    
Cu2   O2    S    
Cu1   O7    S    
Cu2   N2    S    
C24   H2    S    
C38   C39   A    
C1    O2    A    
Cu1   Cu2   S    
C29   H11   S    
C36   C40   A    
C24   C25   A    
Cu1   O1    S    
C30   N2    A    
C16   C17   A    
C15   C26   A    
C20   C28   A    
C45   C46   A    
C3    C45   A    
C40   H13   S    
Cu2   O4    S    
C35   C39   A    
C43   C44   A    
C37   C38   A    
C26   H4    S    
C15   C27   A    
C14   H3    S    
C12   O4    A    
C3    O9    S    
C17   C18   A    
C9    H22   S    
C41   N1    A    
C47   H25   S    
C30   H14   S    
C22   C24   A    
C42   C43   A    
C3    C4    A    
C27   H23   S    
C44   C45   A    
C35   N2    A    
C6    C46   A    
C29   C41   A    
C31   H16   S    
C31   C32   A    
C34   C43   S    
C32   H15   S    
C4    C5    A    
C11   C12   S    
C6    C7    A    
C32   C33   A    
C14   C22   A    
C12   O3    A    
C41   H9    S    
C5    C10   A    
C4    H18   S    
C11   C13   A    
C30   C31   A    
C2    C42   A    
C33   C35   A    
C23   O5    A    
Cu1   N1    S    
C10   C11   A    
C18   H6    S    
C42   H1    S    
C7    C13   A    
C47   H26   S    
O9    C47   S    
C29   C37   A    
Cu1   O5    S    
C23   O6    A    
C2    C9    A    
C13   H20   S    
