data_mof_unit_36199.cif
_audit_creation_date              2013-03-05T15:52:26-0500
_audit_creation_method            fapswitch 2.2
_symmetry_space_group_name_H-M    P1
_symmetry_Int_Tables_number       1
_space_group_crystal_system       triclinic
_cell_length_a                    27.756367
_cell_length_b                    10.858896
_cell_length_c                    9.58027
_cell_angle_alpha                 90.375173
_cell_angle_beta                  89.845627
_cell_angle_gamma                 92.660973
_cell_volume                      2884.3433049

loop_
_atom_site_label
_atom_site_type_symbol
_atom_site_description
_atom_site_fract_x
_atom_site_fract_y
_atom_site_fract_z
_atom_type_partial_charge
O1    O     O_R   0.500000 0.319640 0.618810 -0.557812
O2    O     O_R   0.500000 0.319660 0.381240 -0.583525
C1    C     C_R   0.504039 0.263216 0.500254 0.804440
O3    O     O_R   0.430260 0.500010 0.618770 -0.553986
O4    O     O_R   0.430270 0.500030 0.381200 -0.579121
C2    C     C_R   0.407521 0.498316 0.500086 0.821960
Cu1   Cu    Cu3+1 0.500000 0.499990 0.640660 0.943725
Cu2   Cu    Cu3+1 0.500000 0.500010 0.359340 0.935034
O5    O     O_R   0.500000 0.680340 0.618760 -0.619601
O6    O     O_R   0.500000 0.680360 0.381190 -0.597941
O7    O     O_R   0.569730 0.499970 0.618800 -0.600442
O8    O     O_R   0.569740 0.499990 0.381230 -0.586659
C3    C     C_R   0.497580 0.737682 0.501574 0.772495
C4    C     C_R   0.592238 0.501345 0.499772 0.763558
C5    C     C_R   0.176697 0.393437 0.589226 0.536806
O9    O     O_2   0.201959 0.327547 0.679875 -0.563622
N1    N     N_R   0.201316 0.469177 0.497164 -0.448253
C6    C     C_R   0.177691 0.536053 0.400831 0.584917
C7    C     C_R   0.279221 0.431272 0.383058 0.202785
C8    C     C_R   0.329665 0.441151 0.383753 -0.267713
C9    C     C_R   0.328447 0.532523 0.615255 -0.222845
C10   C     C_R   0.278129 0.525481 0.613767 -0.157659
C11   C     C_R   0.253222 0.475237 0.497967 0.368733
C12   C     C_R   0.100869 0.455053 0.490416 -0.078499
C13   C     C_R   0.125544 0.384346 0.588562 -0.055923
C14   C     C_R   0.097896 0.303751 0.676640 0.141711
C15   C     C_R   0.127345 0.526782 0.392511 -0.056673
C16   C     C_R   0.354531 0.491510 0.499645 -0.057286
H1    H     H_    0.346944 0.571451 0.705875 0.160470
H2    H     H_    0.258380 0.559276 0.702674 0.155467
C17   C     C_R   0.644866 0.503507 0.499230 -0.041518
C18   C     C_R   0.971950 0.401761 0.605006 0.028172
C19   C     C_R   0.975664 0.537326 0.399672 0.035276
C20   C     C_R   0.948450 0.472787 0.503844 0.033467
C21   C     C_R   0.944131 0.356198 0.720698 0.076487
C22   C     C_R   0.893293 0.356722 0.718081 0.141067
C23   C     C_R   0.869666 0.418282 0.610414 -0.048685
C24   C     C_R   0.897560 0.483522 0.509169 -0.149688
C25   C     C_R   0.874588 0.560732 0.413617 -0.002307
C26   C     C_R   0.823812 0.560939 0.412697 0.552989
N2    N     N_R   0.797318 0.492031 0.506563 -0.479651
C27   C     C_R   0.818816 0.422696 0.604957 0.572300
C28   C     C_R   0.717347 0.389679 0.470600 -0.096456
C29   C     C_R   0.667272 0.393491 0.468683 -0.248592
C30   C     C_R   0.673081 0.612330 0.529662 0.116256
C31   C     C_R   0.723417 0.605993 0.534880 -0.099503
C32   C     C_R   0.745611 0.495681 0.504426 0.298887
O10   O     O_2   0.790755 0.359100 0.697274 -0.498514
C33   C     C_R   0.022828 0.388157 0.592581 0.011285
C34   C     C_R   0.049652 0.454954 0.489739 0.030351
C35   C     C_R   0.025752 0.519542 0.384154 0.014084
C36   C     C_R   0.047734 0.303677 0.673316 -0.144401
H3    H     H_    0.645851 0.310204 0.444148 0.141579
H4    H     H_    0.734250 0.304227 0.446238 0.150315
H5    H     H_    0.028946 0.231733 0.731519 0.193132
O11   O     O_2   0.203003 0.611180 0.312783 -0.545910
C37   C     C_R   0.103436 0.580134 0.281739 -0.149564
H6    H     H_    0.349321 0.407082 0.294681 0.150569
H7    H     H_    0.124037 0.626045 0.199425 0.188534
C38   C     C_R   0.952993 0.628799 0.324186 -0.294046
C39   C     C_R   0.903180 0.638185 0.325793 0.184046
O12   O     O_2   0.800742 0.627432 0.317323 -0.499842
C40   C     C_R   0.053523 0.562575 0.266798 0.134387
H8    H     H_    0.973826 0.696239 0.264000 0.147000
H9    H     H_    0.745683 0.687322 0.561393 0.146932
H10   H     H_    0.498723 0.109483 0.279083 0.161626
C41   C     C_R   0.532459 0.123262 0.753698 -0.148992
H11   H     H_    0.551945 0.211741 0.752079 0.164272
C42   C     C_R   0.526871 0.065702 0.882580 -0.165975
H12   H     H_    0.539795 0.111889 0.976690 0.139149
C43   C     C_R   0.502851 0.951013 0.890517 -0.144599
H13   H     H_    0.495808 0.909077 0.991207 0.139810
C44   C     C_R   0.489080 0.888442 0.768431 -0.159384
H14   H     H_    0.468722 0.802327 0.781722 0.168166
C45   C     C_R   0.499549 0.939964 0.635262 0.095069
C46   C     C_R   0.514082 0.065828 0.630288 0.097640
C47   C     C_R   0.508830 0.129567 0.502713 -0.125039
C48   C     C_R   0.501487 0.063155 0.378373 -0.212207
H15   H     H_    0.494263 0.887265 0.281143 0.164303
C49   C     C_R   0.497416 0.935902 0.380044 -0.208640
C50   C     C_R   0.496156 0.872497 0.506996 -0.109544
H16   H     H_    0.445978 0.359471 0.129978 0.137733
C51   C     C_R   0.563465 0.666066 0.144908 -0.134665
H17   H     H_    0.567265 0.672476 0.254894 0.202603
C52   C     C_R   0.593444 0.749429 0.072654 -0.209313
H18   H     H_    0.616908 0.814915 0.128457 0.152104
C53   C     C_R   0.593525 0.748901 0.929005 -0.181939
H19   H     H_    0.616987 0.813961 0.872992 0.151148
C54   C     C_R   0.563391 0.665564 0.856733 -0.129500
H20   H     H_    0.566451 0.672232 0.747121 0.195548
C55   C     C_R   0.531208 0.581363 0.925654 0.147174
C56   C     C_R   0.531215 0.581441 0.075240 0.198192
N3    N     N_R   0.500460 0.501210 0.147910 -0.203964
C57   C     C_R   0.470267 0.422608 0.074067 -0.127291
C58   C     C_R   0.470084 0.422381 0.925652 0.244655
N4    N     N_R   0.500480 0.501290 0.852040 -0.197491
N5    N     N_3   0.254257 0.375078 0.266727 -0.567750
H21   H     H_    0.264333 0.424293 0.177004 0.238382
H22   H     H_    0.265950 0.285439 0.254955 0.216188
C59   C     C_3   0.651121 0.735817 0.554878 -0.439660
C60   C     C_3   0.666691 0.829087 0.443099 -0.799478
H23   H     H_    0.705794 0.854336 0.451590 0.260969
H24   H     H_    0.659144 0.789892 0.337824 0.252261
H25   H     H_    0.646346 0.914097 0.456426 0.238124
H26   H     H_    0.611208 0.728204 0.554093 0.186031
H27   H     H_    0.662504 0.771949 0.658947 0.205711
N6    N     N_3   0.882358 0.729567 0.240269 -0.514250
H28   H     H_    0.891967 0.712725 0.136486 0.217971
H29   H     H_    0.897444 0.816019 0.269110 0.211674
C61   C     C_3   0.032976 0.575332 0.120253 -0.446193
C62   C     C_3   0.058712 0.497087 0.011938 -0.782677
H30   H     H_    0.096898 0.529519 0.998061 0.246850
H31   H     H_    0.057193 0.398740 0.043623 0.266996
H32   H     H_    0.040645 0.504484 0.909264 0.258760
H33   H     H_    0.994617 0.542619 0.115234 0.216736
H34   H     H_    0.036029 0.673593 0.088361 0.203575
N7    N     N_3   0.437633 0.339187 0.852246 -0.513599
H35   H     H_    0.444491 0.249524 0.883120 0.203703
H36   H     H_    0.402512 0.357279 0.883353 0.194672
N8    N     N_3   0.118873 0.218030 0.769155 -0.581291
H37   H     H_    0.139199 0.266592 0.844876 0.267290
H38   H     H_    0.140478 0.159654 0.711768 0.264168
N9    N     N_3   0.865816 0.299204 0.829233 -0.510027
H39   H     H_    0.875013 0.342214 0.923974 0.219885
H40   H     H_    0.873745 0.206150 0.833793 0.217515
N10   N     N_3   0.967163 0.322890 0.848182 -0.627575
H41   H     H_    0.957062 0.382723 0.927847 0.226642
H42   H     H_    0.956117 0.232702 0.874641 0.214767

loop_
_geom_bond_atom_site_label_1
_geom_bond_atom_site_label_2
_geom_bond_distance
_ccdc_geom_bond_type
C53   H19   1.082369 S    
N3    C57   1.363882 A    
H16   C57   1.082316 S    
C44   C45   1.420333 A    
N2    C27   1.365846 A    
C58   N4    1.371477 A    
C12   C15   1.406842 A    
C4    C17   1.459842 S    
C28   C29   1.392608 A    
N5    H21   1.045725 S    
C7    N5    1.431976 S    
Cu1   Cu2   2.695123 S    
C47   C48   1.398926 A    
C58   N7    1.428814 S    
Cu1   O7    1.946198 S    
C51   C56   1.417735 A    
C59   H26   1.107137 S    
N10   H41   1.045236 S    
C22   C23   1.412185 A    
C14   N8    1.433493 S    
N7    H36   1.045524 S    
O4    C2    1.300610 A    
O7    C4    1.298608 A    
C48   C49   1.381388 A    
N9    H40   1.045309 S    
C5    O9    1.347504 S    
C3    C50   1.466879 S    
C26   O12   1.349422 S    
C5    N1    1.369431 A    
C44   H14   1.077979 S    
C23   C27   1.415568 A    
C42   C43   1.387494 A    
O5    C3    1.290760 A    
C61   C62   1.532893 S    
C59   C60   1.526567 S    
C55   N4    1.381019 A    
C29   H3    1.083868 S    
C2    C16   1.469242 S    
C21   C22   1.411625 A    
N6    H28   1.045888 S    
C54   C55   1.413794 A    
C36   H5    1.076805 S    
C6    O11   1.350273 S    
C60   H24   1.108808 S    
O1    Cu1   1.968194 S    
C9    C10   1.395305 A    
N6    H29   1.045800 S    
C42   H12   1.082693 S    
O3    Cu1   1.947630 S    
H10   C48   1.083536 S    
N5    H22   1.045577 S    
C60   H23   1.110100 S    
N8    H38   1.045309 S    
C37   C40   1.397284 A    
C52   C53   1.376161 A    
C12   C34   1.421586 A    
C25   C39   1.410244 A    
C17   C29   1.401087 A    
C6    C15   1.398824 A    
C41   H11   1.080637 S    
C18   C21   1.427100 A    
N9    H39   1.044865 S    
C22   N9    1.437291 S    
C35   C40   1.430147 A    
C12   C13   1.415784 A    
C31   H9    1.083347 S    
O3    C2    1.301548 A    
C15   C37   1.396344 A    
C55   C56   1.433070 A    
C43   C44   1.394152 A    
C45   C50   1.427598 A    
C27   O10   1.349100 S    
C8    C16   1.403304 A    
C34   C35   1.418200 A    
C13   C14   1.417983 A    
C52   H18   1.081446 S    
C9    H1    1.083242 S    
O6    C3    1.310024 A    
C38   C39   1.391141 A    
O1    C1    1.294061 A    
C18   C20   1.421094 A    
C21   N10   1.436188 S    
C7    C11   1.407612 A    
C45   C46   1.408034 A    
C23   C24   1.412861 A    
Cu1   N4    2.025111 S    
C14   C36   1.392745 A    
C28   H4    1.082866 S    
C51   H17   1.060753 S    
Cu2   O8    1.947625 S    
C33   C36   1.410216 A    
N1    C6    1.365774 A    
N2    C32   1.437777 S    
C62   H31   1.111038 S    
N1    C11   1.439219 S    
C46   C47   1.419683 A    
C19   C38   1.405520 A    
C26   N2    1.365105 A    
C51   C52   1.387874 A    
C9    C16   1.402995 A    
O8    C4    1.297171 A    
C60   H25   1.110776 S    
C53   C54   1.386557 A    
C8    H6    1.083872 S    
C1    C47   1.463838 S    
C61   H34   1.111207 S    
C25   C26   1.409540 A    
N8    H37   1.045080 S    
Cu1   O5    1.970974 S    
C31   C32   1.400880 A    
N10   H42   1.045149 S    
C10   H2    1.082917 S    
C62   H30   1.109192 S    
C20   C24   1.423454 A    
O2    Cu2   1.970974 S    
Cu2   N3    2.025686 S    
C49   C50   1.401077 A    
C30   C59   1.516187 S    
O4    Cu2   1.946200 S    
C19   C35   1.419735 A    
C59   H27   1.110335 S    
C38   H8    1.080533 S    
C7    C8    1.399310 A    
O2    C1    1.305559 A    
C43   H13   1.082861 S    
N7    H35   1.045456 S    
C24   C25   1.417846 A    
C40   C61   1.526326 S    
C56   N3    1.381349 A    
C19   C20   1.419032 A    
C62   H32   1.110365 S    
C57   C58   1.421861 A    
C39   N6    1.434029 S    
C18   C33   1.431256 A    
C37   H7    1.083343 S    
H15   C49   1.083491 S    
C30   C31   1.403064 A    
C5    C13   1.418695 A    
Cu2   O6    1.968194 S    
C33   C34   1.416479 A    
C17   C30   1.416163 A    
C10   C11   1.402685 A    
C41   C46   1.418105 A    
C41   C42   1.392607 A    
C54   H20   1.056003 S    
C28   C32   1.399310 A    
C61   H33   1.107724 S    
