data_mof_unit_67034.cif
_audit_creation_date              2013-03-05T15:58:15-0500
_audit_creation_method            fapswitch 2.2
_symmetry_space_group_name_H-M    P1
_symmetry_Int_Tables_number       1
_space_group_crystal_system       triclinic
_cell_length_a                    8.221875
_cell_length_b                    12.75859
_cell_length_c                    14.182809
_cell_angle_alpha                 92.917435
_cell_angle_beta                  90.755595
_cell_angle_gamma                 98.57763
_cell_volume                      1468.8968919

loop_
_atom_site_label
_atom_site_type_symbol
_atom_site_description
_atom_site_fract_x
_atom_site_fract_y
_atom_site_fract_z
_atom_type_partial_charge
P1    P     P_3+3 0.054400 0.427280 0.286870 0.459568
O1    O     O_2   0.887370 0.460630 0.272300 -0.366483
O2    O     O_3   0.129410 0.451380 0.388510 -0.412867
O3    O     O_3   0.670210 0.653170 0.329170 -0.394777
O4    O     O_2   0.779032 0.580486 0.165421 -0.313198
O5    O     O_3   0.017553 0.289554 0.264211 -0.580073
O6    O     O_3   0.729905 0.776718 0.168247 -0.450125
H1    H     H_    0.753477 0.878248 0.287248 0.136805
C1    C     C_3   0.653316 0.948737 0.168588 -1.012543
H2    H     H_    0.609412 0.012181 0.213566 0.244631
H3    H     H_    0.774582 0.979581 0.139239 0.284768
P2    P     P_3+3 0.668300 0.742890 0.573060 0.484571
P3    P     P_3+3 0.135830 0.842869 0.376946 0.456041
O7    O     O_2   0.845380 0.761330 0.544970 -0.355132
O8    O     O_3   0.088930 0.704860 0.376040 -0.346434
O9    O     O_2   0.022042 0.886458 0.449895 -0.388800
O10   O     O_3   0.717352 0.771827 0.693922 -0.601979
O11   O     O_3   0.067515 0.887686 0.270451 -0.555344
C2    C     C_3   0.185031 0.885701 0.199129 0.923141
H4    H     H_    0.296551 0.854080 0.221835 -0.114580
C3    C     C_3   0.238738 0.999314 0.169661 -1.068208
H5    H     H_    0.320254 0.999992 0.107920 0.256117
H6    H     H_    0.129807 0.036481 0.150522 0.279055
C4    C     C_3   0.196521 0.761822 0.651666 0.412874
H7    H     H_    0.303157 0.740207 0.612993 0.009423
H8    H     H_    0.089715 0.739057 0.604731 0.174835
C5    C     C_3   0.217979 0.880926 0.672455 -0.883059
H9    H     H_    0.325377 0.905914 0.720424 0.226327
H10   H     H_    0.238384 0.922380 0.606018 0.244305
H11   H     H_    0.106199 0.903203 0.706376 0.286121
Ba1   Ba    Ba6+2 0.855630 0.555280 0.454520 1.607749
C6    C     C_3   0.966061 0.239070 0.346288 0.387727
H12   H     H_    0.840727 0.254290 0.361614 0.092500
H13   H     H_    0.048849 0.265833 0.408018 0.144914
C7    C     C_3   0.965777 0.120703 0.329035 -0.917492
H14   H     H_    0.899913 0.092941 0.261861 0.262098
H15   H     H_    0.904792 0.076014 0.386857 0.233898
H16   H     H_    0.094174 0.104566 0.325008 0.269118
C8    C     C_3   0.594227 0.729095 0.753715 0.833578
H17   H     H_    0.473764 0.715982 0.718916 0.008252
C9    C     C_3   0.585474 0.806947 0.838316 -0.997302
H18   H     H_    0.706813 0.825815 0.875686 0.297485
H19   H     H_    0.491099 0.773203 0.888205 0.241986
H20   H     H_    0.549812 0.881167 0.813264 0.219792
P4    P     P_3+3 0.135310 0.572810 0.713130 0.503295
O12   O     O_2   0.302330 0.539400 0.727760 -0.370339
O13   O     O_3   0.060300 0.548700 0.611500 -0.400465
O14   O     O_3   0.519500 0.346920 0.670840 -0.318294
O15   O     O_3   0.176344 0.710485 0.736833 -0.554976
P5    P     P_3+3 0.060798 0.156964 0.627332 0.450999
O16   O     O_3   0.614310 0.373510 0.452640 -0.389941
O17   O     O_3   0.100780 0.295230 0.623970 -0.406411
O18   O     O_2   0.192505 0.112703 0.566761 -0.364524
O19   O     O_3   0.100755 0.120269 0.741789 -0.510659
Ba2   Ba    Ba6+2 0.334200 0.444810 0.545490 1.591947
P6    P     P_3+3 0.656603 0.650558 0.206071 0.531101
C10   C     C_3   0.667835 0.853396 0.226339 0.488234
H21   H     H_    0.545001 0.824570 0.254487 0.006223
H22   H     H_    0.565165 0.924597 0.108732 0.265001
O20   O     O_3   0.575400 0.626570 0.547370 -0.357247
C11   C     C_3   0.477175 0.309802 0.258869 0.432401
H23   H     H_    0.359533 0.330824 0.285870 0.096999
H24   H     H_    0.577375 0.377545 0.273411 0.120924
C12   C     C_3   0.459732 0.288672 0.152374 -1.013662
H25   H     H_    0.352799 0.226363 0.134896 0.279885
H26   H     H_    0.440324 0.362218 0.118109 0.221448
H27   H     H_    0.573060 0.262024 0.124213 0.266258
P7    P     P_3+3 0.526757 0.241490 0.422894 0.412152
O21   O     O_2   0.344320 0.238700 0.455090 -0.369694
O22   O     O_3   0.514655 0.218324 0.300054 -0.590300
H28   H     H_    0.307470 0.047420 0.228569 0.251943
C13   C     C_3   0.058822 0.198162 0.806833 0.488670
H29   H     H_    0.141454 0.274510 0.800360 0.140841
H30   H     H_    0.929725 0.210716 0.795413 -0.009835
C14   C     C_3   0.077465 0.162667 0.906870 -0.928294
H31   H     H_    0.207561 0.155366 0.922859 0.294452
H32   H     H_    0.037761 0.221733 0.958400 0.206516
H33   H     H_    0.001011 0.084457 0.915107 0.272064
P8    P     P_3+3 0.536865 0.338940 0.792789 0.531555
C15   C     C_3   0.562410 0.139014 0.787107 0.447907
H34   H     H_    0.659752 0.173261 0.738993 0.015996
O23   O     O_2   0.415508 0.408256 0.836843 -0.366236
O24   O     O_3   0.455905 0.209449 0.818896 -0.513471
H35   H     H_    0.488394 0.071960 0.745922 0.104419
H36   H     H_    0.708554 0.161784 0.917163 0.259105
C16   C     C_3   0.640287 0.095804 0.871931 -1.056593
H37   H     H_    0.727240 0.042114 0.847339 0.248165
H38   H     H_    0.543616 0.051129 0.914517 0.285068
C17   C     C_R   0.988649 0.439051 0.060789 -0.129787
C18   C     C_R   0.183689 0.496925 0.195977 0.283801
C19   C     C_R   0.337138 0.550196 0.226591 -0.481726
C20   C     C_R   0.448837 0.597527 0.162973 0.198097
C21   C     C_R   0.404575 0.599682 0.067947 -0.259322
C22   C     C_R   0.249398 0.549457 0.034662 0.095227
C23   C     C_R   0.139185 0.493799 0.097837 0.034640
H39   H     H_    0.373403 0.550359 0.300236 0.164737
C24   C     C_R   0.055221 0.498234 0.901503 -0.021393
C25   C     C_R   0.945524 0.441712 0.964570 0.087102
C26   C     C_R   0.011366 0.495008 0.803259 0.255323
C27   C     C_R   0.865403 0.431502 0.771659 -0.371351
C28   C     C_R   0.749464 0.387311 0.835467 0.286062
C29   C     C_R   0.790801 0.390462 0.931317 -0.295554
C30   C     C_R   0.205194 0.553598 0.938775 -0.061148
H40   H     H_    0.492026 0.639286 0.020125 0.190202
H41   H     H_    0.701368 0.354251 0.979913 0.145320
H42   H     H_    0.834929 0.424364 0.696938 0.179184
H43   H     H_    0.903243 0.393567 0.105935 0.158030
H44   H     H_    0.290455 0.599322 0.893830 0.155530
C31   C     C_R   0.763151 0.176900 0.539206 -0.508150
C32   C     C_R   0.437905 0.814092 0.456363 -0.465936
C33   C     C_R   0.409960 0.994795 0.427290 -0.226579
C34   C     C_R   0.348587 0.887414 0.418945 0.164842
C35   C     C_R   0.581488 0.847254 0.510661 0.229168
C36   C     C_R   0.644409 0.957708 0.521664 -0.056524
C37   C     C_R   0.557986 0.031804 0.477403 -0.031916
C38   C     C_R   0.619383 0.141520 0.486549 0.262869
C39   C     C_R   0.853282 0.105397 0.578751 0.205319
C40   C     C_R   0.791599 0.996792 0.573327 -0.212666
H45   H     H_    0.336403 0.048500 0.397569 0.176116
H46   H     H_    0.862548 0.944435 0.607337 0.196015
H47   H     H_    0.811059 0.260780 0.544108 0.165376
H48   H     H_    0.387991 0.730582 0.449472 0.165065
N1    N     N_R   0.632593 0.628181 0.782614 0.228337
O25   O     O_R   0.675647 0.613764 0.869139 -0.435340
O26   O     O_R   0.640794 0.554940 0.717022 -0.370306
N2    N     N_R   0.110550 0.817257 0.119339 0.241419
O27   O     O_R   0.067049 0.716785 0.130839 -0.363263
O28   O     O_R   0.083613 0.854552 0.037710 -0.388730

loop_
_geom_bond_atom_site_label_1
_geom_bond_atom_site_label_2
_geom_bond_distance
_ccdc_geom_bond_type
C11   O22   1.403670 S    
O14   Ba2   2.786350 S    
O5    C6    1.398982 S    
C21   C22   1.403821 A    
C5    H10   1.106420 S    
P5    C39   1.845701 S    
C9    H18   1.111556 S    
O4    P6    1.541476 D    
C33   C34   1.386113 A    
C4    C5    1.516674 S    
O7    Ba1   2.879162 S    
C15   H35   1.108098 S    
C36   C37   1.428879 A    
C10   H21   1.108774 S    
C31   C39   1.392394 A    
N1    O25   1.302319 A    
C8    C9    1.527666 S    
P4    O12   1.512144 D    
P5    O19   1.752550 S    
P3    O11   1.756433 S    
C3    H28   1.107240 S    
O14   P8    1.742963 S    
C2    C3    1.531809 S    
C4    H8    1.089694 S    
O11   C2    1.409925 S    
P3    C34   1.838267 S    
C15   O24   1.407670 S    
C16   H38   1.110857 S    
N1    O26   1.294261 A    
C37   C38   1.414264 A    
P1    Ba1   3.390406 S    
C8    N1    1.447990 S    
C29   H41   1.083319 S    
C33   H45   1.076676 S    
P1    O1    1.511780 D    
O10   C8    1.395083 S    
C11   H24   1.110513 S    
C20   C21   1.394056 A    
C15   C16   1.521099 S    
C31   C38   1.393546 A    
C19   H39   1.082243 S    
C35   C36   1.426860 A    
O2    Ba2   2.785898 S    
C7    H14   1.105075 S    
P7    O21   1.569553 D    
O12   Ba2   2.828863 S    
P5    O17   1.748803 S    
C30   H44   1.079681 S    
C1    H2    1.110468 S    
C1    C10   1.518867 S    
O17   Ba2   2.782839 S    
Ba1   O13   2.785328 S    
Ba2   O20   2.816329 S    
O3    P6    1.746309 S    
C5    H11   1.110193 S    
C9    H19   1.110822 S    
C11   H23   1.109431 S    
O6    P6    1.746119 S    
C13   C14   1.523811 S    
C21   H40   1.082448 S    
C24   C26   1.431667 A    
C24   C25   1.423548 A    
C40   H46   1.077398 S    
P4    O13   1.558021 S    
P5    O18   1.545012 D    
P1    O5    1.750409 S    
C28   C29   1.394042 A    
C18   C23   1.431589 A    
C7    H16   1.106936 S    
C4    H7    1.102274 S    
C13   H30   1.107844 S    
P4    C26   1.876062 S    
C19   C20   1.390709 A    
C16   H37   1.109200 S    
C13   H29   1.110039 S    
H36   C16   1.108964 S    
O1    Ba1   2.828354 S    
C1    H22   1.109681 S    
C12   H26   1.109576 S    
Ba1   O20   2.907434 S    
C17   C23   1.408356 A    
C11   C12   1.521789 S    
C14   H31   1.108916 S    
C12   H27   1.110764 S    
H1    C10   1.109997 S    
C1    H3    1.110303 S    
C26   C27   1.398695 A    
P4    O15   1.752820 S    
C17   H43   1.080726 S    
C24   C30   1.408478 A    
O2    Ba1   2.918909 S    
C14   H32   1.110040 S    
C32   C35   1.399840 A    
C36   C40   1.417567 A    
P7    C38   1.846812 S    
P2    O7    1.502153 D    
C22   C30   1.408664 A    
C3    H6    1.110886 S    
P2    Ba1   3.418577 S    
C9    H20   1.105997 S    
P1    C18   1.858043 S    
C8    H17   1.087118 S    
O13   Ba2   2.919671 S    
P2    C35   1.858079 S    
C4    O15   1.403201 S    
N2    O28   1.302517 A    
C7    H15   1.105527 S    
C6    C7    1.517204 S    
Ba1   O16   2.816993 S    
C15   H34   1.112453 S    
P8    O23   1.546447 D    
O8    Ba1   2.782254 S    
C2    N2    1.462797 S    
C27   H42   1.081906 S    
C17   C25   1.408786 A    
Ba1   Ba2   4.564962 S    
C6    H12   1.099156 S    
Ba2   O21   2.879380 S    
C2    H4    1.105877 S    
P3    O8    1.744799 S    
C25   C29   1.404612 A    
C39   C40   1.400584 A    
C12   H25   1.110011 S    
P2    O10   1.763589 S    
P8    O24   1.746544 S    
C31   H47   1.082238 S    
C18   C19   1.393534 A    
N2    O27   1.297617 A    
C27   C28   1.399961 A    
O16   Ba2   2.906652 S    
O16   P7    1.758207 S    
C22   C23   1.422126 A    
C14   H33   1.109579 S    
C32   C34   1.393277 A    
O3    Ba1   2.786947 S    
P2    O20   1.586863 S    
P6    C20   1.826214 S    
O19   C13   1.405276 S    
P4    Ba2   3.390865 S    
P7    O22   1.751237 S    
P3    O9    1.541798 D    
C5    H9    1.105576 S    
P8    C28   1.847945 S    
C33   C37   1.407451 A    
P1    O2    1.558139 S    
C3    H5    1.109300 S    
O6    C10   1.405100 S    
C32   H48   1.082178 S    
C6    H13   1.109475 S    
