data_mof_unit_42620.cif
_audit_creation_date              2012-12-11T17:43:21-0500
_audit_creation_method            fapswitch 2.2
_symmetry_space_group_name_H-M    P1
_symmetry_Int_Tables_number       1
_space_group_crystal_system       triclinic
_cell_length_a                    14.902362
_cell_length_b                    15.190828
_cell_length_c                    16.969659
_cell_angle_alpha                 108.472185
_cell_angle_beta                  105.951304
_cell_angle_gamma                 108.475362
_cell_volume                      3140.88004798

loop_
_atom_site_label
_atom_site_type_symbol
_atom_type_description
_atom_site_fract_x
_atom_site_fract_y
_atom_site_fract_z
_atom_type_partial_charge
C1    C     C_R   0.088509 0.289186 0.076365 -0.115120
C2    C     C_R   0.906819 0.720099 0.953775 -0.105939
C3    C     C_R   0.027184 0.576703 0.743902 0.025951
C4    C     C_R   0.968322 0.530839 0.272587 0.044242
C5    C     C_R   0.760635 0.199107 0.729375 -0.048895
C6    C     C_R   0.310435 0.795269 0.264325 -0.031821
C7    C     C_R   0.294689 0.463649 0.971604 0.099550
C8    C     C_R   0.636055 0.427019 0.935634 0.107783
C9    C     C_R   0.934860 0.946958 0.056573 -0.289087
C10   C     C_R   0.065556 0.073632 0.006270 -0.185509
C11   C     C_R   0.991910 0.912680 0.011779 0.104847
C12   C     C_R   0.007081 0.107254 0.048654 0.104809
C13   C     C_R   0.057236 0.975707 0.985776 0.093252
C14   C     C_R   0.941974 0.045595 0.075775 0.070499
C15   C     C_R   0.774271 0.024269 0.089136 -0.234592
C16   C     C_R   0.216141 0.975005 0.964578 -0.236058
C17   C     C_R   0.765242 0.156485 0.207777 -0.183418
C18   C     C_R   0.209658 0.900382 0.813234 -0.159097
C19   C     C_R   0.482490 0.468710 0.240694 -0.383138
C20   C     C_R   0.522592 0.374759 0.641355 -0.342095
C21   C     C_R   0.481198 0.468659 0.157750 0.672808
C22   C     C_R   0.498877 0.357809 0.711177 0.650863
C23   C     C_R   0.936468 0.522149 0.748528 -0.063882
C24   C     C_R   0.061396 0.545516 0.263933 -0.136759
C25   C     C_R   0.416853 0.377308 0.075745 -0.126147
C26   C     C_R   0.482464 0.432268 0.772744 -0.109957
C27   C     C_R   0.360949 0.285310 0.078564 -0.427361
C28   C     C_R   0.484231 0.519543 0.759454 -0.453942
C29   C     C_R   0.362755 0.284575 0.161444 0.722362
C30   C     C_R   0.502390 0.533375 0.685834 0.730537
C31   C     C_R   0.423062 0.378286 0.242719 -0.369945
C32   C     C_R   0.524543 0.461823 0.629055 -0.308945
C33   C     C_R   0.484008 0.349980 0.961225 -0.274791
C34   C     C_R   0.381051 0.433827 0.867638 -0.302486
C35   C     C_R   0.523352 0.389904 0.907862 0.131930
C36   C     C_R   0.362624 0.423089 0.941642 0.083451
C37   C     C_R   0.463117 0.419082 0.850627 0.117651
C38   C     C_R   0.413295 0.376902 0.987378 0.135999
C39   C     C_R   0.716158 0.060829 0.130882 -0.095353
C40   C     C_R   0.266728 0.955090 0.907788 -0.124994
C41   C     C_R   0.958685 0.573657 0.358657 0.129880
C42   C     C_R   0.034306 0.610989 0.673452 0.150771
C43   C     C_R   0.136816 0.675882 0.598164 -0.259167
C44   C     C_R   0.855592 0.555733 0.445655 -0.225031
C45   C     C_R   0.776865 0.204380 0.814739 -0.164404
C46   C     C_R   0.263864 0.792319 0.181474 -0.161524
C47   C     C_R   0.131415 0.657942 0.672335 -0.179985
C48   C     C_R   0.861155 0.541045 0.362262 -0.191797
C49   C     C_R   0.942945 0.587783 0.601727 -0.285404
C50   C     C_R   0.049387 0.634669 0.440196 -0.285196
C51   C     C_R   0.947347 0.598070 0.524336 0.176220
C52   C     C_R   0.045000 0.640617 0.522043 0.195009
C53   C     C_R   0.686559 0.108066 0.647537 -0.055616
C54   C     C_R   0.392519 0.884242 0.342998 -0.046644
C55   C     C_R   0.447212 0.049757 0.464848 -0.375413
C56   C     C_R   0.636743 0.944364 0.524723 -0.372978
C57   C     C_R   0.376308 0.971797 0.378833 0.622551
C58   C     C_R   0.708254 0.024886 0.610767 0.641800
C59   C     C_R   0.479665 0.875455 0.389367 -0.214285
C60   C     C_R   0.596617 0.112202 0.601256 -0.238607
C61   C     C_R   0.549444 0.952184 0.475668 0.099212
C62   C     C_R   0.530690 0.038007 0.514161 0.091752
C63   C     C_R   0.872835 0.215332 0.243963 -0.256562
C64   C     C_R   0.101533 0.863271 0.775354 -0.259916
C65   C     C_R   0.932394 0.178550 0.203916 0.645303
C66   C     C_R   0.049700 0.882210 0.831908 0.622364
C67   C     C_R   0.264699 0.536354 0.953283 -0.119587
C68   C     C_R   0.697655 0.400072 0.991106 -0.165421
C69   C     C_R   0.882448 0.083178 0.124108 -0.061343
C70   C     C_R   0.107653 0.938940 0.927239 -0.047316
C71   C     C_R   0.786680 0.298885 0.736775 0.595098
C72   C     C_R   0.264933 0.697889 0.258634 0.543788
C73   C     C_R   0.250899 0.438022 0.027380 -0.166859
C74   C     C_R   0.702322 0.496573 0.916693 -0.131457
C75   C     C_R   0.108564 0.600270 0.822426 -0.145678
C76   C     C_R   0.888175 0.462140 0.186643 -0.114632
C77   C     C_R   0.915988 0.204074 0.998790 -0.153041
C78   C     C_R   0.081577 0.804632 0.030897 -0.110922
C79   C     C_R   0.002947 0.198840 0.046950 0.108483
C80   C     C_R   0.992102 0.816107 0.001785 0.056053
H1    H     H_    0.734580 0.950950 0.028357 0.145816
H2    H     H_    0.261665 0.019483 0.037536 0.185157
H3    H     H_    0.423503 0.382760 0.307691 0.157300
H4    H     H_    0.542330 0.473250 0.574290 0.167074
H5    H     H_    0.528211 0.539697 0.303626 0.171832
H6    H     H_    0.538780 0.319693 0.596013 0.183373
H7    H     H_    0.312984 0.214567 0.015546 0.177381
H8    H     H_    0.474129 0.577733 0.807830 0.165135
H9    H     H_    0.125090 0.666646 0.439867 0.127215
H10   H     H_    0.867311 0.552910 0.601352 0.128625
H11   H     H_    0.789492 0.497822 0.300796 0.112744
H12   H     H_    0.203278 0.677652 0.726818 0.114402
H13   H     H_    0.212276 0.708650 0.597067 0.131208
H14   H     H_    0.779987 0.524380 0.446830 0.132568
H15   H     H_    0.859069 0.508677 0.708811 0.151982
H16   H     H_    0.138513 0.591711 0.317064 0.158269
H17   H     H_    0.632738 0.015380 0.102983 0.117671
H18   H     H_    0.350439 0.983511 0.937034 0.121711
H19   H     H_    0.757905 0.140347 0.832073 0.142806
H20   H     H_    0.289861 0.851675 0.159758 0.133789
H21   H     H_    0.284600 0.573298 0.911533 0.089728
H22   H     H_    0.672503 0.336925 0.008696 0.096962
H23   H     H_    0.249322 0.379702 0.049659 0.117308
H24   H     H_    0.681095 0.527411 0.869187 0.109931
H25   H     H_    0.188763 0.655684 0.848706 0.096882
H26   H     H_    0.805481 0.433449 0.167692 0.086862
H27   H     H_    0.887183 0.897903 0.078226 0.139044
H28   H     H_    0.111963 0.121177 0.982618 0.125824
N1    N     N_R   0.055660 0.348550 0.045620 -0.053379
N2    N     N_R   0.944340 0.651450 0.954380 -0.048184
N3    N     N_R   0.960830 0.507850 0.823700 -0.053093
N4    N     N_R   0.039170 0.492150 0.176300 -0.043267
N5    N     N_R   0.811290 0.303410 0.871650 -0.075457
N6    N     N_R   0.188710 0.696590 0.128350 -0.075913
N7    N     N_R   0.205200 0.552990 0.997670 -0.042222
N8    N     N_R   0.794800 0.447010 0.002330 -0.042860
N9    N     N_R   0.814800 0.361830 0.823700 -0.092200
N10   N     N_R   0.185200 0.638170 0.176300 -0.109426
N11   N     N_R   0.201680 0.494570 0.045620 -0.053922
N12   N     N_R   0.798320 0.505430 0.954380 -0.048001
N13   N     N_R   0.068420 0.560530 0.871650 -0.046105
N14   N     N_R   0.931580 0.439470 0.128350 -0.034913
N15   N     N_R   0.948070 0.295860 0.997670 -0.038743
N16   N     N_R   0.051930 0.704140 0.002330 -0.041516
Ni1   Ni    Ni4+2 0.119340 0.493420 0.109960 0.208109
Ni2   Ni    Ni4+2 0.880660 0.506580 0.890040 0.238409
Ni3   Ni    Ni4+2 0.872590 0.372590 0.000000 0.212264
Ni4   Ni    Ni4+2 0.127410 0.627410 0.000000 0.201677
H29   H     H_    0.166550 0.312928 0.124037 0.124841
H30   H     H_    0.826492 0.701956 0.916992 0.116478
O1    O     O_3   0.537310 0.559148 0.155504 -0.620130
C81   C     C_3   0.643511 0.581163 0.189054 -0.260734
H31   H     H_    0.656174 0.514884 0.151048 0.129015
H32   H     H_    0.676429 0.603202 0.263526 0.138713
H33   H     H_    0.686973 0.648013 0.179145 0.178229
O2    O     O_3   0.497589 0.270965 0.721688 -0.629989
C82   C     C_3   0.394395 0.192234 0.674179 -0.316457
H34   H     H_    0.361594 0.175240 0.600764 0.129105
H35   H     H_    0.343679 0.212655 0.706528 0.153954
H36   H     H_    0.394269 0.120325 0.677227 0.185019
O3    O     O_3   0.296881 0.193123 0.157370 -0.644021
C83   C     C_3   0.337460 0.179359 0.235708 -0.259755
H37   H     H_    0.322602 0.224320 0.292236 0.150322
H38   H     H_    0.421802 0.199205 0.257629 0.130387
H39   H     H_    0.295845 0.096438 0.218739 0.201349
O4    O     O_3   0.507600 0.619520 0.671306 -0.611245
C84   C     C_3   0.423238 0.640713 0.676892 -0.255714
H40   H     H_    0.439419 0.685732 0.749222 0.135493
H41   H     H_    0.348157 0.569125 0.642483 0.127146
H42   H     H_    0.414175 0.689526 0.641467 0.179836
H43   H     H_    0.522677 0.317324 0.998863 0.125707
H44   H     H_    0.335218 0.458705 0.826159 0.136088
H45   H     H_    0.581539 0.177339 0.631450 0.211879
H46   H     H_    0.490866 0.807424 0.359330 0.173451
O5    O     O_3   0.797337 0.021945 0.659815 -0.625760
C85   C     C_3   0.869587 0.045794 0.621824 -0.326501
H47   H     H_    0.885848 0.121461 0.619404 0.135965
H48   H     H_    0.842461 0.983212 0.552520 0.148778
H49   H     H_    0.944187 0.052459 0.665946 0.170532
O6    O     O_3   0.291875 0.981040 0.329238 -0.635862
C86   C     C_3   0.215475 0.958450 0.363313 -0.282003
H50   H     H_    0.242993 0.017482 0.434403 0.131636
H51   H     H_    0.191067 0.879573 0.359999 0.141695
H52   H     H_    0.145735 0.960157 0.319967 0.172403
H53   H     H_    0.435944 0.117999 0.493348 0.152057
H54   H     H_    0.650639 0.878006 0.495747 0.156939
H55   H     H_    0.719856 0.185096 0.239366 0.133351
H56   H     H_    0.249256 0.886363 0.769275 0.136323
H57   H     H_    0.910319 0.289544 0.303515 0.149168
H58   H     H_    0.057967 0.820198 0.701987 0.149162
O7    O     O_3   0.038538 0.239010 0.240491 -0.626062
C87   C     C_3   0.088304 0.207918 0.302417 -0.264240
H59   H     H_    0.074765 0.126351 0.267230 0.145190
H60   H     H_    0.062918 0.218193 0.359242 0.127737
H61   H     H_    0.173392 0.257581 0.332957 0.177398
O8    O     O_3   0.942329 0.842389 0.795169 -0.639864
C88   C     C_3   0.912139 0.898647 0.750110 -0.173184
H62   H     H_    0.926810 0.883205 0.687440 0.125990
H63   H     H_    0.951683 0.983274 0.796263 0.134665
H64   H     H_    0.827184 0.872881 0.728524 0.209066
O9    O     O_3   0.762830 0.326071 0.665903 -0.639794
C89   C     C_3   0.804334 0.288418 0.604407 -0.315571
H65   H     H_    0.752728 0.206060 0.555320 0.161556
H66   H     H_    0.884795 0.299400 0.640169 0.131990
H67   H     H_    0.808880 0.332795 0.563611 0.176411
O10   O     O_3   0.306770 0.665557 0.321291 -0.645154
C90   C     C_3   0.311794 0.573034 0.276080 -0.254970
H68   H     H_    0.351755 0.580032 0.230186 0.155174
H69   H     H_    0.233423 0.506387 0.237869 0.153897
H70   H     H_    0.358143 0.556931 0.328279 0.184133
H71   H     H_    0.835783 0.149203 0.973751 0.106293
H72   H     H_    0.160888 0.863992 0.064765 0.105928

loop_
_geom_bond_atom_site_label_1
_geom_bond_atom_site_label_2
_ccdc_geom_bond_type
O7    C87   S    
C63   C65   A    
C3    C42   S    
C73   N11   A    
N3    N13   A    
C34   C37   A    
C47   H12   S    
C71   O9    S    
C10   H28   S    
C84   H40   S    
C24   N4    A    
C49   H10   S    
C19   C31   A    
C86   H50   S    
C7    C73   A    
O9    C89   S    
C6    C72   A    
C82   H35   S    
C72   O10   S    
C21   C25   A    
C65   O7    S    
C5    C53   S    
C85   H47   S    
C84   H41   S    
C68   H22   S    
C1    H29   S    
C24   H16   S    
C7    C36   S    
C40   H18   S    
C4    C24   A    
N12   Ni2   S    
C43   C52   A    
C63   H57   S    
C27   C29   A    
C13   C70   S    
C12   C79   S    
C31   H3    S    
C60   C62   A    
C17   C39   A    
N14   Ni3   S    
C67   N7    A    
C60   H45   S    
C21   O1    S    
C90   H70   S    
C18   C40   A    
C1    N1    A    
C89   H65   S    
C3    C23   A    
C59   H46   S    
C56   C58   A    
C81   H31   S    
C88   H63   S    
C48   H11   S    
C20   H6    S    
C28   H8    S    
C50   C52   A    
N10   Ni1   S    
C3    C75   A    
N9    Ni2   S    
C34   C36   A    
C87   H61   S    
N16   Ni4   S    
N2    N16   A    
C4    C41   S    
C83   H39   S    
C66   O8    S    
C6    C54   S    
C15   C69   A    
C8    C74   A    
C86   H51   S    
C53   C60   A    
C87   H60   S    
C30   O4    S    
C54   C59   A    
C77   C79   A    
C32   H4    S    
C82   H36   S    
C59   C61   A    
C90   H69   S    
C71   N9    A    
C51   C52   A    
C77   H71   S    
C84   H42   S    
C16   C70   A    
N13   Ni4   S    
C15   H1    S    
C45   H19   S    
C44   H14   S    
C18   H56   S    
N1    N15   A    
C39   H17   S    
C49   C51   A    
C5    C45   A    
N8    Ni3   S    
N7    Ni4   S    
N8    N12   A    
C22   O2    S    
C8    C35   S    
C64   C66   A    
C41   C50   A    
C9    C14   A    
N4    N14   A    
C28   C30   A    
C77   N15   A    
C25   C38   S    
N6    Ni4   S    
C50   H9    S    
N15   Ni3   S    
C20   C22   A    
C88   H64   S    
C29   O3    S    
N3    Ni2   S    
C16   H2    S    
C78   H72   S    
C27   H7    S    
C9    C11   A    
C15   C39   A    
N4    Ni1   S    
N6    N10   A    
C10   C12   A    
N2    Ni2   S    
C81   H32   S    
N5    N9    A    
N11   Ni1   S    
C44   C51   A    
N1    Ni1   S    
O8    C88   S    
C57   O6    S    
C68   N8    A    
C75   H25   S    
N7    N11   A    
C55   C57   A    
C33   H43   S    
C1    C79   A    
C14   C69   S    
C83   H38   S    
C9    H27   S    
C55   H53   S    
C56   H54   S    
O1    C81   S    
C16   C40   A    
C2    H30   S    
C86   H52   S    
C78   N16   A    
C87   H59   S    
C67   H21   S    
C74   H24   S    
O4    C84   S    
C20   C32   A    
C58   O5    S    
C46   H20   S    
C2    N2    A    
C76   H26   S    
C6    C46   A    
C35   C37   A    
C75   N13   A    
C85   H49   S    
C46   N6    A    
C12   C14   A    
O2    C82   S    
C19   H5    S    
C10   C13   A    
C53   C58   A    
C26   C37   S    
C8    C68   A    
N5    Ni3   S    
C25   C27   A    
C23   N3    A    
C82   H34   S    
C26   C28   A    
C33   C38   A    
C34   H44   S    
C76   N14   A    
O6    C86   S    
C85   H48   S    
C90   H68   S    
C29   C31   A    
O3    C83   S    
C17   C63   A    
C30   C32   A    
C11   C13   A    
C33   C35   A    
C18   C64   A    
C66   C70   A    
C81   H33   S    
C65   C69   A    
C36   C38   A    
C43   H13   S    
C41   C48   A    
C23   H15   S    
C78   C80   A    
C42   C47   A    
C64   H58   S    
C61   C62   A    
C89   H66   S    
C4    C76   A    
C2    C80   A    
C11   C80   S    
C42   C49   A    
C7    C67   A    
C74   N12   A    
C45   N5    A    
C73   H23   S    
C17   H55   S    
C55   C62   A    
C5    C71   A    
C88   H62   S    
C22   C26   A    
C72   N10   A    
O5    C85   S    
C83   H37   S    
C56   C61   A    
O10   C90   S    
C43   C47   A    
C89   H67   S    
C44   C48   A    
C19   C21   A    
C54   C57   A    
