data_mof_unit_16089.cif
_audit_creation_date              2012-12-11T14:21:20-0500
_audit_creation_method            fapswitch 2.2
_symmetry_space_group_name_H-M    P1
_symmetry_Int_Tables_number       1
_space_group_crystal_system       triclinic
_cell_length_a                    11.736432
_cell_length_b                    11.475678
_cell_length_c                    19.469637
_cell_angle_alpha                 90.475265
_cell_angle_beta                  91.194214
_cell_angle_gamma                 59.735147
_cell_volume                      2264.34139269

loop_
_atom_site_label
_atom_site_type_symbol
_atom_type_description
_atom_site_fract_x
_atom_site_fract_y
_atom_site_fract_z
_atom_type_partial_charge
C1    C     C_R   0.640835 0.117651 0.598968 0.555060
C2    C     C_1   0.654108 0.149363 0.668439 0.003234
C3    C     C_R   0.668381 0.680512 0.190595 -0.014258
C4    C     C_R   0.612859 0.745704 0.598314 0.546488
C5    C     C_R   0.541662 0.750550 0.217381 -0.079900
C6    C     C_R   0.528572 0.720467 0.285223 0.043986
C7    C     C_R   0.762599 0.628581 0.305653 -0.161696
C8    C     C_R   0.779302 0.623263 0.235221 -0.121137
C9    C     C_R   0.432056 0.806458 0.172419 -0.090648
C10   C     C_R   0.336399 0.771235 0.181156 0.229444
C11   C     C_R   0.331436 0.717591 0.244827 -0.149754
C12   C     C_1   0.642677 0.703153 0.667853 0.005785
C13   C     C_R   0.422607 0.698598 0.299031 0.239896
C14   C     C_R   0.637033 0.684548 0.331805 0.022717
C15   C     C_R   0.179791 0.172709 0.182524 0.009666
C16   C     C_R   0.241806 0.145192 0.598235 0.561427
C17   C     C_R   0.259600 0.224611 0.204876 0.022033
C18   C     C_R   0.290236 0.219278 0.275974 -0.017889
C19   C     C_R   0.213704 0.059264 0.291555 -0.158996
C20   C     C_R   0.164697 0.084235 0.224954 -0.167380
C21   C     C_R   0.305593 0.286352 0.158730 0.290207
C22   C     C_R   0.348680 0.371244 0.184250 -0.049066
C23   C     C_1   0.126201 0.197781 0.859459 -0.001491
C24   C     C_R   0.353670 0.388031 0.254422 -0.166145
C25   C     C_R   0.334969 0.306232 0.299634 -0.125210
C26   C     C_R   0.269881 0.131402 0.319742 0.003116
C27   C     C_R   0.733773 0.206301 0.207300 -0.003295
C28   C     C_R   0.642823 0.111894 0.401708 0.531680
C29   C     C_R   0.802957 0.070972 0.233636 0.018328
C30   C     C_R   0.749486 0.041205 0.289215 -0.014966
C31   C     C_R   0.626362 0.280476 0.316718 -0.155068
C32   C     C_R   0.651471 0.310898 0.251347 -0.158693
C33   C     C_R   0.922513 0.963387 0.207614 -0.137237
C34   C     C_1   0.172576 0.169694 0.727727 -0.029787
C35   C     C_R   0.978997 0.833494 0.233693 -0.104860
C36   C     C_R   0.917719 0.803897 0.284203 0.259161
C37   C     C_R   0.791581 0.904311 0.302584 -0.082364
C38   C     C_R   0.667303 0.146753 0.333946 0.002448
C39   C     C_R   0.081241 0.230769 0.928619 0.545790
C40   C     C_R   0.613496 0.739261 0.401843 0.541719
C41   C     C_R   0.683048 0.604572 0.929837 0.536321
C42   C     C_R   0.707701 0.206108 0.930533 0.533124
C43   C     C_R   0.090290 0.230789 0.122881 0.579443
C44   C     C_R   0.684147 0.614249 0.124403 0.517193
C45   C     C_1   0.150294 0.181344 0.799097 -0.027912
C46   C     C_R   0.744550 0.235066 0.134708 0.521537
C47   C     C_R   0.304019 0.114680 0.393867 0.556362
C48   C     C_1   0.667637 0.647868 0.860487 0.005715
C49   C     C_1   0.655137 0.683563 0.728551 -0.031066
C50   C     C_1   0.661583 0.667800 0.799919 -0.029590
C51   C     C_3   0.996597 0.692345 0.386688 -0.040244
C52   C     C_3   0.076920 0.554291 0.420418 -0.353144
C53   C     C_3   0.312231 0.671421 0.388630 -0.017129
C54   C     C_3   0.336705 0.611715 0.460613 -0.348519
C55   C     C_3   0.431749 0.147544 0.074158 -0.013155
C56   C     C_1   0.196664 0.160641 0.667381 0.001155
C57   C     C_3   0.437436 0.118035 0.997638 -0.340359
C58   C     C_1   0.676891 0.191197 0.861112 -0.002628
C59   C     C_1   0.658817 0.167011 0.729004 -0.030663
C60   C     C_1   0.664443 0.180859 0.800441 -0.029644
Cr1   Cr    Cr6+3 0.404720 0.198220 0.499960 0.988281
Cr2   Cr    Cr6+3 0.698290 0.897110 0.500380 0.985590
Cr3   Cr    Cr6+3 0.396970 0.904720 0.499610 1.007235
Cr4   Cr    Cr6+3 0.926180 0.151990 0.028120 1.097460
Cr5   Cr    Cr6+3 0.921330 0.451820 0.027470 1.059047
Cr6   Cr    Cr6+3 0.626260 0.446870 0.028710 1.097070
H1    H     H_    0.846608 0.584735 0.340139 0.169594
H2    H     H_    0.440661 0.841073 0.122165 0.150289
H3    H     H_    0.878601 0.566106 0.215866 0.181734
H4    H     H_    0.265606 0.679567 0.250324 0.124229
H5    H     H_    0.197333 0.991233 0.322432 0.132219
H6    H     H_    0.109394 0.038565 0.207901 0.142010
H7    H     H_    0.900035 0.742981 0.411427 0.190351
H8    H     H_    0.044062 0.753450 0.397802 0.113589
H9    H     H_    0.177211 0.500355 0.399419 0.158491
H10   H     H_    0.084504 0.566153 0.476691 0.102038
H11   H     H_    0.029662 0.492615 0.411315 0.168738
H12   H     H_    0.379851 0.422671 0.149694 0.198502
H13   H     H_    0.147738 0.659906 0.072911 0.376223
H14   H     H_    0.251607 0.638564 0.359512 0.129937
H15   H     H_    0.258192 0.783549 0.393021 0.141729
H16   H     H_    0.403544 0.636266 0.490331 0.198541
H17   H     H_    0.242025 0.654184 0.487996 0.078983
H18   H     H_    0.382478 0.500294 0.457656 0.141896
H19   H     H_    0.515329 0.163742 0.088096 0.157035
H20   H     H_    0.443791 0.057814 0.102406 0.116014
H21   H     H_    0.425069 0.205925 0.967826 0.170550
H22   H     H_    0.534280 0.028551 0.985446 0.102574
H23   H     H_    0.382403 0.457361 0.274169 0.144012
H24   H     H_    0.357888 0.096852 0.982594 0.163993
H25   H     H_    0.354462 0.316510 0.352394 0.171048
H26   H     H_    0.569070 0.360940 0.352363 0.170280
H27   H     H_    0.979722 0.976700 0.170240 0.205902
H28   H     H_    0.607086 0.415228 0.235241 0.145035
H29   H     H_    0.070141 0.755036 0.214777 0.198541
H30   H     H_    0.732986 0.876900 0.332387 0.156904
O1    O     O_R   0.267740 0.231960 0.575440 -0.505072
O2    O     O_R   0.596130 0.579390 0.952730 -0.466728
O3    O     O_R   0.639060 0.321160 0.958670 -0.485398
O4    O     O_R   0.527280 0.186640 0.570530 -0.494646
O5    O     O_R   0.821240 0.124200 0.104370 -0.517152
O6    O     O_R   0.036890 0.167040 0.097840 -0.492441
O7    O     O_R   0.056180 0.349610 0.102880 -0.467932
O8    O     O_R   0.797660 0.564870 0.097950 -0.516737
O9    O     O_R   0.595880 0.584250 0.104270 -0.471746
O10   O     O_R   0.638830 0.325670 0.099150 -0.497872
O11   O     O_3   0.824590 0.350230 0.028100 -0.297691
O12   O     O_R   0.685970 0.784660 0.430010 -0.549659
O13   O     O_R   0.728090 0.003450 0.576380 -0.500794
O14   O     O_R   0.682970 0.789190 0.570490 -0.490567
O15   O     O_R   0.499290 0.771880 0.575530 -0.518100
O16   O     O_R   0.285330 0.030870 0.569730 -0.487236
O17   O     O_R   0.270980 0.227080 0.423890 -0.538204
O18   O     O_R   0.530280 0.182120 0.430050 -0.539485
O19   O     O_R   0.731330 0.998570 0.424830 -0.541561
O20   O     O_3   0.984010 0.677779 0.315026 -0.585065
O21   O     O_2   0.145200 0.896297 0.085110 -0.309649
O22   O     O_2   0.350130 0.704421 0.048083 -0.247963
O23   O     O_R   0.502530 0.767000 0.423990 -0.481590
O24   O     O_3   0.193518 0.655964 0.116893 -0.586157
O25   O     O_3   0.434230 0.621913 0.356312 -0.567445
O26   O     O_3   0.309650 0.263507 0.088765 -0.537543
O27   O     O_R   0.288330 0.026350 0.429250 -0.504552
O28   O     O_3   0.499990 0.000020 0.499980 -0.268314
O29   O     O_R   0.821500 0.119340 0.952830 -0.490112
O30   O     O_R   0.037130 0.162530 0.957360 -0.472593
O31   O     O_R   0.056440 0.344740 0.951340 -0.489417
O32   O     O_R   0.797900 0.560360 0.957470 -0.500741
S1    S     S_3+6 0.254413 0.759021 0.105966 -0.044638

loop_
_geom_bond_atom_site_label_1
_geom_bond_atom_site_label_2
_ccdc_geom_bond_type
C32   H28   S    
C34   C56   T    
C23   C45   T    
C27   C29   A    
C19   H5    S    
C19   C20   A    
C18   C26   A    
C51   H8    S    
Cr6   O11   S    
C52   H9    S    
C24   H23   S    
C42   C58   S    
C54   H18   S    
Cr3   O28   S    
C44   O8    A    
C11   H4    S    
C7    C8    A    
C53   C54   S    
Cr4   O6    S    
C8    H3    S    
O24   S1    S    
Cr1   O28   S    
Cr5   O31   S    
C36   C37   A    
C5    C6    A    
C16   O1    A    
Cr2   O12   S    
C58   C60   T    
C29   C33   A    
C21   O26   S    
C13   O25   S    
C30   C38   A    
C53   H15   S    
C1    C2    S    
Cr3   O16   S    
C49   C50   S    
C19   C26   A    
C42   O29   A    
C1    O13   A    
C7    C14   A    
C35   C36   A    
C4    C12   S    
O21   S1    D    
C9    C10   A    
C40   O12   A    
C48   C50   T    
C55   O26   S    
C59   C60   S    
C39   O30   A    
C21   C22   A    
C41   O32   A    
C15   C20   A    
C18   C25   A    
Cr6   O10   S    
C10   S1    S    
C1    O4    A    
Cr2   O28   S    
C54   H17   S    
C12   C49   T    
Cr4   O5    S    
C46   O5    A    
C3    C44   S    
C25   H25   S    
C39   O31   A    
C57   H24   S    
C51   C52   S    
Cr5   O32   S    
C53   H14   S    
C24   C25   A    
C22   H12   S    
C3    C8    A    
C2    C59   T    
C3    C5    A    
C44   O9    A    
C7    H1    S    
C17   C21   A    
C57   H21   S    
C30   C37   A    
Cr6   O3    S    
C55   H19   S    
C16   C56   S    
C5    C9    A    
C29   C30   A    
C28   O19   A    
C6    C14   A    
Cr3   O23   S    
C47   O27   A    
C31   C32   A    
Cr2   O14   S    
C28   C38   S    
H13   O24   S    
C17   C18   A    
C34   C45   S    
C28   O18   A    
C26   C47   S    
C27   C46   S    
C4    O15   A    
C31   H26   S    
Cr4   O30   S    
C55   C57   S    
Cr1   O17   S    
C22   C24   A    
Cr1   O4    S    
Cr5   O7    S    
Cr6   O9    S    
C52   H11   S    
C36   O20   S    
C54   H16   S    
C16   O16   A    
Cr4   O11   S    
C47   O17   A    
C4    O14   A    
C27   C32   A    
Cr1   O1    S    
C51   H7    S    
C52   H10   S    
C33   H27   S    
Cr3   O27   S    
C57   H22   S    
C15   C17   A    
C35   H29   S    
C51   O20   S    
C31   C38   A    
Cr6   O2    S    
C55   H20   S    
C9    H2    S    
C15   C43   S    
Cr2   O19   S    
O22   S1    D    
C53   O25   S    
C42   O3    A    
C6    C13   A    
C11   C13   A    
Cr2   O13   S    
C23   C39   S    
C46   O10   A    
C33   C35   A    
C41   C48   S    
Cr3   O15   S    
C43   O7    A    
C43   O6    A    
C10   C11   A    
C14   C40   S    
C40   O23   A    
C37   H30   S    
Cr4   O29   S    
Cr1   O18   S    
C41   O2    A    
C20   H6    S    
Cr5   O8    S    
Cr5   O11   S    
