data_mof_unit_51520.cif
_audit_creation_date              2013-03-05T15:42:49-0500
_audit_creation_method            fapswitch 2.2
_symmetry_space_group_name_H-M    P1
_symmetry_Int_Tables_number       1
_space_group_crystal_system       triclinic
_cell_length_a                    6.958103
_cell_length_b                    14.923973
_cell_length_c                    16.196715
_cell_angle_alpha                 90.587747
_cell_angle_beta                  89.423506
_cell_angle_gamma                 89.609824
_cell_volume                      1681.69422928

loop_
_atom_site_label
_atom_site_type_symbol
_atom_site_description
_atom_site_fract_x
_atom_site_fract_y
_atom_site_fract_z
_atom_type_partial_charge
O1    O     O_R   0.494400 0.416610 0.413880 -0.556253
O2    O     O_R   0.823920 0.406790 0.585520 -0.533785
O3    O     O_R   0.994250 0.583390 0.586120 -0.558472
C1    C     C_R   0.655357 0.383976 0.612293 0.874353
O4    O     O_R   0.824110 0.405730 0.414490 -0.525033
O5    O     O_R   0.994440 0.582310 0.413870 -0.577600
C2    C     C_R   0.656507 0.382229 0.387380 0.864927
O6    O     O_R   0.494210 0.417690 0.586130 -0.579118
O7    O     O_3   0.660810 0.557940 0.500000 -0.299779
V1    V     V_3+5 0.935650 0.489250 0.500000 1.171548
O8    O     O_R   0.324160 0.593210 0.414480 -0.574109
C3    C     C_R   0.154169 0.619434 0.390019 0.795260
O9    O     O_R   0.323970 0.594270 0.585510 -0.573720
C4    C     C_R   0.154195 0.611245 0.617683 0.848059
V2    V     V_3+5 0.435660 0.510750 0.500000 1.122435
O10   O     O_3   0.160630 0.442060 0.500000 -0.244181
H1    H     H_    0.046435 0.903188 0.502130 0.059172
C5    C     C_R   0.096228 0.562083 0.798387 0.131046
C6    C     C_R   0.105783 0.540417 0.883398 0.190411
C7    C     C_R   0.169662 0.604424 0.939505 -0.121574
C8    C     C_R   0.209272 0.691284 0.914699 0.114811
C9    C     C_R   0.159067 0.718971 0.834336 -0.017161
C10   C     C_R   0.132069 0.651789 0.772179 -0.042295
C11   C     C_R   0.126019 0.810770 0.815782 -0.125137
C12   C     C_R   0.091976 0.834687 0.732670 -0.014978
C13   C     C_R   0.118104 0.769990 0.668439 0.026403
C14   C     C_R   0.138147 0.677933 0.687267 -0.101679
C15   C     C_R   0.030567 0.921882 0.711685 -0.142165
C16   C     C_R   0.001300 0.945698 0.629069 0.211196
C17   C     C_R   0.054798 0.885021 0.566431 -0.067324
C18   C     C_R   0.112504 0.798549 0.585829 -0.120053
H2    H     H_    0.194560 0.586084 0.003036 0.073120
H3    H     H_    0.998726 0.971263 0.759309 0.103439
H4    H     H_    0.146342 0.753331 0.535219 0.042942
C19   C     C_2   0.977701 0.732253 0.301189 0.146313
C20   C     C_2   0.145269 0.698438 0.332479 -0.007986
C21   C     C_2   0.971174 0.802015 0.233586 0.186368
C22   C     C_2   0.113619 0.812746 0.176088 -0.231989
H5    H     H_    0.238466 0.769177 0.175716 0.049270
C23   C     C_2   0.780202 0.209413 0.779420 -0.114954
C24   C     C_2   0.620201 0.163638 0.803817 0.025243
C25   C     C_2   0.787504 0.260128 0.700157 -0.089413
C26   C     C_2   0.647329 0.320340 0.681759 -0.200573
H6    H     H_    0.526306 0.327964 0.723800 0.047944
C27   C     C_2   0.777425 0.206069 0.213243 -0.149533
C28   C     C_2   0.611176 0.178211 0.179916 -0.206692
H7    H     H_    0.911266 0.180280 0.186819 0.094610
H8    H     H_    0.473706 0.199798 0.205309 0.071162
C29   C     C_2   0.795493 0.264989 0.287907 -0.061413
C30   C     C_2   0.646156 0.314993 0.319052 -0.212493
H9    H     H_    0.506682 0.310586 0.290313 0.065182
O11   O     O_R   0.770210 0.079270 0.910680 -0.531352
O12   O     O_R   0.440150 0.091160 0.082270 -0.571199
O13   O     O_R   0.269970 0.914530 0.082860 -0.571091
C31   C     C_R   0.607707 0.112834 0.110645 0.837647
O14   O     O_R   0.440480 0.090100 0.911240 -0.537264
O15   O     O_R   0.270310 0.913460 0.910610 -0.541148
C32   C     C_R   0.610163 0.109128 0.880978 0.810511
O16   O     O_R   0.769870 0.080340 0.082930 -0.558181
O17   O     O_3   0.603660 0.938980 0.996790 -0.298167
V3    V     V_3+5 0.328750 0.007610 0.996740 1.150360
O18   O     O_R   0.940600 0.902510 0.911180 -0.574411
C33   C     C_R   0.111108 0.879908 0.883359 0.859036
O19   O     O_R   0.940270 0.903570 0.082200 -0.554794
C34   C     C_R   0.107805 0.882343 0.110748 0.845050
V4    V     V_3+5 0.828770 0.986010 0.996670 1.137093
O20   O     O_3   0.103730 0.054750 0.996710 -0.245928
N1    N     N_2   0.317693 0.746782 0.318834 -0.453727
H10   H     H_    0.439266 0.708082 0.322770 0.219842
C35   C     C_3   0.329355 0.830861 0.364168 -0.251270
H11   H     H_    0.458942 0.867769 0.344429 0.113058
H12   H     H_    0.338623 0.818345 0.431318 0.098132
H13   H     H_    0.202740 0.874309 0.352301 0.115629
N2    N     N_2   0.805221 0.858214 0.229996 -0.413908
H14   H     H_    0.764843 0.885078 0.286347 0.185394
C36   C     C_3   0.645994 0.820058 0.185130 -0.145636
H15   H     H_    0.523889 0.868012 0.186680 0.121963
H16   H     H_    0.601078 0.755835 0.212066 0.094396
H17   H     H_    0.685929 0.805683 0.120143 0.121275
C37   C     C_2   0.960872 0.207151 0.826443 0.435263
H18   H     H_    0.016690 0.267999 0.852964 -0.034964
O21   O     O_2   0.054652 0.138072 0.830739 -0.566917
N3    N     N_2   0.459374 0.162596 0.750271 -0.424627
H19   H     H_    0.345081 0.199744 0.772581 0.222007
C38   C     C_3   0.408766 0.075797 0.716749 -0.175860
H20   H     H_    0.301407 0.084524 0.667285 0.129865
H21   H     H_    0.346486 0.032821 0.765500 0.139796
H22   H     H_    0.537156 0.041823 0.689704 0.088651
C39   C     C_2   0.954593 0.241372 0.644352 0.523286
H23   H     H_    0.092017 0.222398 0.669873 -0.021896
O22   O     O_2   0.937736 0.241184 0.569477 -0.511020
C40   C     C_2   0.989803 0.264391 0.324761 0.567012
H24   H     H_    0.115874 0.266430 0.284815 -0.073255
O23   O     O_2   0.011343 0.254421 0.398748 -0.502657
N4    N     N_2   0.040649 0.495364 0.740436 -0.430586
H25   H     H_    0.905174 0.469682 0.749882 0.174214
C41   C     C_3   0.186017 0.428403 0.722132 -0.187923
H26   H     H_    0.163123 0.401059 0.659335 0.162965
H27   H     H_    0.176779 0.372416 0.766205 0.053175
H28   H     H_    0.331664 0.458288 0.724695 0.099468
N5    N     N_2   0.054984 0.454198 0.913493 -0.428565
H29   H     H_    0.960928 0.417943 0.877983 0.185697
C42   C     C_3   0.210692 0.401593 0.947466 -0.238691
H30   H     H_    0.320466 0.386089 0.899053 0.097956
H31   H     H_    0.153494 0.337838 0.972074 0.112564
H32   H     H_    0.279852 0.437626 0.999388 0.105653
N6    N     N_2   0.332072 0.743780 0.965024 -0.408347
H33   H     H_    0.315902 0.732035 0.027328 0.167141
C43   C     C_3   0.531583 0.736993 0.938888 -0.141162
H34   H     H_    0.624054 0.773958 0.982400 0.117105
H35   H     H_    0.550852 0.765834 0.876378 0.116028
H36   H     H_    0.580137 0.665811 0.938025 0.063843
N7    N     N_2   0.920491 0.031101 0.610301 -0.418003
H37   H     H_    0.876652 0.067422 0.661582 0.196250
C44   C     C_3   0.782686 0.033994 0.543764 -0.173178
H38   H     H_    0.708605 0.100132 0.543774 0.153240
H39   H     H_    0.672346 0.981170 0.551782 0.071909
H40   H     H_    0.856547 0.025458 0.483142 0.120207
N8    N     N_2   0.797968 0.710184 0.338359 -0.444566
H41   H     H_    0.754936 0.644743 0.330549 0.205551
C45   C     C_3   0.761845 0.749461 0.419494 -0.167396
H42   H     H_    0.619223 0.728639 0.442999 0.128652
H43   H     H_    0.765908 0.823647 0.416852 0.066830
H44   H     H_    0.869065 0.726679 0.464518 0.118225

loop_
_geom_bond_atom_site_label_1
_geom_bond_atom_site_label_2
_geom_bond_distance
_ccdc_geom_bond_type
O14   V3    2.015940 S    
C21   N2    1.424560 S    
N5    H29   1.028531 S    
H1    C17   1.080911 S    
C31   O16   1.299125 A    
C19   N8    1.424583 S    
C6    C7    1.389953 A    
C36   H17   1.104457 S    
C1    O6    1.302398 A    
C41   H26   1.105455 S    
O13   C34   1.307494 A    
C38   H20   1.108923 S    
C12   C15   1.412758 A    
C13   C14   1.416606 A    
C16   C17   1.398854 A    
N2    C36   1.447801 S    
C15   C16   1.404478 A    
C19   C21   1.519427 S    
C21   C22   1.364538 D    
C36   H16   1.102977 S    
C24   C32   1.499474 S    
C43   H35   1.111427 S    
O16   V4    2.010482 S    
O5    C3    1.302144 A    
C22   H5    1.081465 S    
C44   H38   1.110416 S    
C24   N3    1.422730 S    
C5    C6    1.419683 A    
C45   H44   1.102964 S    
O8    V2    2.019549 S    
N4    H25   1.030595 S    
N1    H10   1.023918 S    
C44   H39   1.111816 S    
C28   C31   1.479785 S    
N6    H33   1.031174 S    
C23   C37   1.476746 S    
C35   H11   1.105989 S    
O1    V2    2.006752 S    
C10   C14   1.433704 A    
C4    C14   1.498711 S    
C3    C20   1.511703 S    
O7    V1    2.163637 S    
C27   H7    1.087331 S    
V4    O20   2.177039 S    
O17   V4    1.720751 S    
C13   C18   1.409247 A    
N5    C42   1.449894 S    
O9    C4    1.308457 A    
C5    N4    1.419646 S    
N6    C43   1.449822 S    
O12   V3    2.018413 S    
C41   H27   1.106299 S    
O15   C33   1.298266 A    
O12   C31   1.299231 A    
C28   H8    1.083079 S    
N2    H14   1.028831 S    
O18   V4    2.001339 S    
C38   H21   1.109012 S    
C5    C10   1.431354 A    
C36   H15   1.107064 S    
C37   O21   1.219301 D    
C43   H36   1.112467 S    
O4    C2    1.299434 A    
C12   C13   1.421548 A    
C27   C28   1.347907 D    
O17   V3    2.163660 S    
C19   C20   1.371165 D    
O19   V4    2.019479 S    
O2    C1    1.295312 A    
C26   H6    1.082262 S    
O18   C33   1.305783 A    
V3    O20   1.712136 S    
N3    H19   1.026869 S    
C22   C34   1.491067 S    
C27   C29   1.494731 S    
N8    H41   1.030374 S    
C44   H40   1.109416 S    
C35   H13   1.109843 S    
C40   O23   1.219679 D    
C30   H9    1.082661 S    
C18   H4    1.079519 S    
C42   H31   1.110086 S    
C11   C12   1.418006 A    
O3    C4    1.298507 A    
C45   H42   1.106943 S    
C8    N6    1.420673 S    
N8    C45   1.452322 S    
O11   C32   1.295601 A    
C23   C24   1.367226 D    
N3    C38   1.446533 S    
C15   H3    1.081606 S    
O6    V2    2.020984 S    
O9    V2    2.001373 S    
C9    C11   1.423256 A    
C39   O22   1.219546 D    
C25   C26   1.359038 D    
C29   C40   1.483421 S    
O2    V1    2.015886 S    
C41   H28   1.110987 S    
O11   V4    2.021482 S    
N7    H37   1.029639 S    
C7    H2    1.082814 S    
C38   H22   1.108344 S    
C16   N7    1.426421 S    
N4    C41   1.443521 S    
O1    C2    1.302934 A    
C2    C30   1.488839 S    
C37   H18   1.077103 S    
O5    V1    2.019471 S    
O8    C3    1.309766 A    
C20   N1    1.420739 S    
O15   V3    2.016111 S    
O13   V3    2.019554 S    
C11   C33   1.498831 S    
C25   C39   1.488703 S    
O19   C34   1.296882 A    
O7    V2    1.722005 S    
O4    V1    2.018304 S    
O3    V1    2.016135 S    
V1    O10   1.712178 S    
C43   H34   1.104983 S    
C6    N5    1.426120 S    
C17   C18   1.388931 A    
C23   C25   1.497565 S    
C40   H24   1.085530 S    
C1    C26   1.480656 S    
O14   C32   1.307916 A    
C42   H32   1.109224 S    
C45   H43   1.108965 S    
C7    C8    1.389638 A    
N1    C35   1.450486 S    
C29   C30   1.364650 D    
C42   H30   1.110694 S    
C9    C10   1.428193 A    
C35   H12   1.107858 S    
C39   H23   1.082613 S    
C8    C9    1.416036 A    
V2    O10   2.177110 S    
N7    C44   1.450474 S    
