data_mof_unit_60581.cif
_audit_creation_date              2012-12-10T17:52:59-0500
_audit_creation_method            fapswitch 2.2
_symmetry_space_group_name_H-M    P1
_symmetry_Int_Tables_number       1
_space_group_crystal_system       orthorhombic
_cell_length_a                    19.610516
_cell_length_b                    19.610515
_cell_length_c                    43.092603
_cell_angle_alpha                 90.0
_cell_angle_beta                  90.0
_cell_angle_gamma                 90.0
_cell_volume                      16572.2222319

loop_
_atom_site_label
_atom_site_type_symbol
_atom_type_description
_atom_site_fract_x
_atom_site_fract_y
_atom_site_fract_z
_atom_type_partial_charge
C1    C     C_R   1.000000 0.500000 0.531436 0.337105
C2    C     C_R   0.500000 0.000000 0.334456 0.489653
C3    C     C_R   0.548295 0.038061 0.581776 -0.115757
C4    C     C_R   0.961938 0.451705 0.418224 -0.115757
C5    C     C_R   0.961938 0.548295 0.581776 -0.115757
C6    C     C_R   0.548295 0.961938 0.418224 -0.115756
C7    C     C_R   0.451705 0.961939 0.581776 -0.115756
C8    C     C_R   0.500000 0.000000 0.934464 0.008661
C9    C     C_R   0.500000 1.000000 0.065536 0.008661
C10   C     C_R   0.000000 0.500000 0.934464 0.008661
C11   C     C_R   0.000000 0.500000 0.065536 0.008661
C12   C     C_R   1.000000 0.500000 0.434464 0.008661
C13   C     C_R   1.000000 0.500000 0.665544 0.489653
C14   C     C_R   1.000000 0.500000 0.565536 0.008661
C15   C     C_R   0.500000 0.000000 0.434464 0.008661
C16   C     C_R   0.500000 0.000000 0.565536 0.008661
C17   C     C_3   0.587017 0.099883 0.870162 -0.243513
C18   C     C_3   0.649048 0.065248 0.855161 -0.288592
C19   C     C_3   0.696049 0.117610 0.840023 -0.443830
C20   C     C_3   0.587017 0.900117 0.129837 -0.243513
C21   C     C_3   0.649048 0.934752 0.144839 -0.288592
C22   C     C_3   0.696050 0.882390 0.159977 -0.443830
C23   C     C_3   0.900117 0.587017 0.870162 -0.243513
C24   C     C_R   0.000000 0.500000 0.334456 0.489653
C25   C     C_3   0.934751 0.649048 0.855161 -0.288591
C26   C     C_3   0.882390 0.696049 0.840023 -0.443829
C27   C     C_3   0.099883 0.587017 0.129837 -0.243513
C28   C     C_3   0.065248 0.649048 0.144839 -0.288592
C29   C     C_3   0.117610 0.696050 0.159977 -0.443829
C30   C     C_3   0.412983 0.900117 0.870162 -0.243513
C31   C     C_3   0.350952 0.934752 0.855161 -0.288592
C32   C     C_3   0.303950 0.882390 0.840023 -0.443830
C33   C     C_3   0.412983 0.099883 0.129837 -0.243513
C34   C     C_3   0.350952 0.065248 0.144839 -0.288592
C35   C     C_R   1.000000 0.500000 0.165544 0.489653
C36   C     C_3   0.303950 0.117610 0.159977 -0.443830
C37   C     C_3   0.099883 0.412983 0.870162 -0.243514
C38   C     C_3   0.065248 0.350952 0.855161 -0.288592
C39   C     C_3   0.117610 0.303951 0.840023 -0.443829
C40   C     C_3   0.900117 0.412983 0.129837 -0.243513
C41   C     C_3   0.934752 0.350952 0.144839 -0.288592
C42   C     C_3   0.882390 0.303950 0.159977 -0.443830
C43   C     C_3   0.087017 0.599883 0.370162 -0.243513
C44   C     C_3   0.149048 0.565248 0.355161 -0.288592
C45   C     C_3   0.196049 0.617610 0.340023 -0.443829
C46   C     C_R   0.000000 0.500000 0.834456 0.489653
C47   C     C_3   0.087017 0.400117 0.629838 -0.243513
C48   C     C_3   0.149048 0.434752 0.644839 -0.288591
C49   C     C_3   0.196050 0.382390 0.659977 -0.443829
C50   C     C_3   0.400117 0.087017 0.370162 -0.243513
C51   C     C_3   0.434752 0.149048 0.355161 -0.288591
C52   C     C_3   0.382390 0.196050 0.340023 -0.443830
C53   C     C_3   0.599884 0.087016 0.629837 -0.243513
C54   C     C_3   0.565249 0.149047 0.644838 -0.288591
C55   C     C_3   0.617612 0.196049 0.659977 -0.443829
C56   C     C_3   0.912983 0.400117 0.370162 -0.243513
C57   C     C_R   0.500000 0.000000 0.165544 0.489653
C58   C     C_3   0.850952 0.434752 0.355161 -0.288592
C59   C     C_3   0.803951 0.382390 0.340023 -0.443829
C60   C     C_3   0.912983 0.599883 0.629838 -0.243513
C61   C     C_3   0.850952 0.565248 0.644839 -0.288591
C62   C     C_3   0.803950 0.617610 0.659977 -0.443829
C63   C     C_3   0.599883 0.912983 0.370162 -0.243513
C64   C     C_3   0.565248 0.850952 0.355161 -0.288591
C65   C     C_3   0.617610 0.803950 0.340023 -0.443830
C66   C     C_3   0.400116 0.912984 0.629837 -0.243513
C67   C     C_3   0.434750 0.850952 0.644838 -0.288591
C68   C     C_R   0.500000 0.000000 0.834456 0.489653
C69   C     C_3   0.382388 0.803951 0.659977 -0.443829
C70   C     C_R   0.370691 0.129309 0.750000 0.504630
C71   C     C_R   0.629300 0.870700 0.250000 0.496630
C72   C     C_R   0.870691 0.370691 0.750000 0.504630
C73   C     C_R   1.000000 0.500000 0.468564 0.337105
C74   C     C_R   0.129300 0.629300 0.250000 0.496630
C75   C     C_R   0.629309 0.870691 0.750000 0.504630
C76   C     C_R   0.370700 0.129300 0.250000 0.496630
C77   C     C_R   0.129309 0.629309 0.750000 0.504630
C78   C     C_R   0.870700 0.370700 0.250000 0.496630
C79   C     C_R   0.370691 0.870691 0.250000 0.504630
C80   C     C_R   0.629300 0.129300 0.750000 0.496630
C81   C     C_R   0.870691 0.629309 0.250000 0.504630
C82   C     C_R   0.129300 0.370700 0.750000 0.496630
C83   C     C_R   0.629309 0.129309 0.250000 0.504630
C84   C     C_R   0.500000 0.000000 0.531436 0.337104
C85   C     C_R   0.370700 0.870700 0.750000 0.496630
C86   C     C_R   0.129309 0.370691 0.250000 0.504630
C87   C     C_R   0.870700 0.629300 0.750000 0.496630
C88   C     C_1   0.681048 0.181048 0.750000 -0.011710
C89   C     C_1   0.318927 0.818927 0.250000 0.005339
C90   C     C_1   0.818952 0.681048 0.750000 -0.011710
C91   C     C_1   0.181073 0.318927 0.250000 0.005338
C92   C     C_1   0.318951 0.818952 0.750000 -0.011710
C93   C     C_1   0.681073 0.181073 0.250000 0.005338
C94   C     C_1   0.181048 0.318951 0.750000 -0.011710
C95   C     C_R   0.500000 0.000000 0.468564 0.337105
C96   C     C_1   0.818927 0.681073 0.250000 0.005338
C97   C     C_1   0.681048 0.818952 0.250000 -0.011710
C98   C     C_1   0.318927 0.181073 0.750000 0.005338
C99   C     C_1   0.818952 0.318951 0.250000 -0.011710
C100  C     C_1   0.181073 0.681073 0.750000 0.005338
C101  C     C_1   0.318951 0.181048 0.250000 -0.011710
C102  C     C_1   0.681073 0.818927 0.750000 0.005338
C103  C     C_1   0.181048 0.681048 0.250000 -0.011710
C104  C     C_1   0.818927 0.318927 0.750000 0.005339
C105  C     C_1   0.724522 0.224522 0.750000 -0.046541
C106  C     C_R   0.500000 0.000000 0.031436 0.337105
C107  C     C_1   0.275446 0.775446 0.250000 -0.040261
C108  C     C_1   0.775478 0.724522 0.750000 -0.046541
C109  C     C_1   0.224554 0.275446 0.250000 -0.040261
C110  C     C_1   0.275477 0.775478 0.750000 -0.046541
C111  C     C_1   0.724554 0.224554 0.250000 -0.040261
C112  C     C_1   0.224522 0.275477 0.750000 -0.046541
C113  C     C_1   0.775446 0.724554 0.250000 -0.040261
C114  C     C_1   0.724522 0.775478 0.250000 -0.046541
C115  C     C_1   0.275446 0.224554 0.750000 -0.040261
C116  C     C_1   0.775478 0.275477 0.250000 -0.046541
C117  C     C_R   0.500000 1.000000 0.968564 0.337105
C118  C     C_1   0.224554 0.724554 0.750000 -0.040261
C119  C     C_1   0.275477 0.224522 0.250000 -0.046541
C120  C     C_1   0.724554 0.775446 0.750000 -0.040261
C121  C     C_1   0.224522 0.724522 0.250000 -0.046541
C122  C     C_1   0.775446 0.275446 0.750000 -0.040261
C123  C     C_R   0.500000 0.000000 0.868900 0.056262
C124  C     C_R   0.500000 0.000000 0.131100 0.056262
C125  C     C_R   0.000000 0.500000 0.868900 0.056262
C126  C     C_R   0.000000 0.500000 0.131100 0.056262
C127  C     C_R   1.000000 0.500000 0.368899 0.056262
C128  C     C_R   0.000000 0.500000 0.031436 0.337105
C129  C     C_R   1.000000 0.500000 0.631100 0.056262
C130  C     C_R   0.500000 0.000000 0.368899 0.056262
C131  C     C_R   0.500000 0.000000 0.631100 0.056262
C132  C     C_R   0.540041 0.048410 0.885684 -0.019462
C133  C     C_R   0.540041 0.951590 0.114316 -0.019462
C134  C     C_R   0.951590 0.540041 0.885684 -0.019462
C135  C     C_R   0.048410 0.540041 0.114316 -0.019463
C136  C     C_R   0.459959 0.951590 0.885684 -0.019462
C137  C     C_R   0.459959 0.048410 0.114316 -0.019462
C138  C     C_R   0.048410 0.459959 0.885684 -0.019462
C139  C     C_R   0.000000 0.500000 0.968564 0.337105
C140  C     C_R   0.951590 0.459959 0.114316 -0.019462
C141  C     C_R   0.040041 0.548410 0.385684 -0.019462
C142  C     C_R   0.040041 0.451590 0.614316 -0.019462
C143  C     C_R   0.451590 0.040041 0.385684 -0.019462
C144  C     C_R   0.548410 0.040041 0.614316 -0.019462
C145  C     C_R   0.959959 0.451590 0.385684 -0.019462
C146  C     C_R   0.959959 0.548410 0.614316 -0.019462
C147  C     C_R   0.548410 0.959959 0.385684 -0.019462
C148  C     C_R   0.451590 0.959959 0.614316 -0.019462
C149  C     C_R   0.538062 0.048295 0.918224 -0.115757
C150  C     C_R   0.500000 1.000000 0.665544 0.489653
C151  C     C_R   0.538062 0.951705 0.081776 -0.115757
C152  C     C_R   0.951705 0.538062 0.918224 -0.115756
C153  C     C_R   0.048295 0.538062 0.081776 -0.115757
C154  C     C_R   0.461938 0.951705 0.918224 -0.115757
C155  C     C_R   0.461938 0.048295 0.081776 -0.115757
C156  C     C_R   0.048295 0.461938 0.918224 -0.115756
C157  C     C_R   0.951705 0.461938 0.081776 -0.115757
C158  C     C_R   0.038062 0.548295 0.418224 -0.115757
C159  C     C_R   0.038062 0.451705 0.581776 -0.115757
C160  C     C_R   0.451705 0.038062 0.418224 -0.115756
H1    H     H_    0.568184 0.084892 0.931169 0.128082
H2    H     H_    0.068184 0.415108 0.568831 0.128082
H3    H     H_    0.637119 0.106380 0.612464 0.130249
H4    H     H_    0.831817 0.353549 0.321828 0.173621
H5    H     H_    0.784214 0.346162 0.357685 0.153202
H6    H     H_    0.760055 0.408842 0.329068 0.143856
H7    H     H_    0.821871 0.462998 0.373198 0.162315
H8    H     H_    0.867213 0.471770 0.337160 0.169954
H9    H     H_    0.941404 0.368856 0.353085 0.184117
H10   H     H_    0.893619 0.362882 0.387536 0.130249
H11   H     H_    0.831817 0.646450 0.678172 0.173621
H12   H     H_    0.784213 0.653837 0.642315 0.153202
H13   H     H_    0.415108 0.068184 0.431169 0.128082
H14   H     H_    0.760054 0.591157 0.670932 0.143856
H15   H     H_    0.821870 0.537001 0.626801 0.162315
H16   H     H_    0.867213 0.528229 0.662840 0.169954
H17   H     H_    0.941403 0.631144 0.646915 0.184117
H18   H     H_    0.893619 0.637118 0.612464 0.130249
H19   H     H_    0.646450 0.831816 0.321828 0.173621
H20   H     H_    0.653837 0.784213 0.357685 0.153203
H21   H     H_    0.591157 0.760054 0.329068 0.143856
H22   H     H_    0.537001 0.821870 0.373198 0.162315
H23   H     H_    0.528229 0.867213 0.337160 0.169954
H24   H     H_    0.584892 0.068183 0.568831 0.128082
H25   H     H_    0.631144 0.941403 0.353085 0.184117
H26   H     H_    0.637118 0.893619 0.387536 0.130249
H27   H     H_    0.353548 0.831818 0.678172 0.173621
H28   H     H_    0.346160 0.784215 0.642314 0.153202
H29   H     H_    0.408841 0.760055 0.670931 0.143856
H30   H     H_    0.462997 0.821871 0.626801 0.162315
H31   H     H_    0.471769 0.867213 0.662840 0.169954
H32   H     H_    0.368856 0.941404 0.646915 0.184117
H33   H     H_    0.362881 0.893620 0.612464 0.130249
H34   H     H_    0.931816 0.415108 0.431169 0.128082
H35   H     H_    0.931816 0.584892 0.568831 0.128082
H36   H     H_    0.584892 0.931815 0.431169 0.128082
H37   H     H_    0.415108 0.931816 0.568831 0.128082
H38   H     H_    0.668183 0.146451 0.821828 0.173621
H39   H     H_    0.715786 0.153838 0.857685 0.153203
H40   H     H_    0.739945 0.091157 0.829068 0.143856
H41   H     H_    0.568184 0.915108 0.068831 0.128082
H42   H     H_    0.678129 0.037002 0.873198 0.162315
H43   H     H_    0.632787 0.028230 0.837160 0.169954
H44   H     H_    0.558596 0.131144 0.853085 0.184117
H45   H     H_    0.606381 0.137118 0.887536 0.130250
H46   H     H_    0.668183 0.853549 0.178172 0.173621
H47   H     H_    0.715786 0.846162 0.142314 0.153203
H48   H     H_    0.739945 0.908842 0.170931 0.143856
H49   H     H_    0.678129 0.962998 0.126801 0.162315
H50   H     H_    0.632787 0.971770 0.162840 0.169954
H51   H     H_    0.558596 0.868856 0.146915 0.184117
H52   H     H_    0.915108 0.568184 0.931169 0.128082
H53   H     H_    0.606381 0.862882 0.112463 0.130250
H54   H     H_    0.853549 0.668183 0.821828 0.173621
H55   H     H_    0.846162 0.715786 0.857685 0.153202
H56   H     H_    0.908842 0.739945 0.829068 0.143856
H57   H     H_    0.962998 0.678129 0.873198 0.162315
H58   H     H_    0.971770 0.632787 0.837160 0.169954
H59   H     H_    0.868856 0.558596 0.853085 0.184117
H60   H     H_    0.862882 0.606381 0.887536 0.130250
H61   H     H_    0.146451 0.668183 0.178172 0.173621
H62   H     H_    0.153838 0.715786 0.142314 0.153203
H63   H     H_    0.084892 0.568184 0.068831 0.128082
H64   H     H_    0.091157 0.739945 0.170931 0.143856
H65   H     H_    0.037001 0.678129 0.126801 0.162315
H66   H     H_    0.028229 0.632787 0.162840 0.169954
H67   H     H_    0.131144 0.558596 0.146915 0.184117
H68   H     H_    0.137118 0.606381 0.112463 0.130249
H69   H     H_    0.331817 0.853549 0.821828 0.173621
H70   H     H_    0.284214 0.846162 0.857685 0.153203
H71   H     H_    0.260055 0.908843 0.829068 0.143856
H72   H     H_    0.321871 0.962998 0.873198 0.162315
H73   H     H_    0.367213 0.971770 0.837160 0.169954
H74   H     H_    0.431816 0.915108 0.931169 0.128082
H75   H     H_    0.441404 0.868856 0.853085 0.184117
H76   H     H_    0.393619 0.862882 0.887536 0.130249
H77   H     H_    0.331817 0.146451 0.178172 0.173621
H78   H     H_    0.284214 0.153838 0.142314 0.153203
H79   H     H_    0.260055 0.091157 0.170931 0.143856
H80   H     H_    0.321871 0.037002 0.126801 0.162315
H81   H     H_    0.367213 0.028230 0.162840 0.169954
H82   H     H_    0.441404 0.131144 0.146915 0.184117
H83   H     H_    0.393619 0.137118 0.112463 0.130250
H84   H     H_    0.146451 0.331817 0.821828 0.173621
H85   H     H_    0.431816 0.084892 0.068831 0.128082
H86   H     H_    0.153838 0.284214 0.857685 0.153202
H87   H     H_    0.091158 0.260055 0.829068 0.143856
H88   H     H_    0.037002 0.321871 0.873198 0.162315
H89   H     H_    0.028230 0.367213 0.837160 0.169954
H90   H     H_    0.131144 0.441404 0.853085 0.184117
H91   H     H_    0.137118 0.393619 0.887536 0.130250
H92   H     H_    0.853549 0.331817 0.178172 0.173621
H93   H     H_    0.846162 0.284214 0.142314 0.153203
H94   H     H_    0.908843 0.260055 0.170931 0.143856
H95   H     H_    0.962998 0.321871 0.126801 0.162315
H96   H     H_    0.084892 0.431816 0.931169 0.128082
H97   H     H_    0.971770 0.367213 0.162840 0.169954
H98   H     H_    0.868856 0.441403 0.146915 0.184117
H99   H     H_    0.862882 0.393619 0.112463 0.130249
H100  H     H_    0.168183 0.646451 0.321828 0.173621
H101  H     H_    0.215786 0.653838 0.357685 0.153202
H102  H     H_    0.239945 0.591158 0.329068 0.143856
H103  H     H_    0.178129 0.537002 0.373198 0.162315
H104  H     H_    0.132787 0.528230 0.337160 0.169954
H105  H     H_    0.058596 0.631144 0.353085 0.184117
H106  H     H_    0.106381 0.637118 0.387536 0.130249
H107  H     H_    0.915108 0.431816 0.068831 0.128082
H108  H     H_    0.168183 0.353550 0.678172 0.173621
H109  H     H_    0.215786 0.346162 0.642315 0.153202
H110  H     H_    0.239945 0.408843 0.670932 0.143856
H111  H     H_    0.178129 0.462998 0.626801 0.162315
H112  H     H_    0.132787 0.471771 0.662840 0.169954
H113  H     H_    0.058597 0.368856 0.646915 0.184117
H114  H     H_    0.106381 0.362882 0.612464 0.130249
H115  H     H_    0.353550 0.168183 0.321828 0.173621
H116  H     H_    0.346163 0.215787 0.357685 0.153203
H117  H     H_    0.408843 0.239945 0.329068 0.143856
H118  H     H_    0.068184 0.584892 0.431169 0.128082
H119  H     H_    0.462999 0.178129 0.373198 0.162315
H120  H     H_    0.471771 0.132787 0.337160 0.169954
H121  H     H_    0.368856 0.058597 0.353085 0.184117
H122  H     H_    0.362882 0.106381 0.387536 0.130249
H123  H     H_    0.646452 0.168182 0.678172 0.173621
H124  H     H_    0.653840 0.215785 0.642314 0.153202
H125  H     H_    0.591159 0.239945 0.670931 0.143856
H126  H     H_    0.537003 0.178129 0.626801 0.162315
H127  H     H_    0.528231 0.132787 0.662840 0.169954
H128  H     H_    0.631144 0.058595 0.646915 0.184117
N1    N     N_R   0.499771 0.940374 0.984555 -0.228526
N2    N     N_R   0.999771 0.559626 0.515444 -0.228526
N3    N     N_R   0.559626 0.999771 0.484555 -0.228526
N4    N     N_R   0.440374 0.999772 0.515444 -0.228525
N5    N     N_R   0.000229 0.559626 0.484555 -0.228526
N6    N     N_R   0.000229 0.440374 0.515444 -0.228526
N7    N     N_R   0.440374 0.000229 0.484555 -0.228526
N8    N     N_R   0.559626 0.000228 0.515444 -0.228525
N9    N     N_R   0.499771 0.059626 0.015444 -0.228526
N10   N     N_R   0.059626 0.499771 0.984555 -0.228526
N11   N     N_R   0.940374 0.499771 0.015444 -0.228526
N12   N     N_R   0.500229 0.059626 0.984555 -0.228526
N13   N     N_R   0.500229 0.940374 0.015444 -0.228526
N14   N     N_R   0.940374 0.500229 0.984555 -0.228526
N15   N     N_R   0.059626 0.500229 0.015444 -0.228526
N16   N     N_R   0.999771 0.440374 0.484555 -0.228526
O1    O     O_3   0.500000 0.000000 0.750000 -0.423301
O2    O     O_R   0.555780 0.000000 0.319360 -0.551361
O3    O     O_R   1.000000 0.444220 0.680640 -0.551361
O4    O     O_R   0.000000 0.555780 0.319360 -0.551361
O5    O     O_R   0.055780 0.500000 0.180640 -0.551361
O6    O     O_R   0.944220 0.500000 0.819360 -0.551361
O7    O     O_R   0.500000 0.055780 0.180640 -0.551361
O8    O     O_R   0.500000 0.944220 0.819360 -0.551361
O9    O     O_R   0.944220 0.500000 0.180640 -0.551361
O10   O     O_R   0.055780 0.500000 0.819360 -0.551361
O11   O     O_R   0.500000 0.944220 0.180640 -0.551361
O12   O     O_3   0.500000 0.000000 0.250000 -0.423301
O13   O     O_R   0.500000 0.055780 0.819360 -0.551361
O14   O     O_R   0.365890 0.078400 0.731800 -0.535108
O15   O     O_R   0.634110 0.921600 0.268200 -0.540634
O16   O     O_R   0.921600 0.365890 0.731800 -0.535108
O17   O     O_R   0.078400 0.634110 0.268200 -0.540634
O18   O     O_R   0.634110 0.921600 0.731800 -0.535108
O19   O     O_R   0.365890 0.078400 0.268200 -0.540633
O20   O     O_R   0.078400 0.634110 0.731800 -0.535109
O21   O     O_R   0.921600 0.365890 0.268200 -0.540634
O22   O     O_R   0.365890 0.921600 0.268200 -0.535108
O23   O     O_3   0.000000 0.500000 0.750000 -0.423301
O24   O     O_R   0.634110 0.078400 0.731800 -0.540634
O25   O     O_R   0.921600 0.634110 0.268200 -0.535109
O26   O     O_R   0.078400 0.365890 0.731800 -0.540634
O27   O     O_R   0.634110 0.078400 0.268200 -0.535108
O28   O     O_R   0.365890 0.921600 0.731800 -0.540634
O29   O     O_R   0.078400 0.365890 0.268200 -0.535108
O30   O     O_R   0.921600 0.634110 0.731800 -0.540634
O31   O     O_R   0.865890 0.578400 0.231800 -0.535108
O32   O     O_R   0.134110 0.421600 0.768200 -0.540634
O33   O     O_R   0.421600 0.865890 0.231800 -0.535108
O34   O     O_3   1.000000 0.500000 0.250000 -0.423301
O35   O     O_R   0.578400 0.134110 0.768200 -0.540633
O36   O     O_R   0.134110 0.421600 0.231800 -0.535108
O37   O     O_R   0.865890 0.578400 0.768200 -0.540634
O38   O     O_R   0.578400 0.134110 0.231800 -0.535109
O39   O     O_R   0.421600 0.865890 0.768200 -0.540634
O40   O     O_R   0.865890 0.421600 0.768200 -0.535108
O41   O     O_R   0.134110 0.578400 0.231800 -0.540634
O42   O     O_R   0.421600 0.134110 0.768200 -0.535109
O43   O     O_R   0.578400 0.865890 0.231800 -0.540634
O44   O     O_R   0.134110 0.578400 0.768200 -0.535108
O45   O     O_R   0.555780 0.000000 0.680640 -0.551361
O46   O     O_R   0.865890 0.421600 0.231800 -0.540634
O47   O     O_R   0.578400 0.865890 0.768200 -0.535108
O48   O     O_R   0.421600 0.134110 0.231800 -0.540634
O49   O     O_R   0.444220 0.000000 0.319360 -0.551361
O50   O     O_R   0.000000 0.555780 0.680640 -0.551361
O51   O     O_R   0.000000 0.444220 0.319360 -0.551361
O52   O     O_R   0.444220 0.000000 0.680640 -0.551361
Zn1   Zn    Zn3+2 0.500000 0.079610 0.775930 0.927327
Zn2   Zn    Zn3+2 1.000000 0.420390 0.724070 0.927327
Zn3   Zn    Zn3+2 0.420390 1.000000 0.275930 0.927328
Zn4   Zn    Zn3+2 0.579610 1.000000 0.724070 0.927327
Zn5   Zn    Zn3+2 0.000000 0.420390 0.275930 0.927327
Zn6   Zn    Zn3+2 1.000000 0.579610 0.724070 0.927327
Zn7   Zn    Zn3+2 0.579610 1.000000 0.275930 0.927328
Zn8   Zn    Zn3+2 0.420390 1.000000 0.724070 0.927327
Zn9   Zn    Zn3+2 0.500000 0.920390 0.224070 0.927327
Zn10  Zn    Zn3+2 0.920390 0.500000 0.775930 0.927327
Zn11  Zn    Zn3+2 0.079610 0.500000 0.224070 0.927327
Zn12  Zn    Zn3+2 0.500000 0.920390 0.775930 0.927327
Zn13  Zn    Zn3+2 0.500000 0.079610 0.224070 0.927327
Zn14  Zn    Zn3+2 0.079610 0.500000 0.775930 0.927327
Zn15  Zn    Zn3+2 0.920390 0.500000 0.224070 0.927328
Zn16  Zn    Zn3+2 0.000000 0.579610 0.275930 0.927327

loop_
_geom_bond_atom_site_label_1
_geom_bond_atom_site_label_2
_ccdc_geom_bond_type
C82   C94   S    
C78   O21   A    
C56   H9    S    
N2    N5    A    
C108  C120  S    
C61   H15   S    
C110  C118  S    
C6    H36   S    
C74   O17   A    
O42   Zn1   S    
C4    H34   S    
C19   H40   S    
C1    N6    A    
O38   Zn13  S    
C106  N13   A    
O47   Zn12  S    
C38   H89   S    
C42   H94   S    
C83   C93   S    
C75   O18   A    
C16   C84   S    
C68   C123  S    
C77   C100  S    
C83   O27   A    
C139  N14   A    
C59   H4    S    
C32   H69   S    
C64   H23   S    
C48   H111  S    
C33   C137  S    
C133  C151  A    
C24   C127  S    
C18   H43   S    
C30   H75   S    
C4    C12   A    
C34   H80   S    
C3    H24   S    
C66   C148  S    
C35   O9    A    
O28   Zn8   S    
C12   C73   S    
C55   H123  S    
C25   H58   S    
C60   C146  S    
C151  H41   S    
C52   H115  S    
O4    Zn16  S    
C29   H62   S    
O51   Zn5   S    
C32   H70   S    
C67   H30   S    
O36   Zn11  S    
C50   H121  S    
C51   C52   S    
C124  C137  A    
C43   H106  S    
C99   C116  T    
C40   H98   S    
C53   H3    S    
C129  C142  A    
O7    Zn13  S    
C54   H127  S    
C37   H91   S    
C26   H55   S    
C7    H37   S    
C29   H61   S    
C43   C44   S    
C77   O44   A    
C37   C38   S    
C24   O51   A    
C63   H26   S    
C154  H74   S    
C73   N16   A    
C51   H119  S    
C79   O22   A    
C127  C145  A    
C124  C133  A    
O32   Zn14  S    
C30   C136  S    
O17   Zn16  S    
C150  O52   A    
O15   Zn7   S    
C103  C121  T    
C11   C157  A    
C36   H77   S    
C9    C151  A    
C19   H38   S    
C156  H96   S    
C1    N2    A    
C65   H20   S    
C125  C138  A    
O41   Zn11  S    
C26   H54   S    
O43   Zn9   S    
O29   Zn5   S    
C15   C160  A    
C80   C88   S    
C27   H67   S    
C70   O42   A    
C40   C140  S    
C8    C149  A    
C85   O39   A    
C87   O37   A    
C20   C21   S    
C78   C99   S    
O8    Zn12  S    
C52   H117  S    
C29   H64   S    
C123  C132  A    
C17   H44   S    
C160  H13   S    
C46   O6    A    
C44   H103  S    
O11   Zn9   S    
C143  C160  A    
C53   C54   S    
C71   C97   S    
C38   C39   S    
C104  C122  T    
C21   H50   S    
C22   H46   S    
C127  C141  A    
O34   Zn5   S    
C56   C145  S    
C71   O15   A    
C72   O16   A    
C21   H49   S    
C66   H32   S    
C22   H47   S    
C95   N3    A    
C58   H8    S    
C69   H27   S    
C59   H5    S    
C64   H22   S    
C36   H79   S    
C66   C67   S    
C34   H81   S    
O12   Zn13  S    
O20   Zn6   S    
O45   Zn4   S    
C63   C147  S    
C85   C92   S    
C8    C117  S    
C155  H85   S    
C57   O7    A    
C71   O43   A    
C70   O14   A    
C139  N10   A    
C128  N15   A    
O39   Zn12  S    
C25   C26   S    
C58   H7    S    
C35   O5    A    
C39   H86   S    
C45   H101  S    
C31   C32   S    
C84   N4    A    
C38   H88   S    
C17   C18   S    
C75   O47   A    
C41   H97   S    
O49   Zn3   S    
C74   O41   A    
O23   Zn2   S    
C37   C138  S    
C33   H83   S    
C45   H100  S    
C49   H108  S    
C13   O50   A    
C54   C55   S    
C81   O25   A    
C23   C134  S    
C56   H10   S    
C130  C147  A    
C28   H65   S    
C87   O30   A    
C41   H95   S    
C19   H39   S    
O50   Zn6   S    
C14   C159  A    
C53   C144  S    
C27   C135  S    
O34   Zn11  S    
C17   H45   S    
C90   C108  T    
C88   C105  T    
C92   C110  T    
C98   C115  T    
C4    C145  A    
C94   C112  T    
C72   O40   A    
C56   C58   S    
C105  C122  S    
C34   C36   S    
N10   N15   A    
C61   C62   S    
N11   N14   A    
C79   C89   S    
C11   C153  A    
C63   C64   S    
C9    C155  A    
O23   Zn6   S    
C79   O33   A    
C13   C129  S    
C1    C14   S    
C85   O28   A    
C12   C158  A    
C97   C114  T    
C21   C22   S    
O44   Zn14  S    
C3    C16   A    
C125  C134  A    
O27   Zn7   S    
O31   Zn15  S    
N1    N13   A    
C41   C42   S    
C46   C125  S    
C25   H57   S    
C142  C159  A    
O1    Zn4   S    
C47   H114  S    
C52   H116  S    
O16   Zn2   S    
C62   H11   S    
C31   H73   S    
O25   Zn16  S    
C50   H122  S    
C86   O29   A    
C28   C29   S    
O34   Zn15  S    
C43   H105  S    
C86   C91   S    
C15   C95   S    
C30   C31   S    
C158  H118  S    
C60   H18   S    
C37   H90   S    
C55   H125  S    
O6    Zn10  S    
C26   H56   S    
C18   C19   S    
C82   O26   A    
C10   C152  A    
C63   H25   S    
C111  C116  S    
O12   Zn3   S    
N6    N16   A    
C117  N1    A    
C49   H110  S    
C152  H52   S    
C42   H92   S    
C76   O48   A    
C17   C132  S    
C132  C149  A    
C61   H16   S    
C78   O46   A    
O1    Zn8   S    
C23   H59   S    
C36   H78   S    
C80   O24   A    
O37   Zn10  S    
C81   C96   S    
O21   Zn5   S    
O22   Zn3   S    
C65   H19   S    
C42   H93   S    
C58   C59   S    
C60   C61   S    
C95   N7    A    
C136  C154  A    
C47   C142  S    
C134  C152  A    
C31   H72   S    
C89   C107  T    
C50   C51   S    
C159  H2    S    
C18   H42   S    
C5    C14   A    
O12   Zn7   S    
C93   C111  T    
C39   H87   S    
C48   C49   S    
C126  C135  A    
C55   H124  S    
C96   C113  T    
C57   O11   A    
C149  H1    S    
C10   C139  S    
C107  C121  S    
C66   H33   S    
C102  C120  T    
C44   C45   S    
C109  C119  S    
C128  N11   A    
C113  C114  S    
C23   H60   S    
C2    O2    A    
C13   O3    A    
C3    C144  A    
C44   H104  S    
O46   Zn15  S    
C84   N8    A    
C76   O19   A    
C54   H126  S    
C72   C104  S    
O30   Zn6   S    
C64   C65   S    
C82   O32   A    
N3    N8    A    
C60   H17   S    
C57   C124  S    
C80   O35   A    
C2    C130  S    
C86   O36   A    
C51   H120  S    
C106  N9    A    
C141  C158  A    
O14   Zn8   S    
C87   C90   S    
C68   O8    A    
C131  C150  S    
C131  C144  A    
C6    C147  A    
O19   Zn3   S    
O9    Zn15  S    
C65   H21   S    
O3    Zn2   S    
C117  N12   A    
C126  C140  A    
C68   O13   A    
C153  H63   S    
O1    Zn1   S    
C67   H31   S    
C27   H68   S    
C62   H14   S    
O23   Zn10  S    
C73   N5    A    
C20   H51   S    
O12   Zn9   S    
C6    C15   A    
C137  C155  A    
C75   C102  S    
C20   C133  S    
C8    C154  A    
C10   C156  A    
C5    H35   S    
O40   Zn10  S    
O5    Zn11  S    
C32   H71   S    
C33   H82   S    
C40   H99   S    
C157  H107  S    
O52   Zn8   S    
C22   H48   S    
C101  C119  T    
O18   Zn4   S    
C83   O38   A    
C28   H66   S    
C53   H128  S    
O24   Zn4   S    
C9    C106  S    
O23   Zn14  S    
C67   C69   S    
C24   O4    A    
C35   C126  S    
O13   Zn1   S    
C140  C157  A    
C47   C48   S    
C81   O31   A    
C33   C34   S    
C129  C146  A    
C131  C148  A    
C130  C143  A    
C69   H28   S    
C48   H112  S    
C59   H6    S    
O1    Zn12  S    
C40   C41   S    
O33   Zn9   S    
N9    N12   A    
O48   Zn13  S    
C50   C143  S    
C39   H84   S    
C138  C156  A    
C76   C101  S    
C7    C16   A    
C5    C146  A    
N4    N7    A    
C2    O49   A    
C7    C148  A    
C47   H113  S    
C62   H12   S    
C135  C153  A    
O26   Zn2   S    
C123  C136  A    
C30   H76   S    
C20   H53   S    
C91   C109  T    
C11   C128  S    
O34   Zn16  S    
C46   O10   A    
C45   H102  S    
O2    Zn7   S    
O35   Zn1   S    
C77   O20   A    
C23   C25   S    
C150  O45   A    
C43   C141  S    
C69   H29   S    
C100  C118  T    
C27   C28   S    
O10   Zn14  S    
C112  C115  S    
C70   C98   S    
C74   C103  S    
C49   H109  S    
