data_mof_unit_65419.cif
_audit_creation_date              2012-10-26T21:13:09-0400
_audit_creation_method            fapswitch 2.2
_symmetry_space_group_name_H-M    P1
_symmetry_Int_Tables_number       1
_space_group_crystal_system       triclinic
_cell_length_a                    13.519611
_cell_length_b                    15.846451
_cell_length_c                    17.06
_cell_angle_alpha                 83.496499
_cell_angle_beta                  90.380599
_cell_angle_gamma                 109.766701
_cell_volume                      3415.44842454

loop_
_atom_site_label
_atom_site_type_symbol
_atom_type_description
_atom_site_fract_x
_atom_site_fract_y
_atom_site_fract_z
_atom_type_partial_charge
C1    C     C_R   0.500429 0.510773 0.348413 0.612004
C2    C     C_R   0.817472 0.575201 0.486084 0.034215
C3    C     C_R   0.502604 0.518372 0.261732 -0.012136
C4    C     C_R   0.702837 0.547827 0.498545 0.614165
C5    C     C_R   0.555442 0.471776 0.223047 0.308513
C6    C     C_R   0.561281 0.479914 0.140376 0.274454
C7    C     C_R   0.511836 0.534210 0.096202 0.184364
C8    C     C_R   0.460641 0.583376 0.134674 0.215997
C9    C     C_R   0.455174 0.574485 0.217974 0.222949
C10   C     C_R   0.571673 0.551455 0.856757 0.432532
C11   C     C_R   0.576305 0.555640 0.774682 0.202682
C12   C     C_R   0.967090 0.524041 0.474171 -0.015721
C13   C     C_R   0.499520 0.476199 0.902534 0.132118
C14   C     C_R   0.505725 0.484650 0.737367 -0.103978
C15   C     C_R   0.436808 0.408599 0.783387 0.379455
C16   C     C_R   0.501306 0.489781 0.651309 0.586776
C17   C     C_R   0.434674 0.404316 0.865314 0.403198
C18   C     C_R   0.552977 0.262279 0.462112 0.487281
C19   C     C_R   0.550357 0.172449 0.464487 0.354710
C20   C     C_R   0.478717 0.103544 0.516928 0.103121
C21   C     C_R   0.412726 0.129109 0.565431 0.376447
C22   C     C_R   0.418059 0.219774 0.561102 0.510198
C23   C     C_R   0.870460 0.514404 0.511966 -0.047189
C24   C     C_R   0.453162 0.827453 0.539752 0.362128
C25   C     C_R   0.451229 0.737937 0.541473 0.508838
C26   C     C_R   0.519562 0.895891 0.484256 0.149955
C27   C     C_R   0.577277 0.779441 0.435472 0.339466
C28   C     C_R   0.297007 0.452224 0.503039 0.601813
C29   C     C_R   0.581564 0.870606 0.432118 0.326803
C30   C     C_R   0.017343 0.320333 0.570562 0.442774
C31   C     C_R   0.181662 0.425202 0.510956 -0.017734
C32   C     C_R   0.868476 0.652275 0.432623 0.200704
C33   C     C_R   0.956841 0.654676 0.387466 0.239633
C34   C     C_R   0.022929 0.466307 0.503700 -0.028819
C35   C     C_R   0.001812 0.586772 0.405254 0.300883
C36   C     C_R   0.969444 0.385715 0.552826 -0.097392
C37   C     C_R   0.872718 0.375325 0.588199 0.003820
C38   C     C_R   0.828799 0.442975 0.573711 0.400064
C39   C     C_R   0.132788 0.490435 0.491943 0.235146
C40   C     C_R   0.121555 0.338505 0.546585 0.411382
Cu1   Cu    Cu3+1 0.505120 0.585970 0.496130 1.216320
Cu2   Cu    Cu3+1 0.494880 0.414030 0.503870 1.265470
F1    F     F_    0.166150 0.274374 0.565974 -0.463711
F2    F     F_    0.617972 0.154376 0.416003 -0.481576
F3    F     F_    0.645841 0.934966 0.377988 -0.531080
F4    F     F_    0.622722 0.327080 0.411885 -0.486407
F5    F     F_    0.964460 0.240013 0.613382 -0.507267
F6    F     F_    0.747821 0.439202 0.622271 -0.616294
F7    F     F_    0.641274 0.619296 0.891552 -0.487582
F8    F     F_    0.368873 0.339634 0.748867 -0.456287
F9    F     F_    0.366694 0.330798 0.908877 -0.478219
F10   F     F_    0.604814 0.421107 0.265840 -0.540705
F11   F     F_    0.386297 0.673465 0.594838 -0.525115
F12   F     F_    0.390315 0.845811 0.592169 -0.491448
F13   F     F_    0.343023 0.065951 0.617172 -0.454728
F14   F     F_    0.353987 0.242376 0.609064 -0.424481
H1    H     H_    0.834836 0.318207 0.631817 0.220137
H2    H     H_    0.668228 0.612850 0.682242 0.343194
H3    H     H_    0.423121 0.639694 0.035630 0.381930
H4    H     H_    0.372477 0.654860 0.221153 0.403644
H5    H     H_    0.647045 0.402293 0.139248 0.407081
H6    H     H_    0.678422 0.806427 0.347389 0.383748
H7    H     H_    0.163769 0.618957 0.494456 0.356629
H8    H     H_    0.883605 0.778219 0.404960 0.361591
H9    H     H_    0.087741 0.621267 0.306683 0.398915
H10   H     H_    0.940610 0.740481 0.301571 0.364152
N1    N     N_2   0.516484 0.542816 0.012707 -0.125485
N2    N     N_2   0.492651 0.468730 0.986028 -0.073044
N3    N     N_R   0.487180 0.284900 0.509690 -0.332487
N4    N     N_2   0.469904 0.009642 0.523972 -0.047386
N5    N     N_2   0.527749 0.989604 0.477695 -0.038053
N6    N     N_R   0.512820 0.715120 0.490310 -0.279463
O1    O     O_R   0.504790 0.580580 0.382450 -0.429883
O2    O     O_3   0.402331 0.618192 0.258533 -0.614584
O3    O     O_3   0.617161 0.438019 0.100823 -0.574991
O4    O     O_3   0.636542 0.753375 0.383970 -0.573381
O5    O     O_3   0.194983 0.579326 0.470245 -0.577255
O6    O     O_3   0.826151 0.720507 0.421223 -0.628429
O7    O     O_3   0.074060 0.575730 0.353694 -0.595746
O8    O     O_3   0.997126 0.719098 0.323454 -0.658647
O9    O     O_3   0.652224 0.629001 0.733864 -0.545974
O10   O     O_R   0.496140 0.435390 0.388990 -0.440489
O11   O     O_R   0.657420 0.608020 0.495150 -0.447945
O12   O     O_R   0.648770 0.462830 0.501690 -0.436404
O13   O     O_R   0.503860 0.564610 0.611010 -0.478397
O14   O     O_R   0.495210 0.419420 0.617550 -0.404021
O15   O     O_R   0.351230 0.537170 0.498310 -0.419235
O16   O     O_R   0.342580 0.391980 0.504850 -0.439464
O17   O     O_3   0.413685 0.639158 0.093132 -0.632770

loop_
_geom_bond_atom_site_label_1
_geom_bond_atom_site_label_2
_ccdc_geom_bond_type
H9    O7    S    
C27   C29   A    
Cu1   Cu2   S    
C19   C20   A    
Cu2   O10   S    
C20   N4    S    
C17   F9    S    
Cu1   O1    S    
C7    C8    A    
C11   O9    S    
C12   C23   A    
C39   O5    S    
C36   C37   A    
C24   C26   A    
C5    C6    A    
C11   C14   A    
C24   F12   S    
Cu1   O11   S    
C31   C40   A    
C2    C32   A    
C18   C19   A    
H3    O17   S    
C15   F8    S    
C35   O7    S    
C40   F1    S    
C8    C9    A    
C28   O16   A    
C5    F10   S    
N4    N5    D    
Cu2   O14   S    
C22   N3    A    
C38   F6    S    
C18   N3    A    
C21   C22   A    
C16   O14   A    
C26   N5    S    
H6    O4    S    
C18   F4    S    
Cu1   O15   S    
C34   C39   A    
C30   F5    S    
C6    O3    S    
Cu2   O12   S    
C24   C25   A    
H2    O9    S    
C21   F13   S    
C22   F14   S    
C1    O10   A    
C7    N1    S    
Cu2   N3    S    
H5    O3    S    
N1    N2    D    
C29   F3    S    
C1    C3    S    
C2    C4    S    
C37   C38   A    
C3    C9    A    
C4    O12   A    
C28   O15   A    
C30   C40   A    
C25   N6    A    
C12   C35   A    
Cu1   N6    S    
C16   O13   A    
C14   C16   S    
Cu2   O16   S    
C9    O2    S    
C12   C34   A    
C27   O4    S    
H10   O8    S    
C19   F2    S    
H7    O5    S    
C15   C17   A    
H8    O6    S    
C28   C31   S    
C25   F11   S    
C3    C5    A    
C10   C13   A    
C33   O8    S    
C6    C7    A    
C13   C17   A    
C23   C38   A    
Cu1   O13   S    
C30   C36   A    
C1    O1    A    
C32   C33   A    
C4    O11   A    
H4    O2    S    
C33   C35   A    
C31   C39   A    
C34   C36   A    
C10   C11   A    
C32   O6    S    
C20   C21   A    
C26   C29   A    
C2    C23   A    
C14   C15   A    
C8    O17   S    
C10   F7    S    
C37   H1    S    
C27   N6    A    
C13   N2    S    
