data_mof_unit_28551.cif
_audit_creation_date              2012-12-10T17:50:43-0500
_audit_creation_method            fapswitch 2.2
_symmetry_space_group_name_H-M    P1
_symmetry_Int_Tables_number       1
_space_group_crystal_system       triclinic
_cell_length_a                    14.699966
_cell_length_b                    14.807922
_cell_length_c                    15.844361
_cell_angle_alpha                 76.756014
_cell_angle_beta                  102.475069
_cell_angle_gamma                 114.472844
_cell_volume                      3026.90327415

loop_
_atom_site_label
_atom_site_type_symbol
_atom_type_description
_atom_site_fract_x
_atom_site_fract_y
_atom_site_fract_z
_atom_type_partial_charge
C1    C     C_R   0.880532 0.312947 0.513011 0.794698
C2    C     C_R   0.119468 0.687053 0.486989 0.794697
C3    C     C_R   0.766137 0.061835 0.640655 -0.206204
C4    C     C_R   0.233860 0.938167 0.359348 -0.206205
C5    C     C_R   0.839671 0.146520 0.602652 -0.215590
C6    C     C_R   0.160327 0.853480 0.397350 -0.215590
C7    C     C_R   0.713061 0.172884 0.482154 -0.076523
C8    C     C_R   0.286939 0.827117 0.517845 -0.076527
C9    C     C_R   0.639201 0.080137 0.516814 0.040030
C10   C     C_R   0.360797 0.919865 0.483186 0.040030
C11   C     C_R   0.665591 0.033240 0.601880 0.154355
C12   C     C_R   0.334406 0.966762 0.398121 0.154357
C13   C     C_R   0.537882 0.036444 0.474897 0.057007
C14   C     C_R   0.462115 0.963559 0.525103 0.057007
C15   C     C_R   0.490023 0.939012 0.615533 -0.215563
C16   C     C_R   0.509974 0.060992 0.384468 -0.215568
C17   C     C_R   0.590448 0.964877 0.650991 -0.229076
C18   C     C_R   0.409548 0.035127 0.349011 -0.229078
C19   C     C_R   0.709466 0.658003 0.347006 -0.327439
C20   C     C_R   0.290534 0.341997 0.652994 -0.327440
C21   C     C_R   0.793164 0.632023 0.372747 0.088439
C22   C     C_R   0.206836 0.367977 0.627253 0.088438
C23   C     C_R   0.999642 0.500208 0.660003 0.825594
C24   C     C_R   0.000358 0.499792 0.339997 0.825595
C25   C     C_R   0.716998 0.512877 0.490985 0.024774
C26   C     C_R   0.283001 0.487121 0.509014 0.024778
C27   C     C_R   0.628807 0.535162 0.467776 -0.033763
C28   C     C_R   0.371192 0.464836 0.532223 -0.033763
C29   C     C_R   0.627130 0.609950 0.394152 0.163491
C30   C     C_R   0.372869 0.390049 0.605847 0.163491
C31   C     C_R   0.542872 0.486110 0.514057 0.071159
C32   C     C_R   0.457127 0.513888 0.485942 0.071158
C33   C     C_R   0.460357 0.589849 0.412754 -0.241729
C34   C     C_R   0.539642 0.410149 0.587245 -0.241728
C35   C     C_R   0.543504 0.636403 0.367886 -0.202013
C36   C     C_R   0.456495 0.363595 0.632113 -0.202012
C37   C     C_3   0.014817 0.418530 0.047875 -0.157241
C38   C     C_3   0.985183 0.581470 0.952125 -0.157241
C39   C     C_3   0.925270 0.416544 0.974841 -0.160342
C40   C     C_3   0.074730 0.583456 0.025159 -0.160341
C41   C     C_1   0.999004 0.500639 0.749586 -0.189722
C42   C     C_1   0.000996 0.499361 0.250414 -0.189722
C43   C     C_3   0.088966 0.502412 0.988615 -0.162711
C44   C     C_3   0.911033 0.497587 0.011385 -0.162710
C45   C     C_3   0.999425 0.500424 0.917129 0.197167
C46   C     C_3   0.000575 0.499576 0.082871 0.197167
C47   C     C_1   0.999008 0.500709 0.825218 -0.090022
C48   C     C_1   0.000992 0.499290 0.174781 -0.090023
C49   C     C_R   0.812375 0.206939 0.528542 -0.081236
C50   C     C_R   0.187624 0.793060 0.471458 -0.081235
Cu1   Cu    Cu3+1 0.081740 0.475690 0.522610 0.946682
Cu2   Cu    Cu3+1 0.918260 0.524310 0.477390 0.946683
H1    H     H_    0.863884 0.348073 0.952788 0.125031
H2    H     H_    0.136116 0.651926 0.047212 0.125031
H3    H     H_    0.274704 0.542614 0.454153 0.123707
H4    H     H_    0.725295 0.457385 0.545846 0.123707
H5    H     H_    0.143267 0.331210 0.663671 0.119170
H6    H     H_    0.856734 0.668791 0.336330 0.119169
H7    H     H_    0.709015 0.715195 0.290453 0.132903
H8    H     H_    0.290985 0.284805 0.709547 0.132903
H9    H     H_    0.399506 0.615430 0.388044 0.132709
H10   H     H_    0.600493 0.384568 0.611954 0.132709
H11   H     H_    0.026969 0.351654 0.088551 0.126490
H12   H     H_    0.973031 0.648346 0.911449 0.126490
H13   H     H_    0.838019 0.495552 0.022200 0.122097
H14   H     H_    0.161980 0.504448 0.977800 0.122098
H15   H     H_    0.609096 0.936760 0.719159 0.141028
H16   H     H_    0.390900 0.063245 0.280843 0.141029
H17   H     H_    0.084483 0.828338 0.362209 0.150074
H18   H     H_    0.915514 0.171663 0.637794 0.150073
H19   H     H_    0.786828 0.022836 0.703759 0.133097
H20   H     H_    0.213168 0.977167 0.296244 0.133097
H21   H     H_    0.435350 0.899251 0.660334 0.161454
H22   H     H_    0.564645 0.100751 0.339666 0.161457
H23   H     H_    0.542266 0.693988 0.311808 0.138194
H24   H     H_    0.457734 0.306010 0.688191 0.138194
N1    N     N_R   0.795440 0.560790 0.443380 -0.173701
N2    N     N_R   0.204560 0.439210 0.556620 -0.173701
O1    O     O_R   0.977900 0.338120 0.529810 -0.591918
O2    O     O_R   0.022100 0.661880 0.470190 -0.591918
O3    O     O_R   0.839850 0.379180 0.491620 -0.568919
O4    O     O_R   0.160150 0.620820 0.508380 -0.568919
O5    O     O_R   0.069010 0.479460 0.640020 -0.576199
O6    O     O_R   0.930990 0.520540 0.359980 -0.576197
O7    O     O_R   0.930960 0.520530 0.601820 -0.582016
O8    O     O_R   0.069040 0.479470 0.398180 -0.582017
C51   C     C_R   0.314531 0.756763 0.592475 0.114401
C52   C     C_R   0.385599 0.718389 0.586644 -0.100446
C53   C     C_R   0.408768 0.649911 0.655544 -0.130533
C54   C     C_R   0.359874 0.617627 0.729807 -0.108024
C55   C     C_R   0.288330 0.654446 0.735745 -0.115628
C56   C     C_R   0.265648 0.723802 0.667476 -0.155815
H25   H     H_    0.422640 0.741368 0.528738 0.124027
H26   H     H_    0.463940 0.621088 0.650988 0.135226
H27   H     H_    0.377220 0.563821 0.782649 0.117425
H28   H     H_    0.250174 0.628987 0.793142 0.122418
H29   H     H_    0.209709 0.751426 0.672612 0.109529
C57   C     C_R   0.685473 0.243237 0.407522 0.114395
C58   C     C_R   0.734358 0.276192 0.332522 -0.155824
C59   C     C_R   0.711679 0.345548 0.264250 -0.115630
C60   C     C_R   0.640137 0.382372 0.270182 -0.108025
C61   C     C_R   0.591242 0.350094 0.344444 -0.130529
C62   C     C_R   0.614407 0.281617 0.413347 -0.100441
H30   H     H_    0.790295 0.248565 0.327390 0.109533
H31   H     H_    0.749837 0.371003 0.206853 0.122420
H32   H     H_    0.622795 0.436177 0.217337 0.117424
H33   H     H_    0.536071 0.378920 0.348995 0.135224
H34   H     H_    0.577364 0.258640 0.471252 0.124027

loop_
_geom_bond_atom_site_label_1
_geom_bond_atom_site_label_2
_ccdc_geom_bond_type
C6    H17   S    
C51   C52   A    
C60   C61   A    
C7    C57   S    
C8    C50   A    
C27   C29   A    
C24   C42   S    
C25   H4    S    
C33   H9    S    
C26   H3    S    
C22   H5    S    
C54   H27   S    
C20   C30   A    
C40   C46   S    
C35   H23   S    
C59   H31   S    
C26   N2    A    
C23   O5    A    
C16   H22   S    
Cu2   O7    S    
C19   C21   A    
C1    O3    A    
C57   C62   A    
C34   H10   S    
C15   C17   A    
C53   H26   S    
Cu2   O6    S    
C9    C13   A    
C38   C45   S    
C2    C50   S    
C55   H28   S    
C40   C43   S    
C31   C32   A    
C1    C49   S    
C62   H34   S    
C4    C12   A    
C36   H24   S    
C39   C45   S    
C58   H30   S    
C13   C14   A    
C5    C49   A    
C44   H13   S    
Cu2   O3    S    
Cu1   O8    S    
C37   H11   S    
C44   C46   S    
C56   H29   S    
C38   H12   S    
C45   C47   S    
C46   C48   S    
C17   H15   S    
C27   C31   A    
Cu1   Cu2   S    
C28   C32   A    
C3    C11   A    
C22   N2    A    
C4    C6    A    
C10   C14   A    
C53   C54   A    
C55   C56   A    
C19   H7    S    
C37   C43   S    
C3    H19   S    
C38   C44   S    
C5    H18   S    
C9    C11   A    
C58   C59   A    
C41   C47   T    
C31   C34   A    
C61   H33   S    
C42   C48   T    
C6    C50   A    
C43   C45   S    
Cu1   O4    S    
C7    C49   A    
C10   C12   A    
C8    C10   A    
C15   H21   S    
C20   C22   A    
C40   H2    S    
C1    O1    A    
C25   N1    A    
C2    O4    A    
C20   H8    S    
C21   N1    A    
Cu2   N1    S    
C19   C29   A    
Cu1   O5    S    
C4    H20   S    
C60   H32   S    
C7    C9    A    
C52   H25   S    
C11   C17   A    
C3    C5    A    
C39   C44   S    
C25   C27   A    
C29   C35   A    
C26   C28   A    
C23   C41   S    
C30   C36   A    
C8    C51   S    
C32   C33   A    
C28   C30   A    
C24   O6    A    
Cu1   N2    S    
C21   H6    S    
C37   C39   S    
Cu2   O2    S    
C38   C40   S    
C54   C55   A    
C39   H1    S    
C24   O8    A    
C43   H14   S    
C59   C60   A    
C33   C35   A    
C34   C36   A    
C61   C62   A    
Cu1   O1    S    
C2    O2    A    
C52   C53   A    
C16   C18   A    
C57   C58   A    
C23   O7    A    
C13   C16   A    
C12   C18   A    
C14   C15   A    
C37   C46   S    
C51   C56   A    
C18   H16   S    
