data_mof_unit_56604.cif
_audit_creation_date              2012-12-11T15:17:58-0500
_audit_creation_method            fapswitch 2.2
_symmetry_space_group_name_H-M    P1
_symmetry_Int_Tables_number       1
_space_group_crystal_system       triclinic
_cell_length_a                    15.681587
_cell_length_b                    15.681582
_cell_length_c                    34.470496
_cell_angle_alpha                 89.899174
_cell_angle_beta                  89.899145
_cell_angle_gamma                 119.482314
_cell_volume                      7378.99750346

loop_
_atom_site_label
_atom_site_type_symbol
_atom_type_description
_atom_site_fract_x
_atom_site_fract_y
_atom_site_fract_z
_atom_type_partial_charge
C1    C     C_R   0.578176 0.441523 0.554790 0.555963
C2    C     C_R   0.558803 0.137169 0.555162 0.557230
C3    C     C_R   0.863391 0.421607 0.554779 0.568402
C4    C     C_R   0.441523 0.578176 0.054790 0.555963
C5    C     C_R   0.137169 0.558803 0.055162 0.557231
C6    C     C_R   0.421608 0.863391 0.054779 0.568402
C7    C     C_R   0.014801 0.519711 0.707706 0.351193
C8    C     C_R   0.483247 0.493209 0.708632 0.351670
C9    C     C_R   0.475592 0.925625 0.699283 0.348521
C10   C     C_R   0.519711 0.014801 0.207706 0.351194
C11   C     C_R   0.493208 0.483247 0.208632 0.351670
C12   C     C_R   0.925625 0.475592 0.199283 0.348521
C13   C     C_R   0.034679 0.452942 0.847965 -0.130419
C14   C     C_R   0.551413 0.577533 0.848926 -0.137302
C15   C     C_R   0.355488 0.851131 0.835530 -0.127726
C16   C     C_R   0.452942 0.034678 0.347965 -0.130419
C17   C     C_R   0.577533 0.551413 0.348926 -0.137302
C18   C     C_R   0.851131 0.355488 0.335530 -0.127726
C19   C     C_R   0.057341 0.457317 0.887104 -0.135043
C20   C     C_R   0.545653 0.597220 0.887834 -0.144176
C21   C     C_R   0.342335 0.839536 0.875515 -0.133174
C22   C     C_R   0.457317 0.057340 0.387104 -0.135043
C23   C     C_R   0.597220 0.545653 0.387834 -0.144176
C24   C     C_R   0.839536 0.342334 0.375515 -0.133174
C25   C     C_R   0.084137 0.622909 0.889835 -0.111113
C26   C     C_R   0.379636 0.461664 0.890437 -0.104064
C27   C     C_R   0.482845 0.815473 0.880174 -0.107807
C28   C     C_R   0.622909 0.084137 0.389835 -0.111113
C29   C     C_R   0.461664 0.379637 0.390437 -0.104064
C30   C     C_R   0.815472 0.482845 0.380174 -0.107806
C31   C     C_R   0.062731 0.620216 0.850264 -0.002527
C32   C     C_R   0.383550 0.441926 0.851090 -0.002978
C33   C     C_R   0.497130 0.826898 0.839841 -0.003175
C34   C     C_R   0.620216 0.062731 0.350264 -0.002527
C35   C     C_R   0.441925 0.383551 0.351090 -0.002978
C36   C     C_R   0.826897 0.497130 0.339841 -0.003175
C37   C     C_R   0.040807 0.534844 0.828677 0.050749
C38   C     C_R   0.469781 0.503235 0.829642 0.051073
C39   C     C_R   0.433418 0.846859 0.817096 0.050758
C40   C     C_R   0.534844 0.040807 0.328677 0.050749
C41   C     C_R   0.503235 0.469781 0.329642 0.051073
C42   C     C_R   0.846858 0.433418 0.317096 0.050758
C43   C     C_R   0.086354 0.543759 0.907894 0.011003
C44   C     C_R   0.458247 0.542213 0.908359 0.011109
C45   C     C_R   0.407154 0.823864 0.898333 0.006138
C46   C     C_R   0.543759 0.086353 0.407894 0.011003
C47   C     C_R   0.542213 0.458248 0.408359 0.011109
C48   C     C_R   0.823864 0.407154 0.398333 0.006138
C49   C     C_R   0.578138 0.441970 0.445398 0.539426
C50   C     C_R   0.558508 0.136245 0.445333 0.544299
C51   C     C_R   0.809684 0.392235 0.440662 0.566426
C52   C     C_R   0.441970 0.578138 0.945398 0.539426
C53   C     C_R   0.136245 0.558508 0.945333 0.544299
C54   C     C_R   0.392235 0.809684 0.940662 0.566426
C55   C     C_R   0.921976 0.458176 0.590242 0.022523
C56   C     C_R   0.541291 0.463176 0.590444 0.022371
C57   C     C_R   0.534245 0.072453 0.589335 0.021231
C58   C     C_R   0.458175 0.921976 0.090242 0.022523
C59   C     C_R   0.463176 0.541291 0.090444 0.022371
C60   C     C_R   0.072453 0.534245 0.089335 0.021231
C61   C     C_R   0.956734 0.402106 0.609210 -0.129672
C62   C     C_R   0.596537 0.553418 0.609191 -0.129440
C63   C     C_R   0.439417 0.027755 0.605216 -0.129037
C64   C     C_R   0.402106 0.956733 0.109210 -0.129672
C65   C     C_R   0.553418 0.596537 0.109191 -0.129440
C66   C     C_R   0.027755 0.439417 0.105216 -0.129037
C67   C     C_R   0.993817 0.426237 0.646722 -0.117370
C68   C     C_R   0.573312 0.565958 0.646992 -0.116589
C69   C     C_R   0.418960 0.975607 0.640017 -0.117084
C70   C     C_R   0.426237 0.993817 0.146722 -0.117370
C71   C     C_R   0.565957 0.573312 0.146992 -0.116589
C72   C     C_R   0.975607 0.418960 0.140017 -0.117084
C73   C     C_R   0.995953 0.506353 0.665796 0.036228
C74   C     C_R   0.494918 0.488173 0.666555 0.036039
C75   C     C_R   0.493156 0.967758 0.659757 0.034192
C76   C     C_R   0.506353 0.995953 0.165796 0.036228
C77   C     C_R   0.488172 0.494918 0.166555 0.036039
C78   C     C_R   0.967758 0.493156 0.159757 0.034192
C79   C     C_R   0.969269 0.567238 0.645486 -0.117070
C80   C     C_R   0.434355 0.401307 0.646470 -0.117484
C81   C     C_R   0.586747 0.008365 0.642821 -0.117369
C82   C     C_R   0.567238 0.969269 0.145486 -0.117070
C83   C     C_R   0.401306 0.434355 0.146470 -0.117484
C84   C     C_R   0.008365 0.586747 0.142821 -0.117369
C85   C     C_R   0.932820 0.543494 0.607947 -0.129887
C86   C     C_R   0.457215 0.388987 0.608639 -0.129942
C87   C     C_R   0.607031 0.060034 0.607908 -0.131296
C88   C     C_R   0.543494 0.932820 0.107947 -0.129887
C89   C     C_R   0.388986 0.457215 0.108639 -0.129942
C90   C     C_R   0.060034 0.607031 0.107908 -0.131296
C91   C     C_R   0.031411 0.530308 0.786043 0.346528
C92   C     C_R   0.474857 0.498463 0.787057 0.345622
C93   C     C_R   0.447421 0.867693 0.774829 0.348231
C94   C     C_R   0.530308 0.031410 0.286043 0.346528
C95   C     C_R   0.498463 0.474857 0.287057 0.345622
C96   C     C_R   0.867693 0.447421 0.274829 0.348231
Cr1   Cr    Cr6+3 0.522350 0.263930 0.500020 1.009454
Cr2   Cr    Cr6+3 0.736070 0.258420 0.500020 1.010258
Cr3   Cr    Cr6+3 0.741580 0.477650 0.500020 1.014142
Cr4   Cr    Cr6+3 0.263930 0.522350 0.000020 1.009454
Cr5   Cr    Cr6+3 0.258420 0.736070 0.000020 1.010258
Cr6   Cr    Cr6+3 0.477650 0.741580 0.000020 1.014142
H1    H     H_    0.950074 0.336494 0.595993 0.131231
H2    H     H_    0.661099 0.612211 0.595581 0.131218
H3    H     H_    0.381690 0.035586 0.591372 0.130979
H4    H     H_    0.336494 0.950074 0.095993 0.131231
H5    H     H_    0.612212 0.661099 0.095581 0.131217
H6    H     H_    0.035586 0.381690 0.091372 0.130979
H7    H     H_    0.907619 0.588714 0.593763 0.129603
H8    H     H_    0.412589 0.319053 0.594627 0.130118
H9    H     H_    0.680709 0.093348 0.596238 0.128426
H10   H     H_    0.588714 0.907619 0.093763 0.129603
H11   H     H_    0.319053 0.412589 0.094627 0.130118
H12   H     H_    0.093348 0.680709 0.096238 0.128426
H13   H     H_    0.057906 0.395006 0.900450 0.132574
H14   H     H_    0.607604 0.659253 0.901137 0.128970
H15   H     H_    0.281600 0.843631 0.888581 0.129049
H16   H     H_    0.395006 0.057906 0.400450 0.132574
H17   H     H_    0.659253 0.607604 0.401137 0.128970
H18   H     H_    0.843630 0.281600 0.388581 0.129049
H19   H     H_    0.014849 0.378517 0.661560 0.138077
H20   H     H_    0.620605 0.634227 0.661634 0.139233
H21   H     H_    0.346005 0.944960 0.652193 0.138000
H22   H     H_    0.378517 0.014848 0.161560 0.138077
H23   H     H_    0.634227 0.620605 0.161634 0.139233
H24   H     H_    0.944960 0.346005 0.152193 0.138000
H25   H     H_    0.971821 0.630478 0.659254 0.136801
H26   H     H_    0.372294 0.340823 0.660624 0.136815
H27   H     H_    0.645359 0.003032 0.657139 0.136853
H28   H     H_    0.630478 0.971821 0.159254 0.136801
H29   H     H_    0.340822 0.372294 0.160624 0.136815
H30   H     H_    0.003032 0.645359 0.157139 0.136853
H31   H     H_    0.016311 0.386268 0.832300 0.134807
H32   H     H_    0.618719 0.623994 0.833323 0.131767
H33   H     H_    0.305438 0.865969 0.819083 0.132191
H34   H     H_    0.386267 0.016310 0.332301 0.134807
H35   H     H_    0.623995 0.618719 0.333323 0.131766
H36   H     H_    0.865969 0.305438 0.319083 0.132192
H37   H     H_    0.105871 0.689712 0.905974 0.122033
H38   H     H_    0.312122 0.418234 0.906404 0.130584
H39   H     H_    0.531122 0.799930 0.897547 0.137621
H40   H     H_    0.689712 0.105871 0.405974 0.122033
H41   H     H_    0.418234 0.312122 0.406404 0.130583
H42   H     H_    0.799930 0.531122 0.397547 0.137621
N1    N     N_R   0.057973 0.473324 0.765450 -0.228627
N2    N     N_R   0.530989 0.581425 0.766382 -0.241027
N3    N     N_R   0.371003 0.855208 0.752381 -0.226790
N4    N     N_R   0.473323 0.057973 0.265450 -0.228626
N5    N     N_R   0.581425 0.530988 0.266382 -0.241027
N6    N     N_R   0.855208 0.371003 0.252381 -0.226790
N7    N     N_R   0.049475 0.467788 0.727054 -0.226668
N8    N     N_R   0.535454 0.578834 0.727928 -0.226099
N9    N     N_R   0.384774 0.883581 0.715401 -0.226229
N10   N     N_R   0.467788 0.049475 0.227054 -0.226668
N11   N     N_R   0.578834 0.535453 0.227928 -0.226099
N12   N     N_R   0.883582 0.384773 0.215401 -0.226229
N13   N     N_R   0.988493 0.576883 0.728265 -0.227183
N14   N     N_R   0.427263 0.410250 0.729296 -0.228591
N15   N     N_R   0.551679 0.936635 0.721514 -0.227930
N16   N     N_R   0.576883 0.988492 0.228265 -0.227183
N17   N     N_R   0.410249 0.427265 0.229296 -0.228591
N18   N     N_R   0.936635 0.551679 0.221514 -0.227930
N19   N     N_R   0.996649 0.582054 0.766671 -0.232623
N20   N     N_R   0.423132 0.412874 0.767750 -0.232381
N21   N     N_R   0.537851 0.908514 0.758498 -0.231077
N22   N     N_R   0.582053 0.996648 0.266671 -0.232624
N23   N     N_R   0.412873 0.423134 0.267750 -0.232381
N24   N     N_R   0.908514 0.537851 0.258498 -0.231076
O1    O     O_R   0.498680 0.159540 0.541860 -0.517145
O2    O     O_R   0.840460 0.339140 0.541860 -0.514764
O3    O     O_R   0.660860 0.501320 0.541860 -0.518340
O4    O     O_R   0.159540 0.498680 0.041860 -0.517146
O5    O     O_R   0.339140 0.840460 0.041860 -0.514764
O6    O     O_R   0.501320 0.660860 0.041860 -0.518340
O7    O     O_R   0.532760 0.358060 0.540030 -0.502969
O8    O     O_R   0.641940 0.174700 0.540030 -0.503846
O9    O     O_R   0.825300 0.467240 0.540030 -0.498791
O10   O     O_R   0.358060 0.532760 0.040030 -0.502969
O11   O     O_R   0.174700 0.641940 0.040030 -0.503846
O12   O     O_R   0.467240 0.825300 0.040030 -0.498791
O13   O     O_R   0.498590 0.161190 0.456930 -0.519410
O14   O     O_R   0.838810 0.337400 0.456930 -0.514313
O15   O     O_R   0.662600 0.501410 0.456930 -0.535595
O16   O     O_R   0.161190 0.498590 0.956930 -0.519410
O17   O     O_R   0.337400 0.838810 0.956930 -0.514313
O18   O     O_R   0.501410 0.662600 0.956930 -0.535595
O19   O     O_R   0.532680 0.359580 0.461300 -0.507433
O20   O     O_R   0.640420 0.173100 0.461300 -0.525046
O21   O     O_R   0.826900 0.467320 0.461300 -0.497269
O22   O     O_R   0.359580 0.532680 0.961300 -0.507433
O23   O     O_R   0.173100 0.640420 0.961300 -0.525046
O24   O     O_R   0.467320 0.826900 0.961300 -0.497269
O25   O     O_3   0.666667 0.333333 0.499990 -0.265248
O26   O     O_3   0.333333 0.666667 0.999990 -0.265248
C97   C     C_3   0.071086 0.711277 0.831761 -0.382583
H43   H     H_    0.998482 0.696175 0.820810 0.165846
H44   H     H_    0.096351 0.772701 0.852711 0.107058
H45   H     H_    0.125019 0.736025 0.807607 0.161000
C98   C     C_3   0.292677 0.360780 0.832609 -0.377024
H46   H     H_    0.307758 0.302920 0.821752 0.164190
H47   H     H_    0.230898 0.325577 0.853553 0.112641
H48   H     H_    0.268335 0.390519 0.808426 0.166252
C99   C     C_3   0.578937 0.815393 0.822210 -0.373725
H49   H     H_    0.637510 0.887023 0.811243 0.165370
H50   H     H_    0.613156 0.789030 0.843814 0.111572
H51   H     H_    0.550168 0.761251 0.798267 0.178810
C100  C     C_3   0.711277 0.071086 0.331761 -0.382582
H52   H     H_    0.696175 0.998482 0.320810 0.165846
H53   H     H_    0.736025 0.125019 0.307607 0.161000
H54   H     H_    0.772701 0.096351 0.352711 0.107058
C101  C     C_3   0.360779 0.292677 0.332609 -0.377024
H55   H     H_    0.302919 0.307760 0.321752 0.164189
H56   H     H_    0.390518 0.268336 0.308426 0.166252
H57   H     H_    0.325576 0.230899 0.353553 0.112642
C102  C     C_3   0.815393 0.578938 0.322211 -0.373724
H58   H     H_    0.887023 0.637510 0.311243 0.165370
H59   H     H_    0.761252 0.550169 0.298267 0.178810
H60   H     H_    0.789030 0.613156 0.343814 0.111572

loop_
_geom_bond_atom_site_label_1
_geom_bond_atom_site_label_2
_ccdc_geom_bond_type
C25   C31   A    
C1    O3    A    
C99   H49   S    
C26   C32   A    
Cr1   O7    S    
C25   H37   S    
Cr6   O12   S    
C6    C58   S    
Cr5   O5    S    
C91   N1    A    
C51   O14   A    
C8    N14   A    
C25   C43   A    
C2    C57   S    
Cr1   O1    S    
C7    C73   S    
C27   C33   A    
C99   H50   S    
C28   C46   A    
C33   C39   A    
C54   O24   A    
C29   C47   A    
C34   C40   A    
C30   C48   A    
C61   H1    S    
C1    C56   S    
Cr3   O9    S    
C32   C98   S    
C26   H38   S    
C22   C46   A    
C18   C42   A    
C36   C102  S    
C23   H17   S    
C55   C85   A    
C87   H9    S    
C27   C45   A    
C9    N15   A    
C68   C74   A    
C29   H41   S    
C38   C92   S    
C11   N17   A    
C30   H42   S    
N17   N23   A    
Cr1   O19   S    
C59   C89   A    
Cr1   O25   S    
C18   H36   S    
C35   C101  S    
C5    O11   A    
C80   C86   A    
C11   C77   S    
C2    O8    A    
C49   O15   A    
C10   C76   S    
C43   C53   S    
C48   C51   S    
C66   C72   A    
C63   C69   A    
C39   C93   S    
N4    N10   A    
C54   O17   A    
C12   C78   S    
C98   H48   S    
C21   H15   S    
C96   N24   A    
C93   N3    A    
C58   C88   A    
C67   C73   A    
C64   C70   A    
C82   H28   S    
N13   N19   A    
C13   C37   A    
C51   O21   A    
N14   N20   A    
C97   H45   S    
C66   H6    S    
C44   C52   S    
C93   N21   A    
C98   H46   S    
C4    O6    A    
Cr4   O4    S    
C58   C64   A    
C91   N19   A    
C26   C44   A    
C84   C90   A    
C78   C84   A    
C12   N12   A    
Cr5   O17   S    
C67   H19   S    
C20   C44   A    
C98   H47   S    
C19   C43   A    
C46   C50   S    
C57   C63   A    
C85   H7    S    
C21   C45   A    
C36   C42   A    
C94   N4    A    
C83   C89   A    
C99   H51   S    
C89   H11   S    
C24   H18   S    
C23   C47   A    
C28   C34   A    
C37   C91   S    
C92   N2    A    
C100  H52   S    
C24   C48   A    
C14   C20   A    
C60   C90   A    
C47   C49   S    
C5    O4    A    
C53   O16   A    
C68   H20   S    
C20   H14   S    
C13   C19   A    
C75   C81   A    
C52   O22   A    
C86   H8    S    
C65   C71   A    
C84   H30   S    
C62   H2    S    
C31   C37   A    
Cr2   O25   S    
C72   H24   S    
Cr2   O2    S    
Cr2   O14   S    
C102  H58   S    
Cr6   O18   S    
C83   H29   S    
C56   C86   A    
Cr5   O11   S    
C57   C87   A    
C100  H54   S    
Cr2   O8    S    
C61   C67   A    
C81   H27   S    
C101  H55   S    
C49   O19   A    
C19   H13   S    
C96   N6    A    
C8    C74   S    
C73   C79   A    
C17   C23   A    
C64   H4    S    
C53   O23   A    
C15   C39   A    
N1    N7    A    
C35   C41   A    
C16   C40   A    
C60   C66   A    
C7    N7    A    
C101  H56   S    
C45   C54   S    
N6    N12   A    
C32   C38   A    
C70   H22   S    
C70   C76   A    
C9    N9    A    
C18   C24   A    
Cr4   O26   S    
C102  H60   S    
C50   O13   A    
C63   H3    S    
C76   C82   A    
C14   C38   A    
C52   O18   A    
C10   N16   A    
C40   C94   S    
C71   C77   A    
Cr5   O26   S    
Cr3   O21   S    
Cr4   O16   S    
C22   H16   S    
C79   H25   S    
C1    O7    A    
C16   C22   A    
C5    C60   S    
C6    O12   A    
C13   H31   S    
Cr4   O10   S    
Cr4   O22   S    
C77   C83   A    
C4    O10   A    
Cr5   O23   S    
C95   N23   A    
C50   O20   A    
C28   H40   S    
C17   H35   S    
C3    O2    A    
Cr1   O13   S    
C95   N5    A    
C7    N13   A    
C6    O5    A    
C11   N11   A    
C34   C100  S    
Cr6   O6    S    
C14   H32   S    
C29   C35   A    
Cr3   O25   S    
C3    C55   S    
C62   C68   A    
C42   C96   S    
C102  H59   S    
C3    O9    A    
C80   H26   S    
C30   C36   A    
C59   C65   A    
C31   C97   S    
C10   N10   A    
C81   C87   A    
C92   N20   A    
C41   C95   S    
C8    N8    A    
N2    N8    A    
C82   C88   A    
C55   C61   A    
C4    C59   S    
C27   H39   S    
C79   C85   A    
C33   C99   S    
C69   C75   A    
C56   C62   A    
Cr6   O24   S    
C90   H12   S    
N5    N11   A    
N3    N9    A    
C17   C41   A    
C94   N22   A    
N18   N24   A    
C2    O1    A    
C12   N18   A    
C97   H43   S    
C88   H10   S    
Cr6   O26   S    
N15   N21   A    
C15   C21   A    
C101  H57   S    
C15   H33   S    
C72   C78   A    
C100  H53   S    
C69   H21   S    
C71   H23   S    
C74   C80   A    
Cr3   O15   S    
C9    C75   S    
Cr2   O20   S    
C65   H5    S    
Cr3   O3    S    
C97   H44   S    
N16   N22   A    
C16   H34   S    
