data_mof_unit_24153.cif
_audit_creation_date              2012-10-26T19:03:30-0400
_audit_creation_method            fapswitch 2.2
_symmetry_space_group_name_H-M    P1
_symmetry_Int_Tables_number       1
_space_group_crystal_system       triclinic
_cell_length_a                    10.797806
_cell_length_b                    12.977647
_cell_length_c                    11.73137
_cell_angle_alpha                 99.220708
_cell_angle_beta                  93.098712
_cell_angle_gamma                 90.338097
_cell_volume                      1620.12679133

loop_
_atom_site_label
_atom_site_type_symbol
_atom_type_description
_atom_site_fract_x
_atom_site_fract_y
_atom_site_fract_z
_atom_type_partial_charge
C1    C     C_R   0.497384 0.299411 0.479213 0.547889
C2    C     C_R   0.449949 0.125665 0.362991 -0.130869
C3    C     C_R   0.529455 0.138467 0.562732 -0.126719
C4    C     C_R   0.262847 0.508213 0.501855 0.592250
C5    C     C_R   0.523517 0.030443 0.553302 0.049434
C6    C     C_R   0.479119 0.969738 0.447873 0.049816
C7    C     C_R   0.472061 0.861896 0.438638 -0.131043
C8    C     C_R   0.555204 0.874024 0.637036 -0.146782
C9    C     C_R   0.561062 0.982140 0.647549 -0.130425
C10   C     C_R   0.397080 0.391390 0.023075 -0.181453
C11   C     C_R   0.405450 0.403182 0.145002 0.031758
C12   C     C_R   0.066500 0.602463 0.570867 0.054333
C13   C     C_R   0.542405 0.548600 0.154020 0.250601
C14   C     C_R   0.537777 0.537981 0.031792 0.054231
C15   C     C_R   0.463599 0.459122 0.965529 -0.018582
C16   C     C_R   0.505447 0.700531 0.520728 0.550030
C17   C     C_R   0.457519 0.451350 0.843340 0.046818
C18   C     C_R   0.596153 0.595379 0.853776 0.032656
C19   C     C_R   0.604774 0.606201 0.974396 -0.152945
C20   C     C_R   0.737242 0.502300 0.499315 0.538086
C21   C     C_R   0.128369 0.692329 0.636919 0.066384
C22   C     C_R   0.060039 0.772097 0.702003 0.038025
C23   C     C_R   0.128618 0.517784 0.504061 0.020135
C24   C     C_R   0.930966 0.764943 0.696734 -0.109987
C25   C     C_R   0.869487 0.681093 0.629186 -0.151083
C26   C     C_R   0.934893 0.598330 0.567516 0.000046
C27   C     C_2   0.122510 0.865059 0.773522 0.216245
C28   C     C_R   0.060941 0.437526 0.433351 -0.160983
C29   C     C_R   0.933348 0.435292 0.430551 -0.148531
C30   C     C_R   0.870546 0.512979 0.499025 0.007761
C31   C     C_R   0.511223 0.813708 0.532380 -0.007542
C32   C     C_R   0.492742 0.186262 0.467860 0.002360
C33   C     C_R   0.442585 0.017749 0.353219 -0.131574
Cu1   Cu    Cu3+1 0.509250 0.507730 0.615930 0.940043
Cu2   Cu    Cu3+1 0.490750 0.492270 0.384070 0.940869
H1    H     H_    0.107703 0.374303 0.381475 0.124613
H2    H     H_    0.876351 0.825886 0.743345 0.159420
H3    H     H_    0.769433 0.683463 0.624754 0.133335
H4    H     H_    0.883300 0.370739 0.377209 0.133027
H5    H     H_    0.434764 0.815831 0.358829 0.115265
H6    H     H_    0.585802 0.837624 0.710360 0.118022
H7    H     H_    0.408577 0.971976 0.271944 0.112026
H8    H     H_    0.673638 0.613785 0.280123 0.279465
H9    H     H_    0.554410 0.695166 0.247103 0.241496
H10   H     H_    0.275392 0.776035 0.602297 0.214292
H11   H     H_    0.299299 0.711045 0.716878 0.237751
H12   H     H_    0.595341 0.027771 0.728800 0.115282
H13   H     H_    0.222606 0.873879 0.779325 0.102011
H14   H     H_    0.420650 0.161715 0.289052 0.127275
H15   H     H_    0.563261 0.185128 0.643643 0.125172
H16   H     H_    0.399672 0.391576 0.790761 0.123820
H17   H     H_    0.647660 0.648276 0.810887 0.119538
H18   H     H_    0.339054 0.329529 0.974238 0.105021
H19   H     H_    0.663667 0.668149 0.021719 0.136830
H20   H     H_    0.354175 0.349967 0.187648 0.126271
N1    N     N_R   0.523180 0.519350 0.790130 -0.232053
N2    N     N_R   0.476820 0.480650 0.209890 -0.217882
N3    N     N_3   0.613394 0.635120 0.216406 -0.645580
N4    N     N_3   0.259049 0.706216 0.633054 -0.599644
O1    O     O_R   0.506570 0.354460 0.582000 -0.509828
O2    O     O_R   0.490940 0.341410 0.386200 -0.511339
O3    O     O_R   0.327470 0.506530 0.597920 -0.477188
O4    O     O_R   0.311840 0.493480 0.402120 -0.503819
O5    O     O_R   0.509060 0.658590 0.613800 -0.512287
O6    O     O_R   0.493430 0.645540 0.418000 -0.512961
O7    O     O_R   0.688160 0.506520 0.597880 -0.501201
O8    O     O_R   0.672530 0.493470 0.402080 -0.514616
O9    O     O_2   0.062403 0.933841 0.827745 -0.512787

loop_
_geom_bond_atom_site_label_1
_geom_bond_atom_site_label_2
_ccdc_geom_bond_type
C27   H13   S    
Cu1   O1    S    
C7    H5    S    
C5    C9    A    
C6    C7    A    
C27   O9    D    
C2    H14   S    
C18   N1    A    
H11   N4    S    
C20   O8    A    
C22   C27   S    
C4    O4    A    
C6    C33   A    
Cu2   O8    S    
Cu2   N2    S    
C11   H20   S    
C17   H16   S    
Cu1   O5    S    
C24   H2    S    
C18   H17   S    
Cu2   O2    S    
C20   C30   S    
C13   C14   A    
C24   C25   A    
C16   C31   S    
Cu1   N1    S    
C12   C23   A    
C29   H4    S    
C29   C30   A    
C11   N2    A    
Cu1   Cu2   S    
C5    C6    A    
C12   C21   A    
C2    C33   A    
C20   O7    A    
Cu1   O7    S    
C16   O6    A    
C3    H15   S    
C21   N4    S    
C17   N1    A    
C10   C15   A    
C1    C32   S    
C3    C32   A    
C25   H3    S    
C22   C24   A    
C23   C28   A    
C9    H12   S    
C7    C31   A    
C10   C11   A    
C33   H7    S    
C4    O3    A    
Cu1   O3    S    
C13   N2    A    
C8    H6    S    
C28   H1    S    
C2    C32   A    
C18   C19   A    
C1    O1    A    
H9    N3    S    
C15   C17   A    
C4    C23   S    
Cu2   O6    S    
C14   C15   A    
C28   C29   A    
C19   H19   S    
Cu2   O4    S    
C13   N3    S    
C16   O5    A    
H8    N3    S    
C25   C26   A    
C21   C22   A    
C8    C31   A    
C14   C19   A    
C10   H18   S    
H10   N4    S    
C12   C26   A    
C8    C9    A    
C3    C5    A    
C26   C30   A    
C1    O2    A    
