data_mof_unit_61051.cif
_audit_creation_date              2013-03-05T15:55:01-0500
_audit_creation_method            fapswitch 2.2
_symmetry_space_group_name_H-M    P1
_symmetry_Int_Tables_number       1
_space_group_crystal_system       triclinic
_cell_length_a                    6.919857
_cell_length_b                    14.609623
_cell_length_c                    16.18337
_cell_angle_alpha                 90.34645
_cell_angle_beta                  89.893508
_cell_angle_gamma                 89.630528
_cell_volume                      1636.01522589

loop_
_atom_site_label
_atom_site_type_symbol
_atom_site_description
_atom_site_fract_x
_atom_site_fract_y
_atom_site_fract_z
_atom_type_partial_charge
O1    O     O_R   0.505810 0.583360 0.413880 -0.599965
O2    O     O_R   0.175870 0.595480 0.585520 -0.576607
O3    O     O_R   0.005540 0.416640 0.586120 -0.592380
C1    C     C_R   0.343549 0.617483 0.614894 1.010217
O4    O     O_R   0.176100 0.594390 0.414490 -0.581535
O5    O     O_R   0.005770 0.415540 0.413870 -0.563941
C2    C     C_R   0.344642 0.619199 0.387999 1.020325
O6    O     O_R   0.505580 0.584460 0.586130 -0.558906
O7    O     O_3   0.339190 0.441320 0.500000 -0.262085
V1    V     V_3+5 0.064350 0.510890 0.500000 1.248314
O8    O     O_R   0.676050 0.404520 0.414480 -0.599360
C3    C     C_R   0.845218 0.384304 0.384044 0.959642
O9    O     O_R   0.675830 0.405610 0.585510 -0.586214
C4    C     C_R   0.845194 0.381169 0.612032 1.069375
V2    V     V_3+5 0.564340 0.489110 0.500000 1.232405
O10   O     O_3   0.839370 0.558680 0.500000 -0.246080
C5    C     C_2   0.760651 0.172128 0.756433 0.250904
C6    C     C_2   0.876519 0.181931 0.823196 -0.536497
H1    H     H_    0.953661 0.245447 0.833474 0.153030
C7    C     C_2   0.720565 0.249136 0.698141 0.217187
C8    C     C_2   0.862227 0.307502 0.674824 -0.565942
H2    H     H_    0.005909 0.296888 0.699758 0.192911
C9    C     C_R   0.028266 0.254802 0.192536 0.075901
C10   C     C_R   0.012679 0.321182 0.256155 0.522108
C11   C     C_R   0.856594 0.319120 0.312833 -0.322290
C12   C     C_R   0.709379 0.254915 0.300158 -0.148414
H3    H     H_    0.586214 0.252626 0.341491 0.171086
C13   C     C_R   0.720377 0.191490 0.235224 -0.136645
H4    H     H_    0.605185 0.142116 0.228665 0.147122
C14   C     C_R   0.880532 0.188879 0.181547 -0.253185
C15   C     C_R   0.209675 0.750998 0.700625 0.245610
C16   C     C_R   0.226068 0.811589 0.767420 -0.158198
H5    H     H_    0.116096 0.864036 0.775468 0.182810
C17   C     C_R   0.383280 0.808101 0.821835 -0.301547
C18   C     C_R   0.525067 0.738733 0.809540 0.128918
C19   C     C_R   0.500602 0.672205 0.746815 0.538360
C20   C     C_R   0.350757 0.681605 0.687490 -0.429481
C21   C     C_R   0.210803 0.758133 0.310308 0.123362
C22   C     C_R   0.233092 0.824257 0.247972 0.530688
C23   C     C_R   0.385372 0.816910 0.189650 -0.430501
C24   C     C_R   0.530288 0.749738 0.202906 0.242734
C25   C     C_R   0.516325 0.689807 0.269530 -0.195558
H6    H     H_    0.629227 0.638916 0.277529 0.166168
C26   C     C_R   0.355022 0.690129 0.322140 -0.313580
O11   O     O_R   0.230120 0.912300 0.917180 -0.599253
O12   O     O_R   0.559740 0.902430 0.088770 -0.573367
O13   O     O_R   0.729930 0.081310 0.089370 -0.600412
C27   C     C_R   0.392034 0.880998 0.118137 1.006856
O14   O     O_R   0.559840 0.901330 0.917750 -0.566568
O15   O     O_R   0.730030 0.080210 0.917120 -0.582526
C28   C     C_R   0.391896 0.877333 0.890094 1.043262
O16   O     O_R   0.230020 0.913400 0.089430 -0.558918
O17   O     O_3   0.396460 0.055470 0.003290 -0.265323
V3    V     V_3+5 0.671360 0.985960 0.003250 1.253031
O18   O     O_R   0.059740 0.091300 0.917690 -0.588751
C29   C     C_R   0.890523 0.111766 0.888381 1.074832
O19   O     O_R   0.059640 0.092400 0.088720 -0.583548
C30   C     C_R   0.890472 0.116823 0.115838 0.998390
V4    V     V_3+5 0.171350 0.007820 0.003190 1.241927
O20   O     O_3   0.896380 0.938200 0.003220 -0.237238
I1    I     I_    0.634582 0.041939 0.728364 -0.310582
I2    I     I_    0.780629 0.727420 0.882787 -0.333696
O21   O     O_3   0.628486 0.598753 0.743348 -0.629028
C31   C     C_3   0.536011 0.517912 0.770956 0.219432
H7    H     H_    0.605641 0.459176 0.738886 0.144730
H8    H     H_    0.379372 0.514748 0.755109 0.063544
C32   C     C_3   0.562423 0.504925 0.864144 -0.343241
H9    H     H_    0.718726 0.507720 0.879566 0.236339
H10   H     H_    0.485797 0.560673 0.898105 0.215189
C33   C     C_3   0.482094 0.413126 0.892308 -0.914446
H11   H     H_    0.325408 0.408768 0.878073 0.269524
H12   H     H_    0.501617 0.406243 0.960091 0.281138
H13   H     H_    0.559749 0.355821 0.860985 0.269261
I3    I     I_    0.957955 0.770256 0.385201 -0.315270
O22   O     O_3   0.108747 0.898901 0.247433 -0.620150
C34   C     C_3   0.203864 0.975853 0.282221 0.166743
H14   H     H_    0.251703 0.021258 0.231351 0.119010
H15   H     H_    0.333800 0.958033 0.320122 0.088025
C35   C     C_3   0.063153 0.028655 0.337899 -0.247469
H16   H     H_    0.933446 0.048249 0.301824 0.200096
H17   H     H_    0.015849 0.984156 0.389415 0.235886
C36   C     C_3   0.156796 0.114287 0.374158 -0.948784
H18   H     H_    0.278064 0.094936 0.415552 0.278836
H19   H     H_    0.048212 0.153742 0.410597 0.275935
H20   H     H_    0.213181 0.158501 0.324196 0.262735
I4    I     I_    0.772740 0.726957 0.124870 -0.381343
I5    I     I_    0.431039 0.256827 0.652361 -0.372980
I6    I     I_    0.278286 0.261380 0.114361 -0.426102
O23   O     O_3   0.152393 0.388214 0.262384 -0.640320
C37   C     C_3   0.098807 0.463958 0.212845 0.199465
H21   H     H_    0.027201 0.516409 0.252732 0.113339
H22   H     H_    0.997345 0.446166 0.161531 0.096555
C38   C     C_3   0.280692 0.504929 0.174343 -0.267508
H23   H     H_    0.381394 0.525546 0.224050 0.191884
H24   H     H_    0.356686 0.453210 0.135814 0.231384
C39   C     C_3   0.232661 0.586557 0.119733 -0.930945
H25   H     H_    0.168565 0.642433 0.157592 0.282784
H26   H     H_    0.129618 0.566487 0.070377 0.283271
H27   H     H_    0.366550 0.611904 0.090010 0.276428
I7    I     I_    0.964042 0.773528 0.624734 -0.252328

loop_
_geom_bond_atom_site_label_1
_geom_bond_atom_site_label_2
_geom_bond_distance
_ccdc_geom_bond_type
O18   C29   1.297994 A    
C7    I5    2.139869 S    
C38   H23   1.106930 S    
O18   V4    2.002684 S    
C24   C25   1.396635 A    
C18   C19   1.412301 A    
C34   C35   1.527655 S    
C1    O6    1.301910 A    
C10   O23   1.383941 S    
O17   V4    1.710300 S    
V3    O20   1.702182 S    
O17   V3    2.150574 S    
C24   I4    2.121391 S    
C12   H3    1.083259 S    
O15   V3    2.007992 S    
C4    C8    1.488918 S    
C13   H4    1.083407 S    
C34   H15   1.119556 S    
C6    H1    1.085613 S    
O5    C3    1.296693 A    
C21   C22   1.409915 A    
O19   V4    2.000848 S    
O11   C28   1.301695 A    
O14   V3    2.008580 S    
C39   H27   1.109876 S    
C5    C7    1.497473 S    
C17   C18   1.418909 A    
C5    I1    2.144170 S    
O8    V2    2.000826 S    
C1    C20   1.499281 S    
O14   C28   1.295803 A    
C39   H26   1.111033 S    
C9    C10   1.413600 A    
C33   H11   1.111009 S    
O1    V2    2.005145 S    
C22   O22   1.384822 S    
C19   O21   1.387320 S    
O7    V1    2.150620 S    
C6    C29   1.478245 S    
V4    O20   2.163324 S    
C38   H24   1.106450 S    
O9    C4    1.297532 A    
C25   C26   1.402557 A    
O12   C27   1.294256 A    
C32   H9    1.111422 S    
C31   C32   1.532253 S    
C10   C11   1.416299 A    
C22   C23   1.416467 A    
O4    C2    1.296481 A    
C11   C12   1.403730 A    
C15   I7    2.123980 S    
O15   C29   1.292110 A    
C15   C20   1.417721 A    
C32   H10   1.111077 S    
C31   H8    1.115495 S    
O2    C1    1.296402 A    
O22   C34   1.420341 S    
C9    C14   1.419728 A    
C21   C26   1.417714 A    
O16   V4    2.008405 S    
C37   H22   1.118956 S    
C15   C16   1.398275 A    
C39   H25   1.107603 S    
O12   V3    2.007460 S    
C33   H13   1.111163 S    
C5    C6    1.354093 D    
C17   C28   1.494790 S    
C2    C26   1.492980 S    
C34   H14   1.111658 S    
O3    C4    1.297633 A    
O13   V3    2.008263 S    
C23   C24   1.416101 A    
C38   C39   1.523945 S    
C36   H19   1.110519 S    
C9    I6    2.144415 S    
O9    V2    2.002653 S    
C25   H6    1.083496 S    
C37   H21   1.112343 S    
O2    V1    2.008443 S    
C37   C38   1.530351 S    
C35   H17   1.110466 S    
C21   I3    2.132431 S    
C23   C27   1.493874 S    
O11   V4    2.004344 S    
O1    C2    1.300093 A    
O21   C31   1.420950 S    
O5    V1    2.008389 S    
C35   C36   1.527199 S    
O8    C3    1.300706 A    
O6    V2    2.003957 S    
C36   H20   1.109802 S    
C12   C13   1.398476 A    
C3    C11   1.492197 S    
C32   C33   1.526915 S    
C16   H5    1.083551 S    
C13   C14   1.407035 A    
O7    V2    1.711398 S    
O4    V1    2.007429 S    
O3    V1    2.008079 S    
V1    O10   1.702108 S    
C31   H7    1.107358 S    
O13   C30   1.301286 A    
O19   C30   1.296560 A    
C14   C30   1.492977 S    
C18   I2    2.136881 S    
C35   H16   1.108620 S    
C27   O16   1.301754 A    
C7    C8    1.357841 D    
C19   C20   1.421008 A    
C36   H18   1.110942 S    
C33   H12   1.110590 S    
O23   C37   1.418208 S    
C8    H2    1.084291 S    
V2    O10   2.163343 S    
C16   C17   1.401770 A    
