data_mof_unit_42985.cif
_audit_creation_date              2012-12-11T16:13:42-0500
_audit_creation_method            fapswitch 2.2
_symmetry_space_group_name_H-M    P1
_symmetry_Int_Tables_number       1
_space_group_crystal_system       triclinic
_cell_length_a                    26.194359
_cell_length_b                    7.268046
_cell_length_c                    23.746403
_cell_angle_alpha                 89.999978
_cell_angle_beta                  101.368654
_cell_angle_gamma                 89.999169
_cell_volume                      4432.17958856

loop_
_atom_site_label
_atom_site_type_symbol
_atom_type_description
_atom_site_fract_x
_atom_site_fract_y
_atom_site_fract_z
_atom_type_partial_charge
O1    O     O_R   0.192370 0.384760 0.193350 -0.531250
O2    O     O_R   0.807630 0.615240 0.806650 -0.532983
O3    O     O_R   0.307630 0.884760 0.306650 -0.531249
O4    O     O_R   0.692370 0.115240 0.693350 -0.532984
O5    O     O_R   0.296630 0.711620 0.196480 -0.541948
O6    O     O_R   0.703370 0.288380 0.803520 -0.541030
O7    O     O_R   0.203370 0.211620 0.303520 -0.541949
O8    O     O_R   0.796630 0.788380 0.696480 -0.541032
C1    C     C_R   0.312472 0.545879 0.184160 0.710359
C2    C     C_R   0.687281 0.453982 0.815507 0.709937
C3    C     C_R   0.187528 0.045880 0.315840 0.710355
C4    C     C_R   0.812718 0.953981 0.684493 0.709928
O9    O     O_R   0.192080 0.714290 0.186600 -0.532770
O10   O     O_R   0.807920 0.285710 0.813400 -0.531302
O11   O     O_R   0.307920 0.214290 0.313400 -0.532771
O12   O     O_R   0.692080 0.785710 0.686600 -0.531303
O13   O     O_R   0.202340 0.887460 0.296690 -0.538492
O14   O     O_R   0.797660 0.112540 0.703310 -0.539224
O15   O     O_R   0.297660 0.387460 0.203310 -0.538492
O16   O     O_R   0.702340 0.612540 0.796690 -0.539224
C5    C     C_R   0.173823 0.545788 0.171355 0.711907
C6    C     C_R   0.826224 0.454203 0.828578 0.711532
C7    C     C_R   0.326177 0.045786 0.328645 0.711909
C8    C     C_R   0.673776 0.954205 0.671422 0.711534
O17   O     O_3   0.253490 0.552180 0.286130 -0.377315
O18   O     O_3   0.746510 0.447820 0.713870 -0.376633
O19   O     O_3   0.246510 0.052180 0.213870 -0.377314
O20   O     O_3   0.753490 0.947820 0.786130 -0.376630
V1    V     V_3+5 0.249350 0.825920 0.243300 1.421017
V2    V     V_3+5 0.750650 0.174080 0.756700 1.418647
V3    V     V_3+5 0.250650 0.325920 0.256700 1.421014
V4    V     V_3+5 0.749350 0.674080 0.743300 1.418642
C9    C     C_3   0.539780 0.942950 0.477590 -0.114095
C10   C     C_3   0.459791 0.057103 0.523006 -0.111221
C11   C     C_3   0.960207 0.443148 0.022423 -0.114117
C12   C     C_3   0.040221 0.556905 0.976982 -0.111239
C13   C     C_3   0.507576 0.118589 0.460647 0.470200
C14   C     C_3   0.492008 0.881459 0.539962 0.464794
C15   C     C_3   0.992442 0.618747 0.039318 0.470221
C16   C     C_3   0.007974 0.381301 0.960073 0.464819
H1    H     H_    0.519185 0.307484 0.544327 0.146367
H2    H     H_    0.480391 0.692534 0.456291 0.146746
H3    H     H_    0.980865 0.807381 0.955584 0.146437
H4    H     H_    0.019558 0.192637 0.043799 0.146815
C17   C     C_1   0.371688 0.035530 0.374645 -0.166021
C18   C     C_1   0.628120 0.964458 0.625619 -0.168304
C19   C     C_1   0.128311 0.535538 0.125355 -0.166023
C20   C     C_1   0.871880 0.464449 0.874381 -0.168306
C21   C     C_3   0.489234 0.830298 0.475980 -0.341525
C22   C     C_3   0.510346 0.169734 0.524625 -0.343487
C23   C     C_3   0.010734 0.330351 0.024069 -0.341529
C24   C     C_3   0.989685 0.669681 0.975328 -0.343496
C25   C     C_3   0.457010 0.009031 0.459076 0.018497
C26   C     C_3   0.542570 0.991021 0.541510 0.018567
C27   C     C_3   0.042989 0.509042 0.040924 0.018502
C28   C     C_3   0.957431 0.491009 0.958491 0.018570
C29   C     C_1   0.410004 0.024062 0.412791 0.029479
C30   C     C_1   0.589677 0.975961 0.587647 0.026992
C31   C     C_1   0.089995 0.524074 0.087209 0.029481
C32   C     C_1   0.910323 0.475948 0.912353 0.026995
C33   C     C_R   0.862498 0.126486 0.620598 -0.165731
C34   C     C_R   0.125005 0.871077 0.364218 -0.150897
C35   C     C_R   0.637497 0.626493 0.879397 -0.165688
C36   C     C_R   0.374996 0.371074 0.135781 -0.150895
H5    H     H_    0.841717 0.251423 0.626708 0.140464
H6    H     H_    0.133102 0.746094 0.342744 0.143459
H7    H     H_    0.658277 0.751430 0.873287 0.140472
H8    H     H_    0.366900 0.246091 0.157255 0.143461
C37   C     C_R   0.899335 0.132162 0.585224 -0.207864
C38   C     C_R   0.088800 0.863982 0.400354 -0.202493
C39   C     C_R   0.600659 0.632170 0.914770 -0.207837
C40   C     C_R   0.411200 0.363980 0.099644 -0.202497
H9    H     H_    0.905405 0.261606 0.564949 0.190571
H10   H     H_    0.070033 0.733828 0.405263 0.196979
H11   H     H_    0.594587 0.761616 0.935042 0.190587
H12   H     H_    0.429967 0.233826 0.094735 0.196981
C41   C     C_R   0.927762 0.974187 0.575890 -0.057578
C42   C     C_R   0.076482 0.022137 0.429213 -0.081409
C43   C     C_R   0.572233 0.474194 0.924103 -0.057620
C44   C     C_R   0.423516 0.522136 0.070785 -0.081408
C45   C     C_R   0.919209 0.808891 0.604397 0.452946
C46   C     C_R   0.102435 0.188716 0.421686 0.442932
C47   C     C_R   0.580789 0.308899 0.895598 0.452930
C48   C     C_R   0.397562 0.688715 0.078313 0.442931
C49   C     C_R   0.880015 0.803117 0.637681 -0.259879
C50   C     C_R   0.137693 0.195607 0.384090 -0.238235
C51   C     C_R   0.619984 0.303122 0.862316 -0.259848
C52   C     C_R   0.362305 0.695605 0.115910 -0.238235
H13   H     H_    0.872097 0.674457 0.657233 0.122443
H14   H     H_    0.156177 0.325740 0.378366 0.139404
H15   H     H_    0.627903 0.174460 0.842766 0.122466
H16   H     H_    0.343821 0.825738 0.121635 0.139404
C53   C     C_R   0.851927 0.961459 0.646782 -0.086579
C54   C     C_R   0.149692 0.037250 0.355218 -0.104719
C55   C     C_R   0.648071 0.461464 0.853215 -0.086610
C56   C     C_R   0.350308 0.537247 0.144782 -0.104717
N1    N     N_R   0.988959 0.832627 0.520205 -0.206718
N2    N     N_R   0.014427 0.163361 0.483573 -0.213860
N3    N     N_R   0.511041 0.332628 0.979794 -0.206725
N4    N     N_R   0.485563 0.663364 0.016417 -0.213848
N5    N     N_R   0.023469 0.844278 0.485910 -0.294341
N6    N     N_R   0.979788 0.151594 0.517718 -0.298496
N7    N     N_R   0.476532 0.344277 0.014089 -0.294339
N8    N     N_R   0.520202 0.651599 0.982271 -0.298480
C57   C     C_R   0.037329 0.010043 0.467116 0.513531
C58   C     C_R   0.966479 0.986023 0.537257 0.521550
C59   C     C_R   0.462668 0.510044 0.032880 0.513530
C60   C     C_R   0.533516 0.486027 0.962737 0.521540
O21   O     O_3   0.512924 0.237982 0.415345 -0.550083
C61   C     C_3   0.558613 0.343891 0.430993 0.080555
H17   H     H_    0.592787 0.259023 0.450973 0.125871
H18   H     H_    0.552641 0.454090 0.461533 0.125332
C62   C     C_3   0.571050 0.432444 0.377279 -0.621532
H19   H     H_    0.540235 0.533126 0.359257 0.220511
H20   H     H_    0.609104 0.504191 0.387894 0.204025
H21   H     H_    0.573447 0.325304 0.344543 0.229581
O22   O     O_3   0.486753 0.762178 0.585326 -0.552477
C63   C     C_3   0.441037 0.656341 0.569850 0.091933
H22   H     H_    0.446874 0.546228 0.539223 0.126380
H23   H     H_    0.406826 0.741306 0.550047 0.122103
C64   C     C_3   0.428822 0.567637 0.623655 -0.659194
H24   H     H_    0.426534 0.674696 0.656451 0.220927
H25   H     H_    0.390774 0.495791 0.613194 0.201882
H26   H     H_    0.459696 0.466999 0.641541 0.219289
O23   O     O_3   0.987118 0.738320 0.084584 -0.550086
C65   C     C_3   0.941430 0.844229 0.068922 0.080421
H27   H     H_    0.907244 0.759325 0.049008 0.125940
H28   H     H_    0.947381 0.954261 0.038321 0.125315
C66   C     C_3   0.929034 0.933067 0.122612 -0.621647
H29   H     H_    0.959847 0.033846 0.140550 0.220464
H30   H     H_    0.890969 0.004747 0.112000 0.204049
H31   H     H_    0.926679 0.826107 0.155413 0.229643
O24   O     O_3   0.013205 0.261838 0.914746 -0.552476
C67   C     C_3   0.058921 0.156005 0.930236 0.091782
H32   H     H_    0.053105 0.046057 0.960923 0.126363
H33   H     H_    0.093142 0.241008 0.949975 0.122170
C68   C     C_3   0.071096 0.067024 0.876455 -0.659261
H34   H     H_    0.073343 0.173908 0.843596 0.220983
H35   H     H_    0.109155 0.995246 0.886914 0.201910
H36   H     H_    0.040224 0.966290 0.858651 0.219268
C69   C     C_1   0.584432 0.885188 0.453112 0.315235
N9    N     N_1   0.619913 0.841346 0.433994 -0.357342
C70   C     C_1   0.415144 0.114991 0.547474 0.308869
N10   N     N_1   0.379671 0.158967 0.566587 -0.381242
C71   C     C_1   0.915541 0.385611 0.046910 0.315177
N11   N     N_1   0.880048 0.341956 0.066034 -0.357274
C72   C     C_1   0.084882 0.614570 0.952505 0.308816
N12   N     N_1   0.120367 0.658361 0.933386 -0.381206
O25   O     O_3   0.947887 0.652671 0.597352 -0.540153
C73   C     C_3   0.970317 0.574124 0.651113 0.088144
H37   H     H_    0.942619 0.474685 0.664274 0.122210
H38   H     H_    0.981457 0.679629 0.685535 0.108044
C74   C     C_3   0.019497 0.470489 0.645570 -0.665165
H39   H     H_    0.048514 0.567636 0.634063 0.218677
H40   H     H_    0.036471 0.403444 0.687064 0.170015
H41   H     H_    0.010370 0.363170 0.611897 0.244536
O26   O     O_3   0.092839 0.347557 0.449823 -0.542096
C75   C     C_3   0.130584 0.361709 0.501060 0.089605
H42   H     H_    0.170405 0.375938 0.491590 0.110872
H43   H     H_    0.129393 0.239175 0.529033 0.114580
C76   C     C_3   0.119317 0.531229 0.534060 -0.641996
H44   H     H_    0.079011 0.524369 0.542054 0.261454
H45   H     H_    0.147046 0.538283 0.575900 0.160316
H46   H     H_    0.123691 0.657292 0.509065 0.217473
O27   O     O_3   0.552113 0.152676 0.902639 -0.540152
C77   C     C_3   0.529652 0.074246 0.848871 0.088121
H47   H     H_    0.557341 0.974883 0.835658 0.122204
H48   H     H_    0.518481 0.179830 0.814482 0.108062
C78   C     C_3   0.480492 0.970529 0.854433 -0.665171
H49   H     H_    0.451489 0.067587 0.866010 0.218713
H50   H     H_    0.463485 0.903623 0.812930 0.170004
H51   H     H_    0.489653 0.863098 0.888062 0.244506
O28   O     O_3   0.407157 0.847558 0.050177 -0.542096
C79   C     C_3   0.369406 0.861731 0.998945 0.089614
H52   H     H_    0.329588 0.875957 0.008421 0.110873
H53   H     H_    0.370594 0.739210 0.970966 0.114594
C80   C     C_3   0.380669 0.031264 0.965950 -0.642043
H54   H     H_    0.420974 0.024413 0.957956 0.261451
H55   H     H_    0.352939 0.038327 0.924111 0.160329
H56   H     H_    0.376293 0.157315 0.990949 0.217470

loop_
_geom_bond_atom_site_label_1
_geom_bond_atom_site_label_2
_ccdc_geom_bond_type
O17   V3    S    
N3    N7    A    
C52   C56   A    
O1    C5    A    
O27   C77   S    
C7    C17   S    
C27   C31   S    
O19   V1    S    
O13   V1    S    
C78   H49   S    
C37   C41   A    
C72   N12   T    
N4    N8    A    
C44   C48   A    
O15   V3    S    
C67   C68   S    
C39   C43   A    
C71   N11   T    
O25   C73   S    
C14   C21   S    
O28   C79   S    
O7    C3    A    
N3    C60   A    
C47   O27   S    
C44   C59   S    
C17   C29   T    
O26   C75   S    
N2    C57   A    
C42   C57   S    
C15   O23   S    
C36   H8    S    
O9    V1    S    
C41   C58   S    
C62   H19   S    
C51   H15   S    
O16   V4    S    
O4    C8    A    
C33   C53   A    
H3    C24   S    
C38   C42   A    
C9    C21   S    
C70   N10   T    
C35   C55   A    
O1    V3    S    
C34   C38   A    
O2    V4    S    
C11   C71   S    
O3    V1    S    
C63   H22   S    
C64   H26   S    
C50   C54   A    
C75   C76   S    
C79   H52   S    
C14   O22   S    
C49   C53   A    
C75   H43   S    
C15   C27   S    
C52   H16   S    
C2    O16   A    
C80   H55   S    
C73   C74   S    
C51   C55   A    
C38   H10   S    
C37   H9    S    
O14   V2    S    
C74   H40   S    
O21   C61   S    
C13   O21   S    
C12   C24   S    
C40   H12   S    
C62   H21   S    
C13   C25   S    
O11   C7    A    
C15   C24   S    
C68   H34   S    
O12   C8    A    
C18   C30   T    
C77   H48   S    
C78   H50   S    
O10   V2    S    
C76   H45   S    
C1    O15   A    
C45   C49   A    
C20   C32   T    
O5    V1    S    
N5    C57   A    
C68   H36   S    
C35   H7    S    
C10   C70   S    
C10   C22   S    
O7    V3    S    
C34   H6    S    
O8    V4    S    
C12   C16   S    
C36   C56   A    
C50   H14   S    
C46   O26   S    
C49   H13   S    
O18   V4    S    
C67   H33   S    
C65   C66   S    
C16   C28   S    
O3    C7    A    
C46   C50   A    
C9    C13   S    
C61   H17   S    
C62   H20   S    
C63   C64   S    
C75   H42   S    
C11   C15   S    
O5    C1    A    
C33   H5    S    
O24   C67   S    
C68   H35   S    
C42   C46   A    
C12   C72   S    
C14   C26   S    
C41   C45   A    
O8    C4    A    
C80   H56   S    
N1    N5    A    
O9    C5    A    
C22   C26   S    
C74   H41   S    
C1    C56   S    
C64   H24   S    
C79   C80   S    
C77   C78   S    
N1    C58   A    
C63   H23   S    
H4    C23   S    
O6    V2    S    
C35   C39   A    
C6    C20   S    
C34   C54   A    
C11   C23   S    
O23   C65   S    
C78   H51   S    
C73   H38   S    
C4    C53   S    
C4    O14   A    
C48   O28   S    
H1    C22   S    
N8    C60   A    
C76   H46   S    
C3    C54   S    
C66   H29   S    
C26   C30   S    
C33   C37   A    
C9    C26   S    
C3    O13   A    
N4    C59   A    
C65   H28   S    
C11   C28   S    
C10   C14   S    
C48   C52   A    
C25   C29   S    
C47   C51   A    
O6    C2    A    
O11   V3    S    
C67   H32   S    
O12   V4    S    
C16   C23   S    
C16   O24   S    
C9    C69   S    
C66   H31   S    
O20   V2    S    
C8    C18   S    
C40   C44   A    
C12   C27   S    
N2    N6    A    
C69   N9    T    
C39   H11   S    
C13   C22   S    
O10   C6    A    
C77   H47   S    
C76   H44   S    
C2    C55   S    
C65   H27   S    
C45   O25   S    
O2    C6    A    
C79   H53   S    
C43   C60   S    
N6    C58   A    
C23   C27   S    
C36   C40   A    
C61   H18   S    
C64   H25   S    
C21   C25   S    
H2    C21   S    
C19   C31   T    
C43   C47   A    
C28   C32   S    
C10   C25   S    
C80   H54   S    
C61   C62   S    
C73   H37   S    
N7    C59   A    
C66   H30   S    
C74   H39   S    
O22   C63   S    
O4    V2    S    
C24   C28   S    
C5    C19   S    
