data_mof_unit_54025.cif
_audit_creation_date              2012-12-11T14:01:09-0500
_audit_creation_method            fapswitch 2.2
_symmetry_space_group_name_H-M    P1
_symmetry_Int_Tables_number       1
_space_group_crystal_system       triclinic
_cell_length_a                    19.043198
_cell_length_b                    10.922275
_cell_length_c                    18.70198
_cell_angle_alpha                 90.270018
_cell_angle_beta                  90.057769
_cell_angle_gamma                 89.599319
_cell_volume                      3889.77901647

loop_
_atom_site_label
_atom_site_type_symbol
_atom_type_description
_atom_site_fract_x
_atom_site_fract_y
_atom_site_fract_z
_atom_type_partial_charge
C1    C     C_R   0.271374 0.046242 0.851505 0.555179
C2    C     C_R   0.711766 0.002135 0.138360 0.546734
C3    C     C_R   0.771374 0.546242 0.851505 0.555179
C4    C     C_R   0.211766 0.502135 0.138360 0.546734
C5    C     C_R   0.479056 0.057364 0.074006 0.286829
C6    C     C_R   0.520485 0.055881 0.928191 0.278272
C7    C     C_R   0.979056 0.557364 0.074006 0.286828
C8    C     C_R   0.020485 0.555881 0.928191 0.278272
C9    C     C_R   0.988132 0.667665 0.036255 -0.163484
C10   C     C_R   0.012814 0.666788 0.966553 -0.164323
C11   C     C_R   0.488132 0.167665 0.036255 -0.163484
C12   C     C_R   0.512814 0.166788 0.966553 -0.164323
C13   C     C_2   0.241815 0.559715 0.911562 -0.106854
C14   C     C_2   0.737085 0.631727 0.068181 -0.103158
C15   C     C_2   0.741815 0.059715 0.911562 -0.106854
C16   C     C_2   0.237085 0.131727 0.068181 -0.103158
C17   C     C_2   0.228968 0.534977 0.065345 -0.099743
C18   C     C_2   0.744101 0.608383 0.914357 -0.104597
C19   C     C_2   0.728968 0.034978 0.065345 -0.099743
C20   C     C_2   0.244101 0.108383 0.914357 -0.104597
C21   C     C_2   0.274971 0.469752 0.025989 -0.174484
C22   C     C_2   0.692306 0.560461 0.953432 -0.158002
C23   C     C_2   0.774971 0.969752 0.025989 -0.174484
C24   C     C_2   0.192306 0.060460 0.953432 -0.158002
C25   C     C_2   0.290982 0.506017 0.952267 -0.165982
C26   C     C_2   0.681954 0.599598 0.027696 -0.167182
C27   C     C_2   0.790982 0.006017 0.952267 -0.165982
C28   C     C_2   0.181954 0.099598 0.027696 -0.167182
C29   C     C_2   0.434586 0.827757 0.563618 -0.079673
C30   C     C_2   0.487972 0.835699 0.417366 -0.068353
C31   C     C_2   0.934586 0.327757 0.563618 -0.079673
C32   C     C_2   0.987973 0.335699 0.417366 -0.068354
C33   C     C_2   0.449004 0.742134 0.441860 0.223390
C34   C     C_2   0.436421 0.728652 0.520340 0.198238
C35   C     C_2   0.949004 0.242134 0.441860 0.223392
C36   C     C_2   0.936420 0.228652 0.520340 0.198243
C37   C     C_2   0.246545 0.554049 0.587693 -0.134454
C38   C     C_2   0.745812 0.613012 0.430789 -0.111966
C39   C     C_2   0.746546 0.054049 0.587693 -0.134450
C40   C     C_2   0.245812 0.113012 0.430788 -0.111965
C41   C     C_2   0.238741 0.583701 0.424374 0.277286
C42   C     C_2   0.740090 0.612397 0.588919 0.273065
C43   C     C_2   0.738741 0.083700 0.424375 0.277286
C44   C     C_2   0.240091 0.112397 0.588919 0.273065
C45   C     C_R   0.471952 0.822227 0.853220 0.583473
C46   C     C_R   0.527550 0.822497 0.147254 0.563427
C47   C     C_R   0.971952 0.322227 0.853220 0.583473
C48   C     C_R   0.027550 0.322497 0.147253 0.563426
C49   C     C_2   0.196068 0.529013 0.472950 0.191851
C50   C     C_2   0.779631 0.689623 0.550076 0.181975
C51   C     C_2   0.696067 0.029014 0.472950 0.191851
C52   C     C_2   0.279631 0.189623 0.550076 0.181974
C53   C     C_2   0.191949 0.574755 0.545708 -0.197145
C54   C     C_2   0.765312 0.705990 0.473973 -0.147971
C55   C     C_2   0.691948 0.074754 0.545709 -0.197148
C56   C     C_2   0.265313 0.205990 0.473973 -0.147972
C57   C     C_R   0.259882 0.632518 0.849509 0.551501
C58   C     C_R   0.727896 0.677140 0.140403 0.540983
C59   C     C_R   0.759882 0.132519 0.849509 0.551501
C60   C     C_R   0.227896 0.177140 0.140403 0.540983
C61   C     C_R   0.270767 0.049335 0.649900 0.616213
C62   C     C_R   0.727708 0.048146 0.351268 0.684639
C63   C     C_R   0.770767 0.549335 0.649900 0.616213
C64   C     C_R   0.227708 0.548146 0.351268 0.684639
C65   C     C_R   0.432832 0.818723 0.641602 0.605987
C66   C     C_R   0.527346 0.824447 0.350929 0.611079
C67   C     C_R   0.932832 0.318723 0.641602 0.605987
C68   C     C_R   0.027346 0.324447 0.350929 0.611078
C69   C     C_R   0.260067 0.632556 0.648098 0.544705
C70   C     C_R   0.738644 0.641138 0.355826 0.558364
C71   C     C_R   0.760067 0.132556 0.648098 0.544705
C72   C     C_R   0.238644 0.141138 0.355826 0.558365
C73   C     C_R   0.496886 0.831453 0.075489 0.035943
C74   C     C_R   0.500369 0.830500 0.926039 0.030387
C75   C     C_R   0.996886 0.331453 0.075489 0.035943
C76   C     C_R   0.000369 0.330500 0.926039 0.030387
C77   C     C_R   0.493525 0.944884 0.038384 0.001488
C78   C     C_R   0.504949 0.944251 0.963342 -0.000812
C79   C     C_R   0.993525 0.444884 0.038384 0.001488
C80   C     C_R   0.004949 0.444251 0.963342 -0.000812
C81   C     C_R   0.498877 0.720810 0.964371 -0.170910
C82   C     C_R   0.495035 0.721422 0.037283 -0.173008
C83   C     C_R   0.998877 0.220810 0.964371 -0.170910
C84   C     C_R   0.995035 0.221422 0.037283 -0.173008
Cr1   Cr    Cr6+3 0.230530 0.836340 0.748870 1.010606
Cr2   Cr    Cr6+3 0.769470 0.836340 0.251130 1.003453
Cr3   Cr    Cr6+3 0.730530 0.336340 0.748870 1.010606
Cr4   Cr    Cr6+3 0.269470 0.336340 0.251130 1.003453
Cr5   Cr    Cr6+3 0.387420 0.989430 0.750820 1.017802
Cr6   Cr    Cr6+3 0.612580 0.989430 0.249180 1.025097
Cr7   Cr    Cr6+3 0.887420 0.489430 0.750820 1.017802
Cr8   Cr    Cr6+3 0.112580 0.489430 0.249180 1.025097
Cr9   Cr    Cr6+3 0.385640 0.677860 0.749230 1.048030
Cr10  Cr    Cr6+3 0.614360 0.677860 0.250770 1.048818
Cr11  Cr    Cr6+3 0.885640 0.177860 0.749230 1.048030
Cr12  Cr    Cr6+3 0.114360 0.177860 0.250770 1.048819
H1    H     H_    0.496858 0.632362 0.937955 0.139985
H2    H     H_    0.495117 0.633456 0.063874 0.139961
H3    H     H_    0.996858 0.132362 0.937955 0.139985
H4    H     H_    0.995117 0.133456 0.063874 0.139961
H5    H     H_    0.150649 0.639782 0.559517 0.160001
H6    H     H_    0.777645 0.795248 0.451937 0.166877
H7    H     H_    0.650647 0.139778 0.559519 0.159999
H8    H     H_    0.277645 0.295248 0.451937 0.166878
H9    H     H_    0.287892 0.491093 0.570667 0.158487
H10   H     H_    0.733363 0.522399 0.450503 0.143551
H11   H     H_    0.787893 0.991096 0.570666 0.158488
H12   H     H_    0.233363 0.022399 0.450503 0.143554
H13   H     H_    0.977444 0.756020 0.060307 0.090242
H14   H     H_    0.024615 0.754402 0.942938 0.090026
H15   H     H_    0.477444 0.256020 0.060307 0.090242
H16   H     H_    0.524615 0.254402 0.942938 0.090026
H17   H     H_    0.304486 0.394461 0.049391 0.139267
H18   H     H_    0.660750 0.485348 0.933249 0.146022
H19   H     H_    0.804486 0.894461 0.049391 0.139267
H20   H     H_    0.160750 0.985348 0.933249 0.146022
H21   H     H_    0.344925 0.497409 0.933985 0.148014
H22   H     H_    0.629498 0.595988 0.050166 0.150582
H23   H     H_    0.844925 0.997409 0.933985 0.148014
H24   H     H_    0.129498 0.095988 0.050166 0.150582
H25   H     H_    0.201911 0.614028 0.043095 0.119333
H26   H     H_    0.773148 0.687251 0.933693 0.107822
H27   H     H_    0.701911 0.114028 0.043095 0.119334
H28   H     H_    0.273148 0.187251 0.933693 0.107822
H29   H     H_    0.187387 0.563021 0.928898 0.136191
H30   H     H_    0.790194 0.629615 0.046924 0.124414
H31   H     H_    0.687387 0.063021 0.928898 0.136191
H32   H     H_    0.290194 0.129615 0.046924 0.124414
H33   H     H_    0.502042 0.912817 0.450927 0.052490
H34   H     H_    0.433089 0.919512 0.541690 0.049693
H35   H     H_    0.002043 0.412817 0.450927 0.052489
H36   H     H_    0.933089 0.419512 0.541690 0.049693
O1    O     O_R   0.215090 0.709860 0.828130 -0.530568
O2    O     O_R   0.784910 0.709860 0.171870 -0.537670
O3    O     O_R   0.715090 0.209860 0.828130 -0.530568
O4    O     O_R   0.284910 0.209860 0.171870 -0.537670
O5    O     O_R   0.445660 0.919250 0.676780 -0.540847
O6    O     O_R   0.554340 0.919250 0.323220 -0.504102
O7    O     O_R   0.945660 0.419250 0.676780 -0.540847
O8    O     O_R   0.054340 0.419250 0.323220 -0.504103
O9    O     O_R   0.456260 0.718170 0.670000 -0.438165
O10   O     O_R   0.543740 0.718170 0.330000 -0.442121
O11   O     O_R   0.956260 0.218170 0.670000 -0.438166
O12   O     O_R   0.043740 0.218170 0.330000 -0.442121
O13   O     O_R   0.320940 0.626760 0.674370 -0.476496
O14   O     O_R   0.679060 0.626760 0.325630 -0.471319
O15   O     O_R   0.820940 0.126760 0.674370 -0.476496
O16   O     O_R   0.179060 0.126760 0.325630 -0.471319
O17   O     O_3   0.334530 0.834540 0.749640 -0.289410
O18   O     O_3   0.665470 0.834540 0.250360 -0.281528
O19   O     O_3   0.834530 0.334540 0.749640 -0.289410
O20   O     O_3   0.165470 0.334540 0.250360 -0.281528
O21   O     O_R   0.236990 0.958390 0.823710 -0.499510
O22   O     O_R   0.763010 0.958390 0.176290 -0.501061
O23   O     O_R   0.736990 0.458390 0.823710 -0.499510
O24   O     O_R   0.263010 0.458390 0.176290 -0.501061
O25   O     O_R   0.332380 0.074750 0.830850 -0.520832
O26   O     O_R   0.667620 0.074750 0.169150 -0.517239
O27   O     O_R   0.832380 0.574750 0.830850 -0.520832
O28   O     O_R   0.167620 0.574750 0.169150 -0.517239
O29   O     O_R   0.445800 0.917770 0.825070 -0.457977
O30   O     O_R   0.554200 0.917770 0.174930 -0.485943
O31   O     O_R   0.945800 0.417770 0.825070 -0.457977
O32   O     O_R   0.054200 0.417770 0.174930 -0.485943
O33   O     O_R   0.456410 0.716580 0.829970 -0.537398
O34   O     O_R   0.543590 0.716580 0.170030 -0.543146
O35   O     O_R   0.956410 0.216580 0.829970 -0.537398
O36   O     O_R   0.043590 0.216580 0.170030 -0.543145
O37   O     O_R   0.321080 0.625290 0.822650 -0.498910
O38   O     O_R   0.678920 0.625290 0.177350 -0.492065
O39   O     O_R   0.821080 0.125290 0.822650 -0.498910
O40   O     O_R   0.178920 0.125290 0.177350 -0.492065
O41   O     O_R   0.214930 0.711450 0.668160 -0.523635
O42   O     O_R   0.785070 0.711450 0.331840 -0.532679
O43   O     O_R   0.714930 0.211450 0.668160 -0.523635
O44   O     O_R   0.285070 0.211450 0.331840 -0.532679
O45   O     O_R   0.236850 0.959870 0.675420 -0.472816
O46   O     O_R   0.763150 0.959870 0.324580 -0.500329
O47   O     O_R   0.736850 0.459870 0.675420 -0.472816
O48   O     O_R   0.263150 0.459870 0.324580 -0.500330
O49   O     O_R   0.332230 0.076350 0.670880 -0.490084
O50   O     O_R   0.667770 0.076350 0.329120 -0.493485
O51   O     O_R   0.832230 0.576350 0.670880 -0.490084
O52   O     O_R   0.167770 0.576350 0.329120 -0.493485
O53   O     O_3   0.154753 0.430814 0.452753 -0.715118
H37   H     H_    0.128841 0.401861 0.495391 0.314612
O54   O     O_3   0.837809 0.745415 0.580088 -0.693985
H38   H     H_    0.861884 0.793772 0.542762 0.320495
O55   O     O_3   0.654751 0.930815 0.452753 -0.715118
H39   H     H_    0.628839 0.901862 0.495391 0.314612
O56   O     O_3   0.337809 0.245415 0.580088 -0.693985
H40   H     H_    0.361885 0.293771 0.542762 0.320495
O57   O     O_3   0.277767 0.688335 0.436856 -0.746269
H41   H     H_    0.277152 0.711096 0.487998 0.329836
O58   O     O_3   0.673080 0.577844 0.568342 -0.716819
H42   H     H_    0.652006 0.643740 0.538767 0.325853
O59   O     O_3   0.777768 0.188333 0.436857 -0.746270
H43   H     H_    0.777147 0.211101 0.487998 0.329836
O60   O     O_3   0.173080 0.077844 0.568342 -0.716818
H44   H     H_    0.152006 0.143740 0.538767 0.325852
O61   O     O_3   0.448621 0.052558 0.141842 -0.552109
C85   C     C_3   0.457095 0.160583 0.182980 0.029728
H45   H     H_    0.417877 0.230158 0.165729 0.143798
H46   H     H_    0.510853 0.199070 0.177012 0.105802
C86   C     C_3   0.445995 0.134963 0.262910 -0.223671
H47   H     H_    0.497535 0.116264 0.288364 0.159830
H48   H     H_    0.424323 0.218663 0.289008 0.124040
C87   C     C_3   0.397033 0.027322 0.277508 -0.307984
H49   H     H_    0.421164 0.940122 0.258788 0.184114
H50   H     H_    0.346056 0.040234 0.249770 0.204349
H51   H     H_    0.387508 0.020030 0.335896 0.116557
O62   O     O_3   0.550685 0.049572 0.860264 -0.566788
C88   C     C_3   0.542429 0.157752 0.819588 0.023044
H52   H     H_    0.582446 0.225473 0.836441 0.141422
H53   H     H_    0.489114 0.199015 0.826538 0.108821
C89   C     C_3   0.551983 0.131210 0.739399 -0.215920
H54   H     H_    0.499819 0.115495 0.714788 0.176453
H55   H     H_    0.574193 0.213444 0.713212 0.126698
C90   C     C_3   0.599457 0.020713 0.723575 -0.317296
H56   H     H_    0.651784 0.032785 0.748584 0.173445
H57   H     H_    0.605956 0.010297 0.664956 0.118485
H58   H     H_    0.575646 0.935286 0.744034 0.196777
O63   O     O_3   0.948622 0.552558 0.141842 -0.552109
C91   C     C_3   0.957095 0.660583 0.182980 0.029728
H59   H     H_    0.917877 0.730158 0.165729 0.143798
H60   H     H_    0.010853 0.699070 0.177012 0.105802
C92   C     C_3   0.945995 0.634963 0.262910 -0.223670
H61   H     H_    0.997534 0.616264 0.288364 0.159830
H62   H     H_    0.924323 0.718663 0.289008 0.124040
C93   C     C_3   0.897033 0.527322 0.277508 -0.307984
H63   H     H_    0.921163 0.440122 0.258788 0.184115
H64   H     H_    0.846056 0.540234 0.249770 0.204348
H65   H     H_    0.887508 0.520030 0.335896 0.116557
O64   O     O_3   0.050685 0.549572 0.860264 -0.566788
C94   C     C_3   0.042429 0.657753 0.819588 0.023043
H66   H     H_    0.082446 0.725473 0.836441 0.141423
H67   H     H_    0.989114 0.699015 0.826538 0.108821
C95   C     C_3   0.051983 0.631210 0.739399 -0.215920
H68   H     H_    0.999819 0.615495 0.714789 0.176453
H69   H     H_    0.074193 0.713444 0.713212 0.126698
C96   C     C_3   0.099457 0.520714 0.723575 -0.317297
H70   H     H_    0.151784 0.532786 0.748583 0.173446
H71   H     H_    0.105956 0.510298 0.664956 0.118486
H72   H     H_    0.075646 0.435287 0.744034 0.196777
O65   O     O_3   0.429064 0.651058 0.394303 -0.662297
H73   H     H_    0.397015 0.593987 0.418700 0.349940
O66   O     O_3   0.431308 0.613230 0.550132 -0.673312
H74   H     H_    0.452595 0.552651 0.516930 0.331126
O67   O     O_3   0.929065 0.151058 0.394303 -0.662297
H75   H     H_    0.897016 0.093987 0.418700 0.349943
O68   O     O_3   0.931308 0.113230 0.550132 -0.673310
H76   H     H_    0.952595 0.052651 0.516930 0.331125

loop_
_geom_bond_atom_site_label_1
_geom_bond_atom_site_label_2
_ccdc_geom_bond_type
C16   C28   D    
C71   O15   A    
C38   C70   S    
Cr10  O14   S    
C37   C69   S    
Cr3   O19   S    
C69   O13   A    
O61   C85   S    
C10   H14   S    
Cr9   O17   S    
O63   C91   S    
C89   C90   S    
C35   O67   S    
Cr6   O18   S    
Cr7   O31   S    
C91   H59   S    
Cr10  O34   S    
C93   H64   S    
C81   C82   A    
O68   H76   S    
C51   C55   S    
C86   H47   S    
C58   O2    A    
C61   O45   A    
C95   C96   S    
C19   H27   S    
O67   H75   S    
C50   C54   S    
C75   C79   A    
C85   H46   S    
Cr6   O30   S    
C83   C84   A    
C90   H57   S    
Cr4   O24   S    
C58   O38   A    
C89   H55   S    
C47   C76   S    
C5    C11   A    
Cr7   O51   S    
Cr2   O18   S    
C5    O61   S    
C64   O48   A    
C75   C84   A    
C6    C78   A    
Cr12  O12   S    
C66   O6    A    
Cr12  O20   S    
C55   H7    S    
Cr2   O46   S    
C36   O68   S    
C63   O47   A    
C3    C18   S    
C96   H70   S    
C16   C60   S    
C41   C49   D    
O66   H74   S    
C45   O29   A    
C41   O57   S    
Cr12  O40   S    
Cr2   O2    S    
C39   C55   D    
C35   C36   S    
C53   H5    S    
C87   H49   S    
C40   C56   D    
C85   C86   S    
C48   O36   A    
C66   O10   A    
Cr8   O20   S    
Cr1   O41   S    
C94   H66   S    
Cr12  O36   S    
C33   O65   S    
C70   O14   A    
C23   C27   S    
C67   O7    A    
C9    C10   A    
C60   O4    A    
Cr7   O27   S    
C51   O55   S    
C46   O34   A    
C32   C68   S    
Cr8   O32   S    
C37   C53   D    
C44   C52   D    
Cr5   O17   S    
Cr9   O33   S    
O60   H44   S    
C2    O22   A    
C15   H31   S    
O65   H73   S    
C3    O27   A    
C94   H67   S    
C48   C75   S    
C57   O1    A    
C67   O11   A    
O59   H43   S    
C69   O41   A    
C59   O39   A    
C50   O54   S    
C76   C83   A    
Cr5   O29   S    
Cr6   O6    S    
Cr4   O48   S    
C57   O37   A    
C14   H30   S    
C86   H48   S    
C9    H13   S    
C14   C58   S    
C95   H69   S    
Cr7   O19   S    
C63   O51   A    
C85   H45   S    
C82   H2    S    
C11   H15   S    
O56   H40   S    
Cr10  O10   S    
C32   C35   D    
Cr6   O50   S    
C13   C57   S    
Cr11  O15   S    
C89   H54   S    
C56   H8    S    
C21   H17   S    
C65   O9    A    
C28   H24   S    
C46   O30   A    
C90   H56   S    
C87   H51   S    
C77   C78   A    
C23   H19   S    
C29   C34   D    
C93   H63   S    
C17   C21   D    
O58   H42   S    
Cr12  O16   S    
Cr11  O35   S    
C45   C74   S    
C96   H71   S    
C52   O56   S    
C60   O40   A    
Cr6   O26   S    
C19   C23   D    
C37   H9    S    
C31   H36   S    
Cr3   O3    S    
C62   O50   A    
C47   O35   A    
C15   C27   D    
C92   H61   S    
C38   C54   D    
C88   H52   S    
C2    O26   A    
Cr9   O37   S    
C38   H10   S    
C3    O23   A    
C33   C34   S    
C43   O59   S    
Cr1   O21   S    
C14   C26   D    
C1    O21   A    
C70   O42   A    
Cr4   O4    S    
C6    O62   S    
C30   C66   S    
C7    O63   S    
C42   C50   D    
Cr7   O7    S    
C4    C17   S    
C17   H25   S    
C93   H65   S    
C4    O24   A    
C18   H26   S    
C24   H20   S    
Cr5   O5    S    
Cr8   O52   S    
C94   C95   S    
C29   C65   S    
Cr9   O13   S    
C68   O8    A    
Cr11  O19   S    
O64   C94   S    
C74   C81   A    
C5    C77   A    
Cr8   O8    S    
C91   C92   S    
C73   C82   A    
C12   H16   S    
Cr9   O9    S    
C7    C79   A    
C88   C89   S    
C25   H21   S    
C7    C9    A    
C21   C25   S    
C95   H68   S    
C1    C20   S    
C73   C77   A    
C40   C72   S    
C30   C33   D    
C92   H62   S    
C2    C19   S    
C18   C22   D    
C15   C59   S    
C54   H6    S    
C8    C10   A    
Cr11  O11   S    
C24   C28   S    
C13   C25   D    
C91   H60   S    
Cr4   O20   S    
C84   H4    S    
C76   C80   A    
Cr5   O25   S    
C48   O32   A    
C27   H23   S    
C44   C61   S    
Cr10  O18   S    
C30   H33   S    
Cr3   O43   S    
C74   C78   A    
C61   O49   A    
Cr4   O44   S    
C26   H22   S    
C40   H12   S    
Cr8   O28   S    
C96   H72   S    
C1    O25   A    
C62   O46   A    
Cr2   O22   S    
C88   H53   S    
C65   O5    A    
O54   H38   S    
C87   H50   S    
C72   O16   A    
Cr10  O38   S    
C90   H58   S    
C6    C12   A    
C43   C51   D    
O53   H37   S    
C4    O28   A    
Cr11  O39   S    
C47   O31   A    
C49   C53   S    
C42   C63   S    
C59   O3    A    
C81   H1    S    
C71   O43   A    
C68   O12   A    
Cr3   O23   S    
C42   O58   S    
C16   H32   S    
O55   H39   S    
C39   H11   S    
C72   O44   A    
Cr1   O17   S    
C20   H28   S    
C31   C67   S    
Cr3   O47   S    
C79   C80   A    
C64   O52   A    
C29   H34   S    
C52   C56   S    
C22   H18   S    
C92   C93   S    
C49   O53   S    
O62   C88   S    
C43   C62   S    
C44   O60   S    
Cr1   O45   S    
O57   H41   S    
C22   C26   S    
Cr1   O1    S    
C34   O66   S    
C8    C80   A    
C39   C71   S    
C31   C36   D    
C83   H3    S    
C86   C87   S    
C41   C64   S    
Cr2   O42   S    
C45   O33   A    
C13   H29   S    
C20   C24   D    
C46   C73   S    
C32   H35   S    
C11   C12   A    
Cr5   O49   S    
C8    O64   S    
