data_mof_unit_20876.cif
_audit_creation_date              2012-12-11T15:32:14-0500
_audit_creation_method            fapswitch 2.2
_symmetry_space_group_name_H-M    P1
_symmetry_Int_Tables_number       1
_space_group_crystal_system       triclinic
_cell_length_a                    13.576084
_cell_length_b                    13.58788
_cell_length_c                    27.67733
_cell_angle_alpha                 90.404928
_cell_angle_beta                  90.151155
_cell_angle_gamma                 119.957076
_cell_volume                      4423.30490275

loop_
_atom_site_label
_atom_site_type_symbol
_atom_type_description
_atom_site_fract_x
_atom_site_fract_y
_atom_site_fract_z
_atom_type_partial_charge
C1    C     C_R   0.619479 0.898404 0.431269 0.545647
C2    C     C_R   0.276241 0.893186 0.257366 -0.100785
C3    C     C_R   0.257141 0.883870 0.207407 -0.103954
C4    C     C_R   0.599699 0.218468 0.431294 0.544885
C5    C     C_R   0.053756 0.784518 0.221248 -0.100986
C6    C     C_R   0.072851 0.793725 0.271203 -0.104065
C7    C     C_R   0.184197 0.847647 0.289383 0.041870
C8    C     C_R   0.145780 0.829058 0.189225 0.041797
C9    C     C_1   0.124087 0.813887 0.137957 -0.054942
C10   C     C_1   0.205721 0.854325 0.340641 -0.055079
C11   C     C_1   0.096813 0.794485 0.095936 -0.011024
C12   C     C_R   0.631009 0.234762 0.208651 -0.103967
C13   C     C_1   0.634576 0.865992 0.383629 -0.011173
C14   C     C_R   0.600453 0.874348 0.258213 -0.100831
C15   C     C_R   0.608087 0.862532 0.208326 -0.103973
C16   C     C_R   0.279551 0.878864 0.430531 0.545221
C17   C     C_R   0.708694 0.759796 0.222812 -0.100967
C18   C     C_R   0.701160 0.771714 0.272704 -0.104042
C19   C     C_R   0.647419 0.829478 0.290517 0.041864
C20   C     C_R   0.662650 0.805589 0.190505 0.041840
C21   C     C_1   0.675711 0.796730 0.139303 -0.055115
C22   C     C_1   0.642159 0.846176 0.341687 -0.055089
C23   C     C_R   0.620379 0.217288 0.258552 -0.100783
C24   C     C_1   0.693046 0.786990 0.097303 -0.011254
C25   C     C_R   0.640141 0.278855 0.615283 0.024622
C26   C     C_R   0.722084 0.265173 0.640671 -0.126080
C27   C     C_R   0.734440 0.283897 0.689959 -0.123952
C28   C     C_R   0.620480 0.900744 0.568992 0.542256
C29   C     C_R   0.668198 0.320698 0.714268 0.037935
C30   C     C_R   0.595257 0.346357 0.688076 -0.121010
C31   C     C_R   0.580481 0.324531 0.638723 -0.129788
C32   C     C_R   0.575449 0.300690 0.793752 -0.121885
C33   C     C_R   0.583894 0.322681 0.843099 -0.130949
C34   C     C_R   0.666084 0.310301 0.290662 0.041874
C35   C     C_R   0.786346 0.389440 0.839882 -0.126485
C36   C     C_R   0.778459 0.370475 0.790595 -0.124224
C37   C     C_R   0.673806 0.329928 0.766924 0.037007
C38   C     C_R   0.690475 0.372175 0.865891 0.023678
C39   C     C_R   0.223974 0.863653 0.614945 0.024043
C40   C     C_R   0.601751 0.223014 0.568452 0.541678
C41   C     C_R   0.242675 0.958430 0.642692 -0.126513
C42   C     C_R   0.216366 0.946548 0.691458 -0.122311
C43   C     C_R   0.168998 0.839448 0.712929 0.036464
C44   C     C_R   0.141675 0.743317 0.684299 -0.119201
C45   C     C_R   0.687632 0.345447 0.190654 0.041866
C46   C     C_R   0.169690 0.755435 0.635600 -0.127214
C47   C     C_R   0.173162 0.753574 0.791538 -0.120461
C48   C     C_R   0.146244 0.735626 0.840301 -0.129164
C49   C     C_R   0.083988 0.874753 0.837964 -0.126251
C50   C     C_R   0.109246 0.891351 0.789165 -0.122443
C51   C     C_R   0.150845 0.828459 0.765282 0.036223
C52   C     C_R   0.279735 0.881567 0.568196 0.541996
C53   C     C_R   0.097923 0.793383 0.863407 0.022944
C54   C     C_R   0.638783 0.862217 0.615683 0.023022
C55   C     C_R   0.546508 0.770825 0.638589 -0.125121
C56   C     C_1   0.694251 0.365351 0.139448 -0.055114
C57   C     C_R   0.553023 0.750937 0.687254 -0.121765
C58   C     C_R   0.652585 0.820707 0.713576 0.036930
C59   C     C_R   0.748156 0.905885 0.689740 -0.120253
C60   C     C_R   0.741154 0.926937 0.641103 -0.128783
C61   C     C_R   0.712349 0.902699 0.796340 -0.119732
C62   C     C_R   0.724736 0.889540 0.845338 -0.127881
C63   C     C_R   0.614287 0.684802 0.835113 -0.127183
C64   C     C_1   0.631123 0.264434 0.383711 -0.011130
C65   C     C_R   0.603583 0.697913 0.786025 -0.122648
C66   C     C_R   0.655612 0.806875 0.766025 0.035312
C67   C     C_1   0.650249 0.290348 0.341799 -0.055114
C68   C     C_R   0.679043 0.780431 0.864649 0.023804
C69   C     C_R   0.049245 0.761117 0.048253 0.545514
C70   C     C_R   0.714317 0.435832 0.049731 0.544903
C71   C     C_R   0.723588 0.770737 0.049548 0.545217
C72   C     C_R   0.043860 0.755858 0.910478 0.541980
C73   C     C_R   0.707936 0.428383 0.912598 0.540897
C74   C     C_R   0.717274 0.765073 0.911873 0.540482
C75   C     C_R   0.723689 0.420985 0.272680 -0.104085
C76   C     C_R   0.734430 0.438460 0.222774 -0.100937
C77   C     C_1   0.701600 0.390835 0.097446 -0.011236
C78   C     C_1   0.232640 0.862875 0.382694 -0.011232
Cr1   Cr    Cr6+3 0.417720 0.831920 0.499820 1.023705
Cr2   Cr    Cr6+3 0.668190 0.085770 0.500360 1.023068
Cr3   Cr    Cr6+3 0.414060 0.082260 0.499840 1.024399
Cr4   Cr    Cr6+3 0.908000 0.821090 0.979770 1.023924
Cr5   Cr    Cr6+3 0.912420 0.571130 0.979880 1.023063
Cr6   Cr    Cr6+3 0.657970 0.566940 0.980940 1.024809
H1    H     H_    0.759060 0.493473 0.297098 0.103514
H2    H     H_    0.546596 0.379123 0.705990 0.099822
H3    H     H_    0.777936 0.524500 0.209201 0.098799
H4    H     H_    0.517839 0.336897 0.619593 0.124059
H5    H     H_    0.285339 0.043121 0.627723 0.133465
H6    H     H_    0.208650 0.706765 0.774083 0.103680
H7    H     H_    0.158399 0.673011 0.859286 0.125472
H8    H     H_    0.238625 0.022028 0.712789 0.100405
H9    H     H_    0.090968 0.949319 0.769699 0.101385
H10   H     H_    0.046274 0.920189 0.854806 0.134049
H11   H     H_    0.101745 0.659304 0.699875 0.103091
H12   H     H_    0.572608 0.898664 0.183774 0.103434
H13   H     H_    0.153846 0.681144 0.614722 0.124415
H14   H     H_    0.466337 0.719285 0.619901 0.131439
H15   H     H_    0.594016 0.162285 0.184224 0.103479
H16   H     H_    0.749979 0.987720 0.781924 0.104761
H17   H     H_    0.774596 0.964334 0.867631 0.123636
H18   H     H_    0.478106 0.684800 0.704754 0.099851
H19   H     H_    0.559723 0.622649 0.763419 0.101450
H20   H     H_    0.579392 0.599582 0.849073 0.134199
H21   H     H_    0.827176 0.958415 0.709052 0.101160
H22   H     H_    0.813764 0.997283 0.624157 0.124829
H23   H     H_    0.738035 0.736970 0.297254 0.103503
H24   H     H_    0.362777 0.934826 0.271045 0.098487
H25   H     H_    0.328904 0.918170 0.183086 0.103545
H26   H     H_    0.967200 0.741499 0.207566 0.098722
H27   H     H_    0.001064 0.757914 0.295518 0.103321
H28   H     H_    0.558929 0.919475 0.271614 0.098395
H29   H     H_    0.751492 0.715930 0.209402 0.098619
H30   H     H_    0.575371 0.131264 0.272106 0.098616
H31   H     H_    0.769605 0.230181 0.623467 0.133144
H32   H     H_    0.492978 0.265056 0.776336 0.101996
H33   H     H_    0.508733 0.307532 0.862727 0.125113
H34   H     H_    0.791042 0.263103 0.709252 0.098812
H35   H     H_    0.855698 0.394064 0.770802 0.100001
H36   H     H_    0.869809 0.427472 0.856587 0.134444
O1    O     O_R   0.302900 0.805360 0.446400 -0.504859
O2    O     O_R   0.638120 0.455970 0.034270 -0.504545
O3    O     O_R   0.667540 0.672320 0.030160 -0.492959
O4    O     O_R   0.522090 0.841370 0.450730 -0.493569
O5    O     O_R   0.814460 0.840990 0.926980 -0.519963
O6    O     O_R   0.001710 0.811400 0.930110 -0.504541
O7    O     O_R   0.023410 0.659800 0.926210 -0.521326
O8    O     O_R   0.806940 0.473170 0.931090 -0.506156
O9    O     O_R   0.633420 0.451310 0.927930 -0.521618
O10   O     O_R   0.663190 0.668000 0.931580 -0.503659
O11   O     O_3   0.826130 0.653050 0.980200 -0.246558
O12   O     O_R   0.657980 0.180990 0.549630 -0.506378
O13   O     O_R   0.693280 0.995650 0.447220 -0.504217
O14   O     O_R   0.657260 0.178740 0.451050 -0.493563
O15   O     O_R   0.502640 0.195380 0.446850 -0.504642
O16   O     O_R   0.319630 0.976590 0.450330 -0.493092
O17   O     O_R   0.303680 0.807790 0.552740 -0.520031
O18   O     O_R   0.522820 0.843620 0.549310 -0.504452
O19   O     O_R   0.694060 0.998080 0.553560 -0.521518
O20   O     O_R   0.503420 0.197810 0.553190 -0.521415
O21   O     O_R   0.320350 0.978840 0.548910 -0.504272
O22   O     O_3   0.499990 0.999990 0.500010 -0.246199
O23   O     O_R   0.819150 0.845650 0.033320 -0.504998
O24   O     O_R   0.006060 0.815720 0.028680 -0.493235
O25   O     O_R   0.028100 0.664460 0.032550 -0.504383
O26   O     O_R   0.811290 0.477490 0.029660 -0.493523

loop_
_geom_bond_atom_site_label_1
_geom_bond_atom_site_label_2
_ccdc_geom_bond_type
C25   C31   A    
Cr3   O20   S    
C41   H5    S    
C63   C65   A    
C33   H33   S    
Cr2   O12   S    
C27   C29   A    
C69   O25   A    
C6    H27   S    
C2    C7    A    
Cr5   O8    S    
C75   C76   A    
C10   C78   T    
C17   H29   S    
C39   C41   A    
C54   C60   A    
Cr6   O3    S    
C14   H28   S    
C57   H18   S    
Cr1   O1    S    
C12   C23   A    
C58   C66   S    
C26   C27   A    
C59   H21   S    
C45   C76   A    
C71   O3    A    
C36   C37   A    
C25   C40   S    
C30   C31   A    
Cr1   O22   S    
C5    H26   S    
Cr6   O2    S    
Cr6   O9    S    
C17   C20   A    
Cr2   O14   S    
C18   C19   A    
C41   C42   A    
C7    C10   S    
Cr6   O10   S    
C36   H35   S    
C26   H31   S    
Cr4   O6    S    
C12   H15   S    
Cr5   O25   S    
C61   C66   A    
C75   H1    S    
C35   C36   A    
C45   C56   S    
C8    C9    S    
C48   H7    S    
C70   O26   A    
C49   H10   S    
C30   H2    S    
C52   O17   A    
C16   C78   S    
C34   C75   A    
C62   H17   S    
Cr3   O21   S    
C39   C52   S    
C40   O12   A    
C59   C60   A    
C70   C77   S    
C35   H36   S    
C48   C53   A    
C28   O19   A    
C1    O13   A    
C44   C46   A    
Cr3   O15   S    
C15   C20   A    
C73   O9    A    
C72   O7    A    
C64   C67   T    
C19   C22   S    
C28   O18   A    
Cr4   O24   S    
C3    C8    A    
C15   H12   S    
C28   C54   S    
C63   H20   S    
C47   C51   A    
C50   C51   A    
C25   C26   A    
C32   H32   S    
C56   C77   T    
C72   O6    A    
C69   O24   A    
C43   C44   A    
Cr4   O5    S    
Cr5   O11   S    
C29   C30   A    
Cr5   O26   S    
C70   O2    A    
C47   C48   A    
C23   C34   A    
C35   C38   A    
C17   C18   A    
C32   C37   A    
C18   H23   S    
C9    C11   T    
C76   H3    S    
C4    O15   A    
Cr3   O22   S    
Cr1   O17   S    
C46   H13   S    
C49   C50   A    
Cr2   O22   S    
C39   C46   A    
Cr4   O23   S    
C47   H6    S    
C61   H16   S    
C1    C13   S    
C42   C43   A    
C65   H19   S    
Cr2   O19   S    
C74   O10   A    
C60   H22   S    
Cr3   O16   S    
C4    O14   A    
C27   H34   S    
C16   O1    A    
C4    C64   S    
C54   C55   A    
C31   H4    S    
C14   C19   A    
C33   C38   A    
Cr5   O7    S    
C12   C45   A    
C34   C67   S    
C5    C8    A    
C11   C69   S    
C50   H9    S    
C6    C7    A    
C73   O8    A    
Cr1   O4    S    
C63   C68   A    
Cr6   O11   S    
C52   O21   A    
C62   C68   A    
C32   C33   A    
C55   C57   A    
C2    C3    A    
C58   C59   A    
C1    O4    A    
C44   H11   S    
C23   H30   S    
C43   C51   S    
C57   C58   A    
C5    C6    A    
C71   O23   A    
C3    H25   S    
C49   C53   A    
C40   O20   A    
C55   H14   S    
C2    H24   S    
C13   C22   T    
C42   H8    S    
C61   C62   A    
Cr2   O13   S    
C74   O5    A    
Cr1   O18   S    
C20   C21   S    
C65   C66   A    
C21   C24   T    
C29   C37   S    
C14   C15   A    
Cr4   O11   S    
C53   C72   S    
C68   C74   S    
C24   C71   S    
C38   C73   S    
C16   O16   A    
