data_mof_unit_57287.cif
_audit_creation_date              2012-12-10T16:59:12-0500
_audit_creation_method            fapswitch 2.2
_symmetry_space_group_name_H-M    P1
_symmetry_Int_Tables_number       1
_space_group_crystal_system       triclinic
_cell_length_a                    7.841161
_cell_length_b                    8.577693
_cell_length_c                    27.555756
_cell_angle_alpha                 93.13561
_cell_angle_beta                  87.178231
_cell_angle_gamma                 92.570233
_cell_volume                      1846.70430723

loop_
_atom_site_label
_atom_site_type_symbol
_atom_type_description
_atom_site_fract_x
_atom_site_fract_y
_atom_site_fract_z
_atom_type_partial_charge
C1    C     C_R   0.544570 0.794087 0.498874 0.964967
C2    C     C_R   0.561706 0.573889 0.132437 -0.043221
C3    C     C_R   0.516212 0.520476 0.646678 -0.076035
C4    C     C_R   0.483518 0.473547 0.353428 -0.069695
C5    C     C_R   0.590189 0.603659 0.031151 0.012642
C6    C     C_R   0.451604 0.359010 0.968698 0.012555
C7    C     C_R   0.460257 0.338557 0.019208 0.026046
C8    C     C_R   0.581886 0.624412 0.980694 0.026621
C9    C     C_R   0.517021 0.464172 0.050450 0.062875
C10   C     C_R   0.522402 0.499762 0.949418 0.061759
C11   C     C_R   0.675040 0.713074 0.063448 0.115235
C12   C     C_R   0.455429 0.205911 0.501121 0.964809
C13   C     C_R   0.366201 0.249336 0.936533 0.115490
C14   C     C_R   0.649658 0.702571 0.113220 -0.176789
C15   C     C_R   0.384889 0.263369 0.886764 -0.177144
C16   C     C_R   0.504329 0.503620 0.593885 0.873303
C17   C     C_R   0.495600 0.495627 0.406121 0.873047
C18   C     C_R   0.614695 0.771325 0.961258 -0.142166
C19   C     C_R   0.428654 0.192035 0.039010 -0.142687
C20   C     C_2   0.568472 0.956945 0.498137 -0.378610
C21   C     C_2   0.431526 0.043053 0.501853 -0.378392
C22   C     C_R   0.597576 0.668999 0.827491 0.516763
C23   C     C_R   0.526945 0.518540 0.898561 -0.084268
C24   C     C_R   0.422890 0.302880 0.172694 0.513954
C25   C     C_R   0.477616 0.409332 0.817441 0.524174
C26   C     C_R   0.540262 0.563647 0.182508 0.529334
C27   C     C_R   0.675213 0.493729 0.718469 -0.141052
C28   C     C_R   0.604082 0.378653 0.275657 -0.146816
C29   C     C_R   0.663126 0.475795 0.668410 -0.221334
C30   C     C_R   0.616133 0.403185 0.325523 -0.214492
C31   C     C_R   0.382876 0.586697 0.675525 -0.200901
C32   C     C_R   0.336570 0.515165 0.330978 -0.225269
C33   C     C_R   0.393718 0.604478 0.725979 0.223489
C34   C     C_R   0.506170 0.448164 0.101419 -0.085737
C35   C     C_R   0.323319 0.490947 0.280750 0.229374
C36   C     C_R   0.540607 0.555748 0.747326 0.318233
C37   C     C_R   0.460123 0.424435 0.253008 0.324661
C38   C     C_3   0.015867 0.397508 0.440278 -0.485967
C39   C     C_3   0.984136 0.602619 0.559708 -0.484426
C40   C     C_3   0.247329 0.669969 0.756889 -0.851273
C41   C     C_3   0.165903 0.542071 0.257902 -0.839765
C42   C     C_3   0.675540 0.952532 0.894585 -0.713818
C43   C     C_3   0.363283 0.013449 0.106263 -0.711330
C44   C     C_R   0.587953 0.661207 0.878807 -0.033709
C45   C     C_R   0.442566 0.306720 0.121353 -0.035265
C46   C     C_R   0.626820 0.790866 0.911202 0.185735
C47   C     C_R   0.410815 0.174756 0.089188 0.186659
C48   C     C_R   0.467015 0.394687 0.867485 -0.041312
H1    H     H_    0.270120 0.623567 0.658825 0.154830
H2    H     H_    0.424098 0.087944 0.015335 0.169080
H3    H     H_    0.698766 0.005569 0.494498 0.183834
H4    H     H_    0.301232 0.994430 0.505491 0.183817
H5    H     H_    0.914605 0.322243 0.423111 0.173732
H6    H     H_    0.047885 0.494999 0.416237 0.185260
H7    H     H_    0.123805 0.321652 0.443958 0.211756
H8    H     H_    0.085425 0.677889 0.576864 0.174121
H9    H     H_    0.876219 0.678479 0.556009 0.211755
H10   H     H_    0.952079 0.505215 0.583773 0.184910
H11   H     H_    0.194936 0.581650 0.782240 0.246224
H12   H     H_    0.233814 0.570079 0.352210 0.157956
H13   H     H_    0.142120 0.702856 0.734410 0.239467
H14   H     H_    0.292604 0.775972 0.778258 0.264757
H15   H     H_    0.167223 0.513598 0.218142 0.244984
H16   H     H_    0.155758 0.670349 0.264189 0.258439
H17   H     H_    0.050790 0.482525 0.274718 0.230826
H18   H     H_    0.690202 0.039778 0.925583 0.222178
H19   H     H_    0.800044 0.951264 0.873612 0.278452
H20   H     H_    0.574702 0.993064 0.872033 0.257299
H21   H     H_    0.355676 0.924263 0.075554 0.221610
H22   H     H_    0.461144 0.976766 0.130517 0.258277
H23   H     H_    0.729828 0.368143 0.342115 0.160925
H24   H     H_    0.235702 0.013094 0.125586 0.279316
H25   H     H_    0.766569 0.422909 0.646977 0.161111
H26   H     H_    0.710362 0.330521 0.254087 0.150893
H27   H     H_    0.786143 0.453280 0.735193 0.152733
H28   H     H_    0.710112 0.790915 0.137058 0.211807
H29   H     H_    0.323173 0.175388 0.863067 0.211749
H30   H     H_    0.623925 0.874504 0.985229 0.169198
I1    I     I_    0.887537 0.865670 0.045375 -0.363716
I2    I     I_    0.161259 0.088613 0.954932 -0.367329
N1    N     N_R   0.541572 0.544485 0.798720 -0.352207
N2    N     N_R   0.470286 0.430775 0.201377 -0.357923
N3    N     N_2   0.950320 0.457960 0.486880 -0.007606
N4    N     N_2   0.049680 0.542040 0.513120 -0.007757
O1    O     O_R   0.389250 0.738570 0.503220 -0.608480
O2    O     O_2   0.356693 0.174879 0.194173 -0.550589
O3    O     O_2   0.590022 0.685384 0.212504 -0.545108
O4    O     O_2   0.422473 0.289894 0.787352 -0.548620
O5    O     O_R   0.610750 0.261430 0.496780 -0.608747
O6    O     O_R   0.678390 0.711630 0.494810 -0.632515
O7    O     O_R   0.321610 0.288370 0.505190 -0.632459
O8    O     O_R   0.355440 0.513440 0.575450 -0.621798
O9    O     O_R   0.644560 0.486560 0.424550 -0.620092
O10   O     O_R   0.644590 0.486500 0.567040 -0.639613
O11   O     O_R   0.355410 0.513500 0.432960 -0.641349
O12   O     O_2   0.661553 0.797922 0.806078 -0.557942
Zn1   Zn    Zn3+2 0.306940 0.517990 0.505620 0.945968
Zn2   Zn    Zn3+2 0.693060 0.482010 0.494380 0.946338

loop_
_geom_bond_atom_site_label_1
_geom_bond_atom_site_label_2
_ccdc_geom_bond_type
C42   H20   S    
C43   H24   S    
C38   N3    S    
C27   C29   A    
C12   O7    A    
C28   H26   S    
C30   H23   S    
C15   H29   S    
C1    O6    A    
C24   C45   A    
C35   C37   A    
C39   N4    S    
C5    C11   A    
C20   H3    S    
C11   C14   A    
C19   C47   A    
C29   H25   S    
O10   Zn2   S    
C39   H9    S    
C33   C36   A    
C40   H14   S    
C42   C46   S    
C3    C29   A    
C24   N2    A    
C22   C44   A    
C38   H7    S    
C39   H8    S    
C26   O3    S    
N3    Zn2   S    
C31   C33   A    
C17   O11   A    
C2    C34   A    
C13   I2    S    
C26   N2    A    
C40   H11   S    
C25   N1    A    
C15   C48   A    
C31   H1    S    
C27   H27   S    
C18   C46   A    
C44   C46   A    
O8    Zn1   S    
C45   C47   A    
C1    O1    A    
C33   C40   S    
C32   C35   A    
C12   O5    A    
N4    Zn1   S    
C41   H17   S    
C39   H10   S    
C12   C21   S    
C25   O4    S    
C8    C18   A    
C40   H13   S    
C14   H28   S    
C22   N1    A    
C5    C9    A    
N3    N4    D    
C38   H6    S    
C36   N1    S    
C18   H30   S    
C2    C26   A    
C34   C45   A    
O7    Zn1   S    
C3    C31   A    
C25   C48   A    
C4    C32   A    
C35   C41   S    
C11   I1    S    
C4    C17   S    
C16   O8    A    
C43   H22   S    
C7    C19   A    
C13   C15   A    
C42   H19   S    
C10   C23   A    
C37   N2    S    
C17   O9    A    
C41   H15   S    
C7    C9    A    
C1    C20   S    
C23   C48   A    
C22   O12   S    
C6    C10   A    
C5    C8    A    
O11   Zn1   S    
C6    C7    A    
C27   C36   A    
C16   O10   A    
O5    Zn2   S    
C28   C30   A    
C6    C13   A    
C19   H2    S    
C9    C34   A    
C38   H5    S    
C24   O2    S    
C28   C37   A    
C2    C14   A    
O1    Zn1   S    
C23   C44   A    
C20   C21   D    
C8    C10   A    
C42   H18   S    
C32   H12   S    
C41   H16   S    
C43   H21   S    
C43   C47   S    
O9    Zn2   S    
O6    Zn2   S    
C21   H4    S    
C4    C30   A    
C3    C16   S    
