data_mof_unit_10320.cif
_audit_creation_date              2012-12-10T16:56:32-0500
_audit_creation_method            fapswitch 2.2
_symmetry_space_group_name_H-M    P1
_symmetry_Int_Tables_number       1
_space_group_crystal_system       triclinic
_cell_length_a                    10.745447
_cell_length_b                    10.918844
_cell_length_c                    9.690806
_cell_angle_alpha                 90.202586
_cell_angle_beta                  90.112557
_cell_angle_gamma                 89.958905
_cell_volume                      1136.99193677

loop_
_atom_site_label
_atom_site_type_symbol
_atom_type_description
_atom_site_fract_x
_atom_site_fract_y
_atom_site_fract_z
_atom_type_partial_charge
C1    C     C_R   0.507233 0.265545 0.499705 0.877352
C2    C     C_3   0.878418 0.500449 0.500874 0.038175
C3    C     C_3   0.930446 0.623443 0.561706 -0.142878
C4    C     C_3   0.928252 0.486501 0.350887 -0.374404
C5    C     C_2   0.492659 0.933498 0.389059 -0.191805
C6    C     C_2   0.482136 0.866184 0.503195 -0.328512
C7    C     C_2   0.482090 0.066753 0.396643 -0.233443
C8    C     C_2   0.533708 0.134921 0.497963 -0.126852
C9    C     C_2   0.425064 0.432728 0.921661 -0.040165
C10   C     C_2   0.426902 0.430756 0.077420 -0.060720
C11   C     C_R   0.260067 0.499201 0.499707 0.768113
C12   C     C_R   0.495380 0.734551 0.500367 0.869519
C13   C     C_R   0.740188 0.500457 0.500089 0.782913
C14   C     C_3   0.071373 0.391333 0.590748 -0.145508
C15   C     C_3   0.927327 0.389318 0.584824 -0.415162
C16   C     C_3   0.074747 0.620931 0.560682 -0.463658
C17   C     C_3   0.070702 0.487685 0.349703 -0.353261
C18   C     C_3   0.122276 0.498109 0.499396 0.057443
Cu1   Cu    Cu3+1 0.500030 0.500020 0.638630 1.002329
Cu2   Cu    Cu3+1 0.499970 0.499980 0.361370 0.945948
H1    H     H_    0.098090 0.411661 0.699744 0.127717
H2    H     H_    0.893349 0.562625 0.285093 0.172820
H3    H     H_    0.109846 0.698813 0.497897 0.170534
H4    H     H_    0.899282 0.699228 0.492940 0.158402
H5    H     H_    0.502182 0.890968 0.288135 0.190954
H6    H     H_    0.463510 0.909109 0.602404 0.174585
H7    H     H_    0.425619 0.109865 0.317246 0.176214
H8    H     H_    0.357884 0.374335 0.869833 0.173827
H9    H     H_    0.564421 0.552320 0.894262 0.203013
H10   H     H_    0.363199 0.368699 0.128476 0.155123
H11   H     H_    0.557402 0.559624 0.106406 0.196420
H12   H     H_    0.892284 0.303110 0.536845 0.201917
H13   H     H_    0.889747 0.390933 0.691662 0.170394
H14   H     H_    0.113541 0.634044 0.666442 0.171058
H15   H     H_    0.102880 0.567094 0.287407 0.172092
H16   H     H_    0.106153 0.404142 0.297182 0.212265
H17   H     H_    0.894586 0.399147 0.304392 0.201804
N1    N     N_2   0.498630 0.498660 0.846910 -0.278913
N2    N     N_2   0.498590 0.498630 0.153040 -0.283046
O1    O     O_R   0.500020 0.321960 0.617040 -0.517572
O2    O     O_R   0.499980 0.321920 0.382900 -0.595795
O3    O     O_R   0.317710 0.500000 0.617070 -0.587602
O4    O     O_R   0.317670 0.499960 0.382930 -0.587420
O5    O     O_R   0.500020 0.678080 0.617100 -0.561181
O6    O     O_R   0.499980 0.678040 0.382960 -0.581112
O7    O     O_R   0.682330 0.500040 0.617070 -0.565013
O8    O     O_R   0.682290 0.500000 0.382930 -0.590231
C19   C     C_2   0.629819 0.086571 0.595243 0.354486
H18   H     H_    0.673329 0.998292 0.577567 0.123010
O9    O     O_2   0.664465 0.146814 0.694524 -0.523644
C20   C     C_2   0.126251 0.267218 0.554817 0.830106
O10   O     O_2   0.195566 0.216382 0.636904 -0.601890
O11   O     O_R   0.097271 0.210227 0.429411 -0.780496
H19   H     H_    0.140459 0.128231 0.418057 0.333313
C21   C     C_2   0.883632 0.651343 0.705519 0.392552
H20   H     H_    0.907483 0.591688 0.790906 0.069390
O12   O     O_2   0.819255 0.741572 0.727022 -0.543505

loop_
_geom_bond_atom_site_label_1
_geom_bond_atom_site_label_2
_ccdc_geom_bond_type
H9    N1    S    
C2    C4    S    
C21   H20   S    
C8    C19   S    
C11   C18   S    
C11   O4    A    
C17   H16   S    
C1    C8    S    
C4    H2    S    
C9    C10   S    
C14   C18   S    
Cu1   Cu2   S    
Cu1   O3    S    
C13   O8    A    
C19   O9    D    
C17   C18   S    
Cu2   N2    S    
Cu1   O7    S    
C15   H12   S    
C12   O5    A    
O11   H19   S    
Cu1   O5    S    
C2    C15   S    
C10   N2    D    
C3    H4    S    
C6    H6    S    
C5    H5    S    
C4    C17   S    
C14   H1    S    
C1    O2    A    
C19   H18   S    
Cu1   N1    S    
H11   N2    S    
C2    C3    S    
C16   H3    S    
C21   O12   D    
C14   C20   S    
C6    C12   S    
C5    C6    D    
Cu2   O8    S    
Cu1   O1    S    
C20   O10   D    
C7    C8    D    
Cu2   O4    S    
C7    H7    S    
C4    H17   S    
C11   O3    A    
C16   C18   S    
C5    C7    S    
C2    C13   S    
C10   H10   S    
C13   O7    A    
C9    N1    D    
C17   H15   S    
C1    O1    A    
C16   H14   S    
C14   C15   S    
C3    C21   S    
C15   H13   S    
C3    C16   S    
Cu2   O6    S    
C9    H8    S    
Cu2   O2    S    
C12   O6    A    
C20   O11   S    
