data_mof_unit_21578.cif
_audit_creation_date              2012-12-10T20:28:40-0500
_audit_creation_method            fapswitch 2.2
_symmetry_space_group_name_H-M    P1
_symmetry_Int_Tables_number       1
_space_group_crystal_system       triclinic
_cell_length_a                    10.625131
_cell_length_b                    10.665449
_cell_length_c                    9.870928
_cell_angle_alpha                 89.805994
_cell_angle_beta                  89.973534
_cell_angle_gamma                 89.93091
_cell_volume                      1118.58391458

loop_
_atom_site_label
_atom_site_type_symbol
_atom_type_description
_atom_site_fract_x
_atom_site_fract_y
_atom_site_fract_z
_atom_type_partial_charge
C1    C     C_R   0.505048 0.259938 0.500225 0.880403
C2    C     C_R   0.065753 0.612948 0.563651 0.098101
C3    C     C_R   0.128261 0.512624 0.499477 -0.101315
C4    C     C_R   0.064373 0.417994 0.431791 -0.222104
C5    C     C_R   0.935850 0.417994 0.431755 -0.220467
C6    C     C_R   0.871663 0.512543 0.499564 -0.097123
C7    C     C_R   0.541061 0.063269 0.621715 0.113671
C8    C     C_R   0.527960 0.128708 0.500039 -0.130492
C9    C     C_R   0.540942 0.065207 0.376470 -0.228640
C10   C     C_R   0.540330 0.935707 0.375978 -0.222932
C11   C     C_R   0.525806 0.871261 0.499005 -0.095022
C12   C     C_R   0.260515 0.503821 0.499997 0.873173
C13   C     C_R   0.538024 0.935211 0.620870 0.085512
C14   C     C_3   0.462661 0.927010 0.748532 -0.508213
C15   C     C_3   0.467703 0.069687 0.751741 -0.107522
C16   C     C_R   0.389497 0.503048 0.071271 0.217399
C17   C     C_R   0.608767 0.484005 0.071838 -0.145038
C18   C     C_R   0.608800 0.484187 0.928099 -0.158297
C19   C     C_R   0.389469 0.502965 0.928786 0.208828
C20   C     C_3   0.293588 0.605002 0.922887 -0.503883
C21   C     C_3   0.293771 0.605183 0.076716 -0.499244
C22   C     C_R   0.503940 0.740073 0.499707 0.855963
C23   C     C_R   0.739470 0.503760 0.499952 0.867452
C24   C     C_R   0.130842 0.714342 0.623427 -0.208453
C25   C     C_R   0.065052 0.812318 0.684422 -0.140511
C26   C     C_R   0.934072 0.812018 0.685126 -0.130239
C27   C     C_R   0.868461 0.713729 0.624857 -0.189011
C28   C     C_R   0.933832 0.612763 0.564039 0.093574
H1    H     H_    0.114368 0.342601 0.381465 0.151149
H2    H     H_    0.514409 0.878730 0.831461 0.206404
H3    H     H_    0.373207 0.113122 0.738171 0.149803
H4    H     H_    0.696907 0.474209 0.125468 0.158701
H5    H     H_    0.696939 0.474382 0.874452 0.165570
H6    H     H_    0.331150 0.692868 0.877602 0.208597
H7    H     H_    0.203140 0.572159 0.879086 0.214982
H8    H     H_    0.331662 0.693125 0.121047 0.212382
H9    H     H_    0.203429 0.572548 0.121327 0.209902
H10   H     H_    0.232387 0.719809 0.622038 0.144020
H11   H     H_    0.115827 0.889315 0.730023 0.128660
H12   H     H_    0.883123 0.888830 0.731153 0.128661
H13   H     H_    0.766871 0.718871 0.624744 0.148685
H14   H     H_    0.886088 0.342616 0.381368 0.151123
H15   H     H_    0.541219 0.114363 0.280285 0.171282
H16   H     H_    0.541045 0.887502 0.279536 0.171630
H17   H     H_    0.366189 0.890459 0.730731 0.173988
N1    N     N_R   0.499160 0.499140 0.142800 -0.105473
N2    N     N_R   0.499160 0.499180 0.857150 -0.110230
O1    O     O_R   0.500020 0.316790 0.614690 -0.621597
O2    O     O_R   0.500000 0.316760 0.385350 -0.619165
O3    O     O_R   0.316770 0.500020 0.614690 -0.621347
O4    O     O_R   0.316760 0.499980 0.385350 -0.614380
O5    O     O_R   0.500000 0.683240 0.614650 -0.625083
O6    O     O_R   0.499980 0.683210 0.385310 -0.619635
O7    O     O_R   0.683240 0.500020 0.614650 -0.630307
O8    O     O_R   0.683230 0.499980 0.385310 -0.622741
Zn1   Zn    Zn3+2 0.500010 0.500020 0.653130 0.927153
Zn2   Zn    Zn3+2 0.499990 0.499980 0.346870 0.938540
C29   C     C_3   0.540378 0.124447 0.873839 -0.347168
C30   C     C_3   0.682218 0.093861 0.876677 -0.321087
C31   C     C_3   0.743556 0.140914 0.006600 -0.908177
H18   H     H_    0.731437 0.243843 0.015953 0.261491
H19   H     H_    0.701277 0.093835 0.096157 0.260778
H20   H     H_    0.845807 0.119392 0.004506 0.250637
H21   H     H_    0.697708 0.991116 0.870126 0.216567
H22   H     H_    0.729583 0.139306 0.788918 0.222030
H23   H     H_    0.528707 0.227867 0.872318 0.215042
H24   H     H_    0.495378 0.089496 0.968409 0.193042

loop_
_geom_bond_atom_site_label_1
_geom_bond_atom_site_label_2
_ccdc_geom_bond_type
C24   H10   S    
C5    H14   S    
C1    O1    A    
C23   O8    A    
C16   C21   S    
O4    Zn2   S    
C22   O6    A    
C1    C8    S    
O3    Zn1   S    
C9    C10   A    
C27   H13   S    
C11   C22   S    
C12   O3    A    
C4    H1    S    
C7    C13   A    
C20   H6    S    
C18   N2    A    
C7    C15   S    
C17   C18   A    
C30   H21   S    
C24   C25   A    
C21   H9    S    
C30   C31   S    
C21   H8    S    
C13   C14   S    
C17   N1    A    
C15   H3    S    
C4    C5    A    
C11   C13   A    
C26   H12   S    
C26   C27   A    
C25   H11   S    
C14   H2    S    
C31   H20   S    
C6    C23   S    
C31   H19   S    
C18   H5    S    
N2    Zn1   S    
C29   H23   S    
C2    C3    A    
C14   H17   S    
O7    Zn1   S    
O8    Zn2   S    
N1    Zn2   S    
C2    C24   A    
C5    C6    A    
C15   C29   S    
C19   N2    A    
C9    H15   S    
C10   C11   A    
C10   H16   S    
C3    C4    A    
O5    Zn1   S    
C29   H24   S    
C7    C8    A    
C12   O4    A    
O2    Zn2   S    
C20   C21   S    
C23   O7    A    
C22   O5    A    
C16   N1    A    
C27   C28   A    
O1    Zn1   S    
C17   H4    S    
O6    Zn2   S    
C14   C15   S    
C31   H18   S    
C2    C28   A    
C3    C12   S    
C25   C26   A    
C30   H22   S    
C29   C30   S    
C1    O2    A    
C20   H7    S    
C6    C28   A    
C19   C20   S    
C8    C9    A    
C16   C19   A    
