data_mof_unit_36613.cif
_audit_creation_date              2012-12-11T15:20:19-0500
_audit_creation_method            fapswitch 2.2
_symmetry_space_group_name_H-M    P1
_symmetry_Int_Tables_number       1
_space_group_crystal_system       triclinic
_cell_length_a                    12.911736
_cell_length_b                    13.094415
_cell_length_c                    15.31677
_cell_angle_alpha                 116.044752
_cell_angle_beta                  63.341091
_cell_angle_gamma                 96.7475
_cell_volume                      2069.09942109

loop_
_atom_site_label
_atom_site_type_symbol
_atom_type_description
_atom_site_fract_x
_atom_site_fract_y
_atom_site_fract_z
_atom_type_partial_charge
C1    C     C_R   0.023205 0.833473 0.028708 -0.175603
C2    C     C_R   0.710217 0.422478 0.303957 0.007160
C3    C     C_R   0.634960 0.567149 0.030297 0.115961
C4    C     C_R   0.966394 0.828580 0.323148 -0.162792
C5    C     C_R   0.320369 0.582663 0.015447 -0.109820
C6    C     C_R   0.914043 0.196007 0.790214 -0.147827
C7    C     C_R   0.221788 0.437145 0.685553 -0.168973
C8    C     C_R   0.089256 0.249174 0.051846 0.535553
C9    C     C_R   0.992934 0.166949 0.953940 -0.181500
C10   C     C_R   0.322153 0.531099 0.779807 0.069726
C11   C     C_R   0.240758 0.485127 0.112103 -0.064788
C12   C     C_R   0.700296 0.405415 0.211582 -0.273078
C13   C     C_R   0.994721 0.295588 0.693234 -0.126445
C14   C     C_R   0.332399 0.547957 0.082968 0.036556
C15   C     C_R   0.945227 0.197325 0.693078 0.037764
C16   C     C_R   0.334277 0.448568 0.677600 0.071418
C17   C     C_R   0.073205 0.143112 0.981763 -0.096875
C18   C     C_R   0.905212 0.029054 0.447482 -0.162760
C19   C     C_R   0.899639 0.121440 0.539852 -0.175301
C20   C     C_R   0.940582 0.104449 0.603113 0.149246
C21   C     C_R   0.987373 0.998295 0.576185 -0.173937
C22   C     C_R   0.995842 0.907683 0.483258 -0.177705
C23   C     C_R   0.737881 0.583210 0.954671 -0.157750
C24   C     C_R   0.953751 0.923371 0.420220 0.140540
C25   C     C_R   0.635302 0.445042 0.494721 0.561642
C26   C     C_R   0.548363 0.429968 0.582159 -0.444561
C27   C     C_R   0.444510 0.392884 0.578596 -0.069446
C28   C     C_R   0.448950 0.318800 0.476389 0.479491
C29   C     C_R   0.544964 0.316399 0.382530 -0.103165
C30   C     C_R   0.631833 0.391264 0.392925 -0.043261
C31   C     C_2   0.422884 0.577895 0.119798 0.013566
C32   C     C_2   0.520428 0.611686 0.060497 -0.193234
C33   C     C_2   0.891475 0.965331 0.026831 -0.198850
C34   C     C_R   0.944797 0.719970 0.314883 0.458167
C35   C     C_2   0.860222 0.053529 0.125142 0.043932
C36   C     C_R   0.660245 0.483912 0.051476 -0.080695
C37   C     C_R   0.039858 0.819231 0.220367 0.015514
C38   C     C_R   0.811918 0.473310 0.295523 0.678691
C39   C     C_R   0.931723 0.747968 0.926084 0.495042
C40   C     C_R   0.950441 0.854513 0.992306 -0.016596
H1    H     H_    0.066352 0.896952 0.070026 0.148838
H2    H     H_    0.862054 0.136690 0.819615 0.098267
H3    H     H_    0.197219 0.387307 0.621489 0.152787
H4    H     H_    0.960156 0.104595 0.900369 0.124425
H5    H     H_    0.213552 0.461554 0.178000 0.149980
H6    H     H_    0.018022 0.327272 0.633059 0.115708
H7    H     H_    0.873729 0.039607 0.396966 0.122147
H8    H     H_    0.864537 0.205055 0.561757 0.129584
H9    H     H_    0.021641 0.986828 0.624612 0.125573
H10   H     H_    0.640669 0.354737 0.182558 0.148317
H11   H     H_    0.036605 0.825918 0.459627 0.149197
H12   H     H_    0.555551 0.464099 0.657121 0.170274
H13   H     H_    0.521003 0.645149 0.006994 0.113053
H14   H     H_    0.862007 0.973819 0.974168 0.105060
H15   H     H_    0.744120 0.634706 0.914484 0.175374
H16   H     H_    0.602037 0.443076 0.099844 0.106160
H17   H     H_    0.361741 0.651240 0.996298 0.096105
N1    N     N_R   0.037310 0.720000 0.995790 -0.072857
N2    N     N_R   0.946240 0.290860 0.848040 -0.035957
N3    N     N_R   0.146140 0.501160 0.788590 -0.048130
N4    N     N_R   0.025760 0.332690 0.063610 -0.088867
N5    N     N_R   0.962690 0.280000 0.004210 -0.068421
N6    N     N_R   0.209210 0.553840 0.847990 -0.062104
N7    N     N_R   0.175110 0.482040 0.063580 -0.050964
N8    N     N_R   0.996790 0.351810 0.788620 -0.039413
N9    N     N_R   0.790790 0.446160 0.152010 -0.072942
N10   N     N_R   0.824890 0.517960 0.936420 -0.038401
N11   N     N_R   0.003210 0.648190 0.211380 -0.096343
N12   N     N_R   0.774330 0.457010 0.995840 -0.049130
N13   N     N_R   0.053760 0.709140 0.151960 -0.071758
N14   N     N_R   0.853860 0.498840 0.211410 -0.127377
N15   N     N_R   0.974240 0.667310 0.936390 -0.070210
N16   N     N_R   0.225670 0.542990 0.004160 -0.049471
Ni1   Ni    Ni4+2 0.130310 0.630310 0.999970 0.191664
Ni2   Ni    Ni4+2 0.869690 0.369690 0.000030 0.194203
Ni3   Ni    Ni4+2 0.985640 0.509470 0.863740 0.257591
Ni4   Ni    Ni4+2 0.014360 0.490530 0.136260 0.241445
O1    O     O_3   0.155648 0.267042 0.105530 -0.792229
H18   H     H_    0.191233 0.191260 0.083531 0.308398
N17   N     N_3   0.404851 0.609778 0.800105 -0.227925
H19   H     H_    0.440536 0.636571 0.738321 0.114665
H20   H     H_    0.358743 0.684472 0.869043 0.093675
O2    O     O_3   0.715160 0.521730 0.511829 -0.692053
H21   H     H_    0.702448 0.553122 0.588150 0.317658
O3    O     O_3   0.363973 0.247126 0.465013 -0.778406
H22   H     H_    0.326978 0.230388 0.529095 0.312999
N18   N     N_3   0.554068 0.237891 0.277887 -0.210340
H23   H     H_    0.555926 0.155041 0.271109 0.146463
H24   H     H_    0.479479 0.253388 0.273245 0.147180
N19   N     N_3   0.413511 0.555927 0.206923 -0.206042
H25   H     H_    0.340260 0.606274 0.276736 0.114391
H26   H     H_    0.398291 0.470474 0.189084 0.102047
N20   N     N_3   0.884899 0.051229 0.206339 -0.210158
H27   H     H_    0.933225 0.119915 0.226570 0.127056
H28   H     H_    0.805182 0.068196 0.274918 0.107440
O4    O     O_3   0.883825 0.687778 0.397357 -0.750527
H29   H     H_    0.837739 0.756636 0.463925 0.327215
N21   N     N_3   0.123817 0.896922 0.197299 -0.221219
H30   H     H_    0.080327 0.978694 0.237984 0.111130
H31   H     H_    0.180270 0.898762 0.229892 0.121428
O5    O     O_3   0.884124 0.451140 0.330844 -0.688254
H32   H     H_    0.961404 0.475852 0.296063 0.331058
O6    O     O_3   0.900727 0.723916 0.844483 -0.789526
H33   H     H_    0.885506 0.796723 0.845369 0.305463

loop_
_geom_bond_atom_site_label_1
_geom_bond_atom_site_label_2
_ccdc_geom_bond_type
N18   H23   S    
N20   H27   S    
N16   Ni1   S    
C32   H13   S    
C3    C23   A    
C19   C20   A    
C14   C31   S    
N15   Ni3   S    
C2    C12   A    
C18   H7    S    
C10   N6    A    
C21   H9    S    
C13   N8    A    
O3    H22   S    
C28   O3    S    
C26   C27   A    
O5    H32   S    
N8    Ni3   S    
N3    N6    A    
C18   C24   A    
C28   C29   A    
C34   O4    S    
C38   O5    S    
C13   H6    S    
C4    C24   S    
C11   C14   A    
N11   Ni4   S    
C18   C19   A    
N7    Ni4   S    
C23   N10   A    
C1    C40   A    
C6    C15   A    
O2    H21   S    
N4    Ni4   S    
N13   Ni1   S    
N7    N16   A    
C7    H3    S    
C8    N4    A    
C16   C27   S    
N20   H28   S    
C21   C22   A    
C8    O1    S    
C3    C32   S    
C37   N21   S    
C35   N20   S    
C15   C20   S    
C4    C34   A    
C33   C40   S    
C9    N5    A    
N17   H20   S    
C11   N7    A    
C34   N11   A    
C39   C40   A    
C10   N17   S    
O1    H18   S    
C25   C30   A    
C25   C26   A    
C12   N9    A    
N3    Ni3   S    
N10   N12   A    
C29   C30   A    
C36   H16   S    
C26   H12   S    
C2    C38   A    
N19   H26   S    
N9    N14   A    
C39   N15   A    
C31   N19   S    
O4    H29   S    
C20   C21   A    
C39   O6    S    
C5    C14   A    
C9    C17   A    
C7    C16   A    
N21   H31   S    
C13   C15   A    
C22   C24   A    
N5    Ni2   S    
C11   H5    S    
N2    Ni2   S    
C7    N3    A    
N14   Ni4   S    
C36   N12   A    
N1    Ni1   S    
C1    H1    S    
C33   H14   S    
C38   N14   A    
C9    H4    S    
C19   H8    S    
C6    N2    A    
C31   C32   D    
N17   H19   S    
C12   H10   S    
C23   H15   S    
N6    Ni1   S    
C8    C17   A    
C5    H17   S    
C2    C30   S    
N18   H24   S    
C10   C16   A    
C1    N1    A    
N2    N8    A    
N1    N15   A    
N19   H25   S    
C3    C36   A    
N9    Ni2   S    
C33   C35   D    
N12   Ni2   S    
C5    N16   A    
N4    N5    A    
C29   N18   S    
C4    C37   A    
N11   N13   A    
N21   H30   S    
C6    H2    S    
O6    H33   S    
C25   O2    S    
N10   Ni3   S    
C37   N13   A    
C22   H11   S    
C27   C28   A    
