data_mof_unit_9824.cif
_audit_creation_date              2012-12-11T17:23:16-0500
_audit_creation_method            fapswitch 2.2
_symmetry_space_group_name_H-M    P1
_symmetry_Int_Tables_number       1
_space_group_crystal_system       triclinic
_cell_length_a                    22.415775
_cell_length_b                    7.093851
_cell_length_c                    19.383254
_cell_angle_alpha                 89.943651
_cell_angle_beta                  99.564877
_cell_angle_gamma                 89.894079
_cell_volume                      3039.35555365

loop_
_atom_site_label
_atom_site_type_symbol
_atom_type_description
_atom_site_fract_x
_atom_site_fract_y
_atom_site_fract_z
_atom_type_partial_charge
O1    O     O_R   0.443980 0.494320 0.557430 -0.532505
O2    O     O_R   0.556020 0.994320 0.442570 -0.531404
O3    O     O_R   0.441210 0.822520 0.414610 -0.537826
O4    O     O_R   0.558790 0.322520 0.585390 -0.537385
C1    C     C_R   0.426705 0.655625 0.388722 0.719316
C2    C     C_R   0.573213 0.155143 0.611325 0.718978
O5    O     O_R   0.436920 0.823940 0.555180 -0.539233
O6    O     O_R   0.563080 0.323940 0.444820 -0.538599
O7    O     O_R   0.551700 0.995760 0.584140 -0.534100
O8    O     O_R   0.448300 0.495760 0.415860 -0.534326
C3    C     C_R   0.421666 0.655437 0.574941 0.715540
C4    C     C_R   0.578249 0.155352 0.424958 0.715149
O9    O     O_3   0.537660 0.661290 0.509340 -0.370910
O10   O     O_3   0.462340 0.161290 0.490660 -0.372243
V1    V     V_3+5 0.493010 0.935560 0.498270 1.422763
V2    V     V_3+5 0.506990 0.435560 0.501730 1.423423
C5    C     C_R   0.741162 0.973431 0.193186 0.369613
C6    C     C_R   0.254954 0.454403 0.800613 0.407908
C7    C     C_R   0.791689 0.094713 0.202477 -0.016791
C8    C     C_R   0.205943 0.583201 0.794149 -0.030072
C9    C     C_R   0.797598 0.229415 0.256119 -0.219901
C10   C     C_R   0.200552 0.721426 0.741661 -0.250017
H1    H     H_    0.835755 0.325021 0.263543 0.151196
H2    H     H_    0.163057 0.819975 0.735503 0.144510
C11   C     C_R   0.754413 0.242552 0.300660 -0.261312
C12   C     C_R   0.243660 0.735943 0.697153 -0.255617
C13   C     C_R   0.704804 0.119703 0.293090 -0.018040
C14   C     C_R   0.293328 0.612974 0.704279 -0.027330
C15   C     C_R   0.698921 0.981291 0.240119 0.383350
C16   C     C_R   0.298730 0.470308 0.755902 0.407377
C17   C     C_1   0.837438 0.082041 0.157161 0.034302
C18   C     C_1   0.161401 0.576829 0.841165 0.011625
C19   C     C_1   0.660500 0.134859 0.340151 0.022416
C20   C     C_1   0.338414 0.632893 0.658385 0.017899
C21   C     C_1   0.623301 0.145608 0.379108 -0.190648
C22   C     C_1   0.376152 0.645503 0.620179 -0.193655
C23   C     C_1   0.875692 0.072042 0.119535 -0.184919
C24   C     C_1   0.123784 0.570521 0.879713 -0.200146
C25   C     C_R   0.631297 0.157306 0.805408 0.459715
C26   C     C_R   0.367390 0.687453 0.195362 0.460654
H3    H     H_    0.714827 0.135656 0.921239 0.159987
H4    H     H_    0.283430 0.679587 0.079706 0.178122
C27   C     C_R   0.615326 0.146520 0.678468 -0.103491
C28   C     C_R   0.384489 0.649496 0.321627 -0.103684
C29   C     C_R   0.910216 0.058482 0.760238 -0.165417
C30   C     C_R   0.090516 0.539144 0.239533 -0.163375
C31   C     C_R   0.873635 0.064618 0.694952 -0.125556
C32   C     C_R   0.127371 0.537554 0.304687 -0.125855
C33   C     C_R   0.811136 0.084528 0.689132 -0.157055
C34   C     C_R   0.189562 0.564912 0.310640 -0.157190
C35   C     C_R   0.783153 0.098902 0.749236 0.104799
C36   C     C_R   0.216929 0.595272 0.250820 0.105420
C37   C     C_R   0.821206 0.092471 0.816361 0.073936
C38   C     C_R   0.178530 0.598155 0.183867 0.071024
C39   C     C_R   0.718843 0.119468 0.744877 0.019882
C40   C     C_R   0.280965 0.622760 0.255294 0.019615
C41   C     C_R   0.694267 0.133678 0.807879 0.037520
C42   C     C_R   0.304835 0.654838 0.192648 0.030968
C43   C     C_R   0.732729 0.125676 0.872783 -0.173730
C44   C     C_R   0.266047 0.656076 0.127905 -0.159072
C45   C     C_R   0.794880 0.105577 0.876989 -0.208990
C46   C     C_R   0.204228 0.627958 0.123539 -0.209220
C47   C     C_R   0.677920 0.126521 0.680283 -0.225568
C48   C     C_R   0.322267 0.620194 0.319668 -0.225870
C49   C     C_R   0.592471 0.160518 0.740896 -0.242120
C50   C     C_R   0.406579 0.682010 0.259586 -0.244381
C51   C     C_R   0.885007 0.072399 0.821293 -0.081022
C52   C     C_R   0.115065 0.569616 0.178765 -0.082628
H5    H     H_    0.692992 0.116861 0.630452 0.104625
H6    H     H_    0.307715 0.597256 0.369243 0.104719
H7    H     H_    0.958679 0.042771 0.763200 0.101812
H8    H     H_    0.042362 0.516070 0.236439 0.105272
H9    H     H_    0.786112 0.088149 0.636698 0.105931
H10   H     H_    0.214848 0.561448 0.362946 0.105430
H11   H     H_    0.893952 0.053779 0.648184 0.117679
H12   H     H_    0.107536 0.514156 0.351227 0.117902
O11   O     O_R   0.051730 0.724670 0.084120 -0.533965
O12   O     O_R   0.948270 0.224670 0.915880 -0.533948
O13   O     O_R   0.063080 0.393540 0.944820 -0.536933
O14   O     O_R   0.936920 0.893540 0.055180 -0.532315
C53   C     C_R   0.078260 0.562014 0.924968 0.711705
C54   C     C_R   0.921699 0.062215 0.074952 0.710403
O15   O     O_R   0.058800 0.395030 0.085390 -0.535424
O16   O     O_R   0.941200 0.895030 0.914610 -0.536174
O17   O     O_R   0.943980 0.223310 0.057440 -0.533751
O18   O     O_R   0.056020 0.723310 0.942560 -0.535176
C55   C     C_R   0.073061 0.563320 0.111220 0.683015
C56   C     C_R   0.926958 0.063790 0.888807 0.680139
O19   O     O_3   0.962360 0.556290 0.990650 -0.367451
O20   O     O_3   0.037640 0.056290 0.009350 -0.370117
V3    V     V_3+5 0.006980 0.281990 0.001730 1.430250
V4    V     V_3+5 0.993020 0.781990 0.998270 1.434671
O21   O     O_3   0.649876 0.860615 0.231372 -0.544521
C57   C     C_3   0.667724 0.690348 0.266491 -0.191162
H13   H     H_    0.683102 0.713901 0.323458 0.112473
H14   H     H_    0.703696 0.617989 0.243174 0.167587
H15   H     H_    0.628113 0.594716 0.260905 0.164574
O22   O     O_3   0.349339 0.355247 0.766786 -0.528376
C58   C     C_3   0.338465 0.196711 0.722667 -0.191008
H16   H     H_    0.326956 0.237482 0.666560 0.108745
H17   H     H_    0.302250 0.106782 0.737749 0.141745
H18   H     H_    0.380331 0.110393 0.728631 0.168796
H19   H     H_    0.822293 0.100642 0.928530 0.110517
H20   H     H_    0.176553 0.630474 0.072129 0.115052
O23   O     O_3   0.734667 0.839329 0.140780 -0.548800
C59   C     C_3   0.698589 0.916557 0.080862 -0.175470
H21   H     H_    0.720141 0.043348 0.061758 0.116806
H22   H     H_    0.652389 0.951644 0.090948 0.163383
H23   H     H_    0.693722 0.809947 0.038474 0.160023
O24   O     O_3   0.263506 0.320009 0.853237 -0.528168
C60   C     C_3   0.221216 0.172479 0.836820 -0.200841
H24   H     H_    0.208115 0.146561 0.779562 0.088214
H25   H     H_    0.180109 0.200704 0.860097 0.145049
H26   H     H_    0.241735 0.040237 0.860584 0.176573
H27   H     H_    0.759874 0.348751 0.341342 0.144452
H28   H     H_    0.238556 0.845163 0.657488 0.142654
H29   H     H_    0.544137 0.174365 0.739642 0.132649
H30   H     H_    0.454592 0.704204 0.260959 0.133443
O25   O     O_3   0.607064 0.166128 0.866472 -0.558938
C61   C     C_3   0.594039 0.356144 0.879392 -0.235652
H31   H     H_    0.635283 0.445586 0.883645 0.130972
H32   H     H_    0.577455 0.364387 0.930133 0.178275
H33   H     H_    0.557727 0.412634 0.838379 0.154166
O26   O     O_3   0.390933 0.715020 0.134529 -0.553753
C62   C     C_3   0.401867 0.909225 0.127446 -0.214194
H34   H     H_    0.359801 0.993717 0.126544 0.134173
H35   H     H_    0.417702 0.932564 0.076858 0.183986
H36   H     H_    0.438020 0.960037 0.169682 0.142469

loop_
_geom_bond_atom_site_label_1
_geom_bond_atom_site_label_2
_ccdc_geom_bond_type
O15   C55   A    
O11   V4    S    
O4    V2    S    
O21   C57   S    
C29   H7    S    
C5    C15   A    
C32   H12   S    
C28   C50   A    
C60   H24   S    
O1    C3    A    
C7    C17   S    
C2    O7    A    
O17   V3    S    
C27   C47   A    
C31   C33   A    
C35   C39   A    
C13   C19   S    
O5    C3    A    
C51   C56   S    
C10   H2    S    
C3    C22   S    
C45   H19   S    
C34   H10   S    
C41   C43   A    
C11   H27   S    
C38   C52   A    
C59   H21   S    
C42   C44   A    
C25   C41   A    
C13   C15   A    
C44   C46   A    
O24   C60   S    
C5    C7    A    
C37   C45   A    
C47   H5    S    
C36   C38   A    
C14   C16   A    
C33   C35   A    
C39   C47   A    
C29   C51   A    
C62   H36   S    
C34   C36   A    
C40   C48   A    
C6    C16   A    
C48   H6    S    
O19   V3    S    
O13   V3    S    
C53   O18   A    
C61   H33   S    
O6    C4    A    
C32   C34   A    
O2    C4    A    
O6    V2    S    
C26   C50   A    
C25   C49   A    
C61   H32   S    
C46   H20   S    
C29   C31   A    
C26   O26   S    
C30   C32   A    
C43   C45   A    
C26   C42   A    
O16   C56   A    
H3    C43   S    
O14   C54   A    
H4    C44   S    
O13   C53   A    
C38   C46   A    
C57   H15   S    
C28   C48   A    
C17   C23   T    
O19   V4    S    
O14   V4    S    
C30   C52   A    
C5    O23   S    
O20   V4    S    
C58   H16   S    
C27   C49   A    
C60   H25   S    
O1    V2    S    
C4    C21   S    
C57   H14   S    
O2    V1    S    
O4    C2    A    
C58   H17   S    
C1    C28   S    
C8    C10   A    
C18   C24   T    
C2    C27   S    
C9    H1    S    
C24   C53   S    
C50   H30   S    
C62   H34   S    
C33   H9    S    
C23   C54   S    
O3    V1    S    
C61   H31   S    
C8    C18   S    
O12   C56   A    
C9    C11   A    
C7    C9    A    
C30   H8    S    
C6    O24   S    
O3    C1    A    
O25   C61   S    
O12   V3    S    
C11   C13   A    
C54   O17   A    
O15   V3    S    
O23   C59   S    
C16   O22   S    
C12   C14   A    
C39   C41   A    
O7    V1    S    
C31   H11   S    
C1    O8    A    
O8    V2    S    
C15   O21   S    
O20   V3    S    
C59   H22   S    
C25   O25   S    
O5    V1    S    
C19   C21   T    
C20   C22   T    
C40   C42   A    
C60   H26   S    
C6    C8    A    
C57   H13   S    
C37   C51   A    
C12   H28   S    
C14   C20   S    
C58   H18   S    
O11   C55   A    
O22   C58   S    
C10   C12   A    
O9    V2    S    
C62   H35   S    
C52   C55   S    
C49   H29   S    
O10   V1    S    
O18   V4    S    
O16   V4    S    
C35   C37   A    
C36   C40   A    
O26   C62   S    
C59   H23   S    
