data_mof_unit_56228.cif
_audit_creation_date              2012-12-11T16:24:14-0500
_audit_creation_method            fapswitch 2.2
_symmetry_space_group_name_H-M    P1
_symmetry_Int_Tables_number       1
_space_group_crystal_system       triclinic
_cell_length_a                    8.233118
_cell_length_b                    17.305024
_cell_length_c                    17.336573
_cell_angle_alpha                 97.484805
_cell_angle_beta                  96.341614
_cell_angle_gamma                 97.138965
_cell_volume                      2409.76637567

loop_
_atom_site_label
_atom_site_type_symbol
_atom_type_description
_atom_site_fract_x
_atom_site_fract_y
_atom_site_fract_z
_atom_type_partial_charge
Ba1   Ba    Ba6+2 0.160000 0.538340 0.465920 1.677168
Ba2   Ba    Ba6+2 0.650170 0.461650 0.534010 1.661550
C1    C     C_3   0.343974 0.759644 0.191851 -0.355759
C2    C     C_3   0.381078 0.724700 0.266851 0.349803
C3    C     C_3   0.537439 0.708177 0.665343 0.646823
C4    C     C_3   0.473461 0.787301 0.680350 -0.318531
C5    C     C_3   0.857172 0.245772 0.688800 0.357911
C6    C     C_3   0.813331 0.162473 0.705576 -0.370243
C7    C     C_3   0.395693 0.288272 0.734963 0.361135
C8    C     C_3   0.415435 0.262487 0.815607 -0.368187
C9    C     C_2   0.744035 0.723946 0.481961 -0.194711
C10   C     C_3   0.655567 0.777525 0.435094 -0.032774
C11   C     C_2   0.703523 0.863171 0.468291 -0.151065
C12   C     C_3   0.919874 0.748840 0.301758 0.364359
C13   C     C_2   0.853574 0.887414 0.510534 -0.064078
C14   C     C_2   0.955830 0.825711 0.532960 -0.136115
C15   C     C_1   0.889135 0.750655 0.524058 0.105480
C16   C     C_R   0.114216 0.139015 0.534330 -0.094488
C17   C     C_R   0.176391 0.218783 0.543508 -0.006893
C18   C     C_R   0.923930 0.246972 0.473590 0.000217
C19   C     C_R   0.858771 0.166544 0.465988 -0.152062
C20   C     C_R   0.952023 0.112059 0.498103 0.035703
C21   C     C_2   0.919081 0.973445 0.534363 0.399583
C22   C     C_2   0.883092 0.026641 0.485684 -0.088146
C23   C     C_3   0.936661 0.830390 0.277283 -0.367649
C24   C     C_R   0.079134 0.272640 0.516241 -0.265363
C25   C     C_R   0.605204 0.527014 0.281070 -0.262012
C26   C     C_R   0.445877 0.488581 0.254459 0.063593
C27   C     C_R   0.384970 0.480224 0.174584 -0.134452
C28   C     C_R   0.484279 0.509652 0.121218 -0.007239
C29   C     C_R   0.646045 0.547076 0.148357 -0.140943
C30   C     C_R   0.706476 0.555212 0.228437 0.009108
C31   C     C_R   0.415292 0.511188 0.835539 -0.125242
C32   C     C_R   0.360338 0.504418 0.755304 0.025596
C33   C     C_R   0.098490 0.433830 0.774835 0.007101
C34   C     C_3   0.698476 0.239204 0.288462 0.711513
C35   C     C_R   0.152927 0.440191 0.855541 -0.125663
C36   C     C_R   0.312809 0.478461 0.885981 0.004218
C37   C     C_1   0.370273 0.488566 0.969198 -0.001455
C38   C     C_1   0.421924 0.498268 0.038462 -0.000526
C39   C     C_R   0.204935 0.463480 0.725031 -0.285069
C40   C     C_3   0.822347 0.188788 0.255702 -0.400639
C41   C     C_3   0.051842 0.630858 0.707056 0.378013
C42   C     C_3   0.060802 0.647897 0.796158 0.215290
C43   C     C_3   0.235967 0.300206 0.357978 0.330245
C44   C     C_3   0.240863 0.212008 0.340947 -0.360540
H1    H     H_    0.309788 0.664853 0.260228 0.085194
H2    H     H_    0.893134 0.166689 0.304282 0.036832
H3    H     H_    0.756336 0.137140 0.214413 0.108087
H4    H     H_    0.910535 0.223368 0.224894 0.101706
H5    H     H_    0.167402 0.611243 0.690997 -0.069425
H6    H     H_    0.947851 0.583162 0.685521 0.021620
H7    H     H_    0.069317 0.592960 0.822276 -0.043325
H8    H     H_    0.945533 0.669817 0.811455 0.084674
H9    H     H_    0.106674 0.310535 0.359535 -0.009934
H10   H     H_    0.310476 0.322721 0.415736 0.055176
H11   H     H_    0.379655 0.721576 0.141621 0.077850
H12   H     H_    0.190915 0.189127 0.278940 0.134338
H13   H     H_    0.166816 0.180311 0.379587 0.043524
H14   H     H_    0.369413 0.199699 0.351814 0.130093
H15   H     H_    0.514855 0.719798 0.274022 -0.072493
H16   H     H_    0.415361 0.819347 0.197197 0.108162
H17   H     H_    0.479531 0.679462 0.606026 0.068809
H18   H     H_    0.530006 0.819859 0.738513 0.098140
H19   H     H_    0.504779 0.823565 0.634288 0.085306
H20   H     H_    0.337594 0.778099 0.679665 0.135866
H21   H     H_    0.210470 0.763841 0.180150 0.154855
H22   H     H_    0.858920 0.829168 0.220430 0.114054
H23   H     H_    0.782655 0.251570 0.633006 0.097135
H24   H     H_    0.990360 0.255119 0.681997 -0.058318
H25   H     H_    0.680492 0.150482 0.712201 0.158527
H26   H     H_    0.839260 0.120918 0.655747 0.089541
H27   H     H_    0.887686 0.153896 0.760411 0.103727
H28   H     H_    0.265041 0.296884 0.720548 -0.063451
H29   H     H_    0.477172 0.344976 0.737499 0.088171
H30   H     H_    0.381578 0.308131 0.859792 0.072201
H31   H     H_    0.545512 0.254055 0.832305 0.147329
H32   H     H_    0.999900 0.751838 0.358419 0.071600
H33   H     H_    0.333597 0.206286 0.815124 0.108025
H34   H     H_    0.797131 0.007110 0.432624 0.021502
H35   H     H_    0.083409 0.843253 0.559002 0.114710
H36   H     H_    0.195672 0.098632 0.552693 0.135688
H37   H     H_    0.622102 0.904758 0.452114 0.075246
H38   H     H_    0.736510 0.146142 0.434995 0.070098
H39   H     H_    0.703364 0.661129 0.467479 0.064127
H40   H     H_    0.128850 0.334383 0.523808 0.069441
H41   H     H_    0.534971 0.544287 0.858949 0.078399
H42   H     H_    0.789160 0.731801 0.309245 -0.077512
H43   H     H_    0.724939 0.568796 0.107559 0.081870
H44   H     H_    0.070358 0.417425 0.894334 0.075720
H45   H     H_    0.262482 0.448858 0.153795 0.081526
H46   H     H_    0.653134 0.532059 0.342475 0.078368
H47   H     H_    0.161944 0.460013 0.663211 0.063178
H48   H     H_    0.895635 0.872657 0.322478 0.067056
H49   H     H_    0.067370 0.850579 0.271241 0.140339
H50   H     H_    0.638095 0.205728 0.330358 -0.018163
O1    O     O_2   0.169780 0.691990 0.551040 -0.487084
O2    O     O_3   0.298197 0.335759 0.297401 -0.613451
O3    O     O_3   0.968045 0.695097 0.243778 -0.602955
O4    O     O_2   0.640500 0.307960 0.448930 -0.467210
O5    O     O_3   0.913680 0.405980 0.454370 -0.462249
O6    O     O_3   0.425430 0.355970 0.589750 -0.486928
O7    O     O_3   0.779355 0.314508 0.324456 -0.648778
O8    O     O_3   0.389690 0.539950 0.593560 -0.479401
O9    O     O_3   0.853010 0.395500 0.630820 -0.489725
O10   O     O_2   0.762429 0.443826 0.770566 -0.495554
O11   O     O_3   0.821643 0.299018 0.750847 -0.598198
O12   O     O_3   0.896620 0.594010 0.545570 -0.482632
O13   O     O_3   0.420600 0.460050 0.406370 -0.480588
O14   O     O_2   0.650040 0.537900 0.687840 -0.445244
O15   O     O_3   0.498839 0.663875 0.725143 -0.664836
O16   O     O_2   0.511907 0.217752 0.535272 -0.497040
O17   O     O_3   0.440757 0.230491 0.679800 -0.600457
O18   O     O_3   0.384860 0.644020 0.410190 -0.490900
O19   O     O_2   0.340323 0.784270 0.483292 -0.488418
O20   O     O_3   0.029225 0.699771 0.675551 -0.600706
O21   O     O_3   0.336384 0.773052 0.330651 -0.593961
O22   O     O_2   0.160250 0.462050 0.312130 -0.455424
O23   O     O_3   0.957280 0.604490 0.369120 -0.491384
O24   O     O_2   0.045199 0.553494 0.229001 -0.485985
P1    P     P_3+3 0.996700 0.679700 0.572930 1.029799
P2    P     P_3+3 0.328720 0.438370 0.322170 1.017294
P3    P     P_3+3 0.918973 0.600248 0.266948 0.959531
P4    P     P_3+3 0.813590 0.320290 0.427010 0.983376
P5    P     P_3+3 0.884483 0.394400 0.732478 0.938344
P6    P     P_3+3 0.428503 0.745991 0.417087 0.954847
P7    P     P_3+3 0.473875 0.562248 0.691986 0.962673
P8    P     P_3+3 0.389786 0.254287 0.585974 0.943815
O25   O     O_3   0.195386 0.705375 0.827547 -0.700486
H51   H     H_    0.293405 0.677569 0.833570 0.308841
O26   O     O_3   0.708350 0.721206 0.665800 -0.774293
H52   H     H_    0.757401 0.744359 0.720085 0.305200
O27   O     O_3   0.032939 0.997412 0.601225 -0.657346
C45   C     C_3   0.968508 0.973943 0.668192 0.261185
H53   H     H_    0.959246 0.909379 0.667619 0.056862
H54   H     H_    0.844115 0.991605 0.672915 0.027553
C46   C     C_3   0.085198 0.012718 0.740914 -0.320438
H55   H     H_    0.107832 0.077413 0.741712 0.121367
H56   H     H_    0.030859 0.999872 0.794485 0.069746
H57   H     H_    0.205119 0.989552 0.740893 0.127489
O28   O     O_3   0.569726 0.245405 0.228814 -0.646510
C47   C     C_3   0.618451 0.300360 0.179086 0.333682
H58   H     H_    0.735420 0.289627 0.155888 0.014343
H59   H     H_    0.633259 0.361353 0.210862 0.049553
C48   C     C_3   0.484925 0.293120 0.109522 -0.357060
H60   H     H_    0.366176 0.304721 0.130265 0.132827
H61   H     H_    0.520768 0.336365 0.070251 0.064256
H62   H     H_    0.468457 0.232918 0.075879 0.122899

loop_
_geom_bond_atom_site_label_1
_geom_bond_atom_site_label_2
_ccdc_geom_bond_type
Ba2   O13   S    
C44   H13   S    
C34   C40   S    
C47   C48   S    
O12   P1    S    
C34   O28   S    
C45   C46   S    
C48   H60   S    
C5    C6    S    
O17   P8    S    
C43   C44   S    
C46   H56   S    
O10   P5    D    
C4    H20   S    
C35   C36   A    
O19   P6    D    
C35   H44   S    
C34   O7    S    
C26   C27   A    
C33   C35   A    
C16   C17   A    
O6    P8    S    
C43   O2    S    
Ba1   O23   S    
C36   C37   S    
O18   P6    S    
C26   P2    S    
O13   P2    S    
C10   P6    S    
Ba2   O6    S    
C13   C14   S    
C17   P8    S    
C3    H17   S    
Ba1   Ba2   S    
O22   P2    D    
C4    H18   S    
C33   P5    S    
C17   C24   A    
Ba1   P2    S    
C6    H27   S    
O1    P1    D    
Ba1   O13   S    
C8    H30   S    
C42   H7    S    
C22   H34   S    
C4    H19   S    
C39   H47   S    
C43   H10   S    
C14   C15   D    
C29   H43   S    
C21   C22   D    
C7    C8    S    
O24   P3    D    
O14   P7    D    
C13   C21   S    
Ba2   O4    S    
C23   H48   S    
C19   C20   A    
C44   H12   S    
C30   P3    S    
C32   C39   A    
C5    H24   S    
C33   C39   A    
O7    P4    S    
C48   H61   S    
C8    H31   S    
C46   H57   S    
C6    H26   S    
O5    P4    S    
C18   P4    S    
O20   P1    S    
C21   O27   S    
C12   O3    S    
O11   P5    S    
Ba1   O1    S    
C37   C38   T    
C32   P7    S    
C45   H54   S    
C3    O15   S    
Ba2   O5    S    
C42   O25   S    
C2    H15   S    
O4    P4    D    
C41   C42   S    
C27   C28   A    
C41   O20   S    
C34   H50   S    
C29   C30   A    
C19   H38   S    
Ba2   O8    S    
C28   C29   A    
C24   H40   S    
C31   C32   A    
C28   C38   S    
C25   H46   S    
C40   H2    S    
C10   C11   S    
Ba1   O8    S    
C40   H4    S    
C1    H11   S    
C15   P1    S    
C23   H49   S    
Ba2   P4    S    
C11   C13   D    
O15   P7    S    
O27   C45   S    
C20   C22   S    
C2    O21   S    
C7    H28   S    
O26   H52   S    
Ba1   O5    S    
Ba1   O12   S    
C27   H45   S    
C48   H62   S    
O3    P3    S    
O25   H51   S    
O21   P6    S    
C1    H16   S    
O2    P2    S    
Ba2   O14   S    
C6    H25   S    
C44   H14   S    
C25   C30   A    
C16   C20   A    
C1    H21   S    
C9    C15   D    
C5    H23   S    
C8    H33   S    
C23   H22   S    
C45   H53   S    
O23   P3    S    
C46   H55   S    
C11   H37   S    
Ba2   O9    S    
C31   C36   A    
O9    P5    S    
C7    O17   S    
C31   H41   S    
C12   H42   S    
O28   C47   S    
C41   H5    S    
C3    C4    S    
O8    P7    S    
C18   C24   A    
C9    H39   S    
Ba2   O12   S    
C14   H35   S    
C16   H36   S    
C5    O11   S    
Ba1   O22   S    
C12   H32   S    
C12   C23   S    
C41   H6    S    
Ba1   P1    S    
O16   P8    D    
C40   H3    S    
C42   H8    S    
C3    O26   S    
C18   C19   A    
C43   H9    S    
Ba1   O18   S    
C25   C26   A    
C47   H58   S    
C7    H29   S    
C47   H59   S    
C1    C2    S    
C9    C10   S    
C2    H1    S    
