data_mof_unit_34729.cif
_audit_creation_date              2013-03-05T16:41:04-0500
_audit_creation_method            fapswitch 2.2
_symmetry_space_group_name_H-M    P1
_symmetry_Int_Tables_number       1
_space_group_crystal_system       triclinic
_cell_length_a                    8.60663
_cell_length_b                    10.775745
_cell_length_c                    9.89943
_cell_angle_alpha                 87.508654
_cell_angle_beta                  99.331469
_cell_angle_gamma                 91.676617
_cell_volume                      904.865908425

loop_
_atom_site_label
_atom_site_type_symbol
_atom_site_description
_atom_site_fract_x
_atom_site_fract_y
_atom_site_fract_z
_atom_type_partial_charge
O1    O     O_R   0.500020 0.316790 0.614690 -0.628237
O2    O     O_R   0.500000 0.316760 0.385350 -0.633522
C1    C     C_R   0.503595 0.259865 0.503126 0.884176
O3    O     O_R   0.271760 0.500010 0.587850 -0.623383
O4    O     O_R   0.271740 0.499970 0.358500 -0.587615
C2    C     C_R   0.201349 0.491881 0.464596 0.958871
Zn1   Zn    Zn3+2 0.500010 0.500020 0.653130 1.043686
Zn2   Zn    Zn3+2 0.499990 0.499980 0.346870 1.037653
O5    O     O_R   0.500000 0.683240 0.614650 -0.589224
O6    O     O_R   0.499980 0.683210 0.385310 -0.574322
O7    O     O_R   0.728260 0.500030 0.641500 -0.572106
O8    O     O_R   0.728240 0.499990 0.412150 -0.637059
C3    C     C_R   0.504930 0.739728 0.497595 0.958185
C4    C     C_R   0.798696 0.497553 0.536217 0.959671
C5    C     C_2   0.037421 0.466528 0.450906 -0.240689
C6    C     C_2   0.964592 0.501436 0.552938 -0.329609
H1    H     H_    0.025830 0.546417 0.643285 0.232141
C7    C     C_R   0.498795 0.053771 0.623358 0.059887
C8    C     C_R   0.525974 0.128451 0.510126 -0.149408
C9    C     C_R   0.580636 0.073345 0.400464 -0.179326
H2    H     H_    0.616086 0.129668 0.316775 0.200873
C10   C     C_R   0.578673 0.944454 0.392495 0.323266
C11   C     C_R   0.521009 0.871651 0.496297 -0.169085
C12   C     C_R   0.489527 0.928291 0.611163 -0.010197
C13   C     C_3   0.360822 0.906059 0.694084 0.083610
C14   C     C_3   0.374635 0.045652 0.716384 0.073791
H3    H     H_    0.397594 0.846039 0.787618 0.192702
C15   C     C_R   0.372505 0.454784 0.055080 0.165486
N1    N     N_R   0.498950 0.499140 0.142680 -0.161859
C16   C     C_R   0.620830 0.552581 0.087288 -0.095213
H4    H     H_    0.718410 0.594572 0.154072 0.203383
C17   C     C_R   0.621555 0.553399 0.943757 0.340094
N2    N     N_R   0.498950 0.499180 0.857030 -0.171527
C18   C     C_R   0.370002 0.460237 0.911554 0.111205
C19   C     C_3   0.301357 0.334927 0.892478 -0.469466
C20   C     C_3   0.318551 0.321322 0.047056 0.122523
H5    H     H_    0.178682 0.337700 0.836326 0.240995
H6    H     H_    0.381835 0.279699 0.845967 0.222062
H7    H     H_    0.411639 0.255905 0.094353 0.168354
C21   C     C_1   0.963428 0.383716 0.346128 0.317656
N3    N     N_1   0.899083 0.316937 0.265983 -0.059002
N4    N     N_R   0.751765 0.612229 0.891527 0.235464
O9    O     O_R   0.730686 0.715810 0.819521 -0.323463
O10   O     O_R   0.894385 0.583154 0.946232 -0.322366
N5    N     N_R   0.168449 0.297167 0.094115 0.242656
O11   O     O_R   0.152778 0.200477 0.174525 -0.313597
O12   O     O_R   0.045278 0.360825 0.042335 -0.336258
N6    N     N_R   0.627254 0.891350 0.276404 0.217345
O13   O     O_R   0.521280 0.850213 0.178634 -0.297741
O14   O     O_R   0.770170 0.912395 0.252741 -0.288535
N7    N     N_R   0.211569 0.864313 0.613109 0.204463
O15   O     O_R   0.120160 0.786367 0.668826 -0.338043
O16   O     O_R   0.168416 0.903987 0.486762 -0.340381
C22   C     C_1   0.232121 0.117754 0.665055 0.269423
N8    N     N_1   0.120315 0.173708 0.624205 -0.169038
N9    N     N_R   0.438612 0.066699 0.860285 0.182815
O17   O     O_R   0.583513 0.105689 0.896335 -0.329027
O18   O     O_R   0.353835 0.036688 0.954835 -0.313136

loop_
_geom_bond_atom_site_label_1
_geom_bond_atom_site_label_2
_geom_bond_distance
_ccdc_geom_bond_type
O4    Zn2   1.986379 S    
C10   N6    1.431783 S    
C11   C12   1.381623 A    
C13   N7    1.469238 S    
C1    C8    1.431890 S    
N1    C16   1.362496 A    
C13   H3    1.113863 S    
C8    C9    1.410839 A    
C7    C14   1.517981 S    
Zn2   O8    1.965970 S    
C17   N2    1.380463 A    
N6    O14   1.300680 A    
N2    C18   1.358834 A    
C2    C5    1.414995 S    
C15   C18   1.416180 A    
C20   N5    1.455559 S    
O1    Zn1   2.026959 S    
N5    O11   1.300724 A    
C9    H2    1.084087 S    
Zn1   O7    1.986379 S    
Zn1   N2    2.019618 S    
C3    C11   1.423949 S    
C16   H4    1.082065 S    
N4    O10   1.300121 A    
O3    Zn1   1.965970 S    
C7    C12   1.361606 A    
Zn2   N1    2.020345 S    
C14   C22   1.478389 S    
Zn2   O6    2.026958 S    
C15   N1    1.365408 A    
C19   H5    1.111179 S    
N9    O18   1.301687 A    
O2    C1    1.289751 A    
N5    O12   1.301090 A    
O4    C2    1.293453 A    
O7    C4    1.289471 A    
C4    C6    1.410049 S    
C5    C21   1.452844 S    
N4    O9    1.299071 A    
C9    C10   1.394008 A    
C5    C6    1.344154 D    
C16   C17   1.421540 A    
Zn1   O5    1.994420 S    
C19   H6    1.094209 S    
O5    C3    1.291585 A    
C12   C13   1.490134 S    
C15   C20   1.499701 S    
O3    C2    1.276743 A    
C18   C19   1.465381 S    
N6    O13   1.300968 A    
N9    O17   1.302775 A    
C17   N4    1.429318 S    
C22   N8    1.157418 T    
C7    C8    1.397996 A    
C21   N3    1.156625 T    
O1    C1    1.291501 A    
C13   C14   1.528212 S    
C10   C11   1.410742 A    
O6    C3    1.284631 A    
C20   H7    1.113882 S    
O2    Zn2   1.994419 S    
N7    O15   1.300159 A    
O8    C4    1.278072 A    
C6    H1    1.087434 S    
N7    O16   1.302797 A    
C19   C20   1.514378 S    
C14   N9    1.466407 S    
