data_mof_unit_50188.cif
_audit_creation_date              2012-12-10T18:53:49-0500
_audit_creation_method            fapswitch 2.2
_symmetry_space_group_name_H-M    P1
_symmetry_Int_Tables_number       1
_space_group_crystal_system       triclinic
_cell_length_a                    19.34068
_cell_length_b                    18.166286
_cell_length_c                    10.818064
_cell_angle_alpha                 89.790513
_cell_angle_beta                  90.560334
_cell_angle_gamma                 90.213626
_cell_volume                      3800.6755764

loop_
_atom_site_label
_atom_site_type_symbol
_atom_type_description
_atom_site_fract_x
_atom_site_fract_y
_atom_site_fract_z
_atom_type_partial_charge
C1    C     C_R   0.367860 0.500019 0.500352 0.846568
C2    C     C_R   0.632150 0.500216 0.499776 0.862615
C3    C     C_R   0.814157 0.508635 0.383194 -0.289009
C4    C     C_R   0.184388 0.488987 0.609264 -0.208098
C5    C     C_R   0.741535 0.511253 0.383868 0.460204
C6    C     C_R   0.256947 0.491279 0.612411 0.432212
C7    C     C_R   0.707215 0.500922 0.496597 -0.102897
C8    C     C_R   0.292788 0.500416 0.501040 -0.104745
C9    C     C_R   0.964158 0.555249 0.437966 -0.255713
C10   C     C_R   0.035999 0.554958 0.438926 -0.247843
C11   C     C_R   0.072367 0.496476 0.493470 -0.051700
C12   C     C_R   0.927368 0.497209 0.491961 -0.054513
C13   C     C_R   0.035711 0.435969 0.543692 0.368519
C14   C     C_R   0.963140 0.436549 0.542995 0.375635
C15   C     C_R   0.440676 0.720272 0.471867 -0.081779
C16   C     C_R   0.558325 0.721535 0.531587 -0.118588
C17   C     C_R   0.436723 0.797800 0.481069 0.322724
C18   C     C_R   0.560192 0.799815 0.529078 0.362614
C19   C     C_R   0.498033 0.838073 0.503814 0.035924
C20   C     C_R   0.512368 0.959888 0.613882 0.423324
C21   C     C_R   0.479629 0.960707 0.395879 0.397960
C22   C     C_R   0.498259 0.500027 0.262052 0.829362
C23   C     C_R   0.498604 0.499832 0.737872 0.806589
C24   C     C_R   0.513312 0.038027 0.612283 -0.258997
C25   C     C_R   0.483897 0.038288 0.395362 -0.249631
C26   C     C_R   0.498963 0.078116 0.503457 0.094652
C27   C     C_R   0.496850 0.920927 0.504257 0.028168
C28   C     C_R   0.446657 0.201237 0.440304 0.302673
C29   C     C_R   0.553005 0.201505 0.562467 0.304760
C30   C     C_R   0.447694 0.279039 0.443287 -0.050085
C31   C     C_R   0.552169 0.279391 0.557614 -0.058209
C32   C     C_R   0.499635 0.161317 0.502130 -0.023315
C33   C     C_R   0.480897 0.564653 0.062581 0.103203
C34   C     C_R   0.481490 0.564467 0.935501 0.121522
C35   C     C_R   0.490263 0.499360 0.128968 -0.092850
C36   C     C_R   0.490747 0.499063 0.870603 -0.088078
C37   C     C_R   0.488551 0.432175 0.064643 -0.221062
C38   C     C_R   0.488760 0.432034 0.935842 -0.204080
C39   C     C_3   0.519226 0.636182 0.928795 -0.467844
C40   C     C_3   0.518533 0.636469 0.069223 -0.462012
C41   C     C_R   0.744454 0.492705 0.607159 -0.337398
C42   C     C_R   0.256965 0.512752 0.390117 -0.290713
C43   C     C_R   0.816354 0.493139 0.606117 -0.099838
C44   C     C_R   0.185067 0.512814 0.388347 -0.190828
C45   C     C_R   0.851479 0.500282 0.494059 0.095075
C46   C     C_R   0.148376 0.499830 0.497445 0.072300
Cu1   Cu    Cu3+1 0.500000 0.573360 0.500000 0.924875
Cu2   Cu    Cu3+1 0.500000 0.426640 0.500000 0.955578
H1    H     H_    0.491023 0.379944 0.113085 0.162703
H2    H     H_    0.491372 0.379756 0.888307 0.163332
H3    H     H_    0.486972 0.680359 0.886702 0.208753
H4    H     H_    0.570714 0.630968 0.111389 0.209030
H5    H     H_    0.717755 0.485987 0.694094 0.150797
H6    H     H_    0.284764 0.521539 0.304799 0.146599
H7    H     H_    0.844660 0.487057 0.692413 0.165694
H8    H     H_    0.157991 0.521184 0.301335 0.147382
H9    H     H_    0.841805 0.510700 0.296755 0.135476
H10   H     H_    0.156104 0.478474 0.693426 0.164648
H11   H     H_    0.937107 0.601767 0.397658 0.165575
H12   H     H_    0.063403 0.601472 0.399616 0.165732
N1    N     N_R   0.500000 0.683620 0.500000 -0.204541
N2    N     N_R   0.500000 0.316380 0.500000 -0.212023
O1    O     O_R   0.400190 0.561980 0.499980 -0.609082
O2    O     O_R   0.599810 0.561980 0.500020 -0.599098
O3    O     O_R   0.400190 0.438070 0.500040 -0.569798
O4    O     O_R   0.599810 0.438070 0.499960 -0.577355
O5    O     O_R   0.500000 0.561960 0.319660 -0.577286
O6    O     O_R   0.500000 0.561960 0.680340 -0.585798
O7    O     O_R   0.500000 0.438060 0.319720 -0.583209
O8    O     O_R   0.500000 0.438060 0.680280 -0.577997
H13   H     H_    0.395745 0.689125 0.444247 0.156433
H14   H     H_    0.603200 0.690412 0.558792 0.156836
O9    O     O_3   0.375425 0.836509 0.461976 -0.629247
C47   C     C_3   0.316577 0.801006 0.512186 0.034165
H15   H     H_    0.286688 0.843059 0.563148 0.163629
H16   H     H_    0.328970 0.757506 0.581875 0.132279
C48   C     C_3   0.270420 0.771217 0.407539 -0.357280
H17   H     H_    0.248846 0.818240 0.353845 0.213022
H18   H     H_    0.301200 0.737276 0.343211 0.212995
C49   C     C_3   0.211057 0.724545 0.457479 -0.905825
H19   H     H_    0.231505 0.674961 0.505417 0.258785
H20   H     H_    0.177325 0.706233 0.379729 0.251991
H21   H     H_    0.179562 0.757038 0.522869 0.253173
O10   O     O_3   0.618877 0.841755 0.558501 -0.574727
C50   C     C_3   0.682521 0.805659 0.539033 0.066762
H22   H     H_    0.720032 0.847511 0.505654 0.163936
H23   H     H_    0.679854 0.763903 0.464372 0.121809
C51   C     C_3   0.710738 0.774029 0.661140 -0.350639
H24   H     H_    0.728625 0.820008 0.721112 0.221272
H25   H     H_    0.669508 0.744060 0.711579 0.215238
C52   C     C_3   0.770830 0.721622 0.639094 -0.927650
H26   H     H_    0.752970 0.673187 0.584945 0.257722
H27   H     H_    0.791689 0.701853 0.729199 0.258358
H28   H     H_    0.812810 0.750199 0.588336 0.256989
O11   O     O_3   0.533256 0.919478 0.716936 -0.556662
C53   C     C_3   0.502777 0.943428 0.827971 0.064103
H29   H     H_    0.475654 0.895517 0.869480 0.151920
H30   H     H_    0.462501 0.986697 0.816231 0.079001
C54   C     C_3   0.559322 0.970056 0.917491 -0.355800
H31   H     H_    0.591700 0.012420 0.871404 0.209123
H32   H     H_    0.535220 0.995902 0.999130 0.171636
C55   C     C_3   0.605401 0.906834 0.961454 -0.728763
H33   H     H_    0.574207 0.864618 0.010600 0.239439
H34   H     H_    0.645506 0.928265 0.026190 0.222715
H35   H     H_    0.631571 0.880875 0.881816 0.274086
O12   O     O_3   0.464099 0.923045 0.287758 -0.606389
C56   C     C_3   0.396221 0.940020 0.245484 0.129653
H36   H     H_    0.366903 0.978090 0.306577 0.149637
H37   H     H_    0.366146 0.887871 0.241334 0.186598
C57   C     C_3   0.399081 0.971885 0.114913 -0.403804
H38   H     H_    0.431555 0.022361 0.114418 0.202778
H39   H     H_    0.422757 0.930607 0.053333 0.221695
C58   C     C_3   0.327090 0.990668 0.065522 -0.947144
H40   H     H_    0.294188 0.940450 0.062170 0.258012
H41   H     H_    0.331262 0.013556 0.970560 0.256872
H42   H     H_    0.302271 0.032365 0.125238 0.262014
H43   H     H_    0.525709 0.067628 0.696067 0.155149
H44   H     H_    0.476128 0.067375 0.309126 0.157399
O13   O     O_3   0.390628 0.163794 0.389108 -0.606654
C59   C     C_3   0.379268 0.184115 0.263760 0.028214
H45   H     H_    0.382661 0.133602 0.206924 0.159961
H46   H     H_    0.418246 0.223338 0.225422 0.117536
C60   C     C_3   0.306518 0.215633 0.248088 -0.339534
H47   H     H_    0.268017 0.173405 0.276424 0.228356
H48   H     H_    0.300569 0.264594 0.308209 0.211629
C61   C     C_3   0.292090 0.237921 0.114201 -0.914309
H49   H     H_    0.329064 0.281334 0.084557 0.258027
H50   H     H_    0.238767 0.259949 0.105813 0.258443
H51   H     H_    0.296754 0.189504 0.052420 0.257567
O14   O     O_3   0.609080 0.164036 0.613256 -0.600182
C62   C     C_3   0.623999 0.187089 0.735869 0.042957
H52   H     H_    0.624287 0.137399 0.795918 0.150663
H53   H     H_    0.584818 0.224921 0.776001 0.114303
C63   C     C_3   0.696031 0.222119 0.741732 -0.341218
H54   H     H_    0.735118 0.180863 0.713716 0.230690
H55   H     H_    0.698784 0.269349 0.676635 0.212839
C64   C     C_3   0.713508 0.249226 0.871664 -0.919697
H56   H     H_    0.676057 0.291973 0.900366 0.257118
H57   H     H_    0.766212 0.273700 0.872706 0.260131
H58   H     H_    0.712204 0.202725 0.938580 0.257112
H59   H     H_    0.406281 0.309830 0.400106 0.148468
H60   H     H_    0.593488 0.310674 0.600094 0.149091
H61   H     H_    0.571963 0.630744 0.889819 0.194213
H62   H     H_    0.486059 0.680924 0.108205 0.204196
O15   O     O_3   0.702704 0.516006 0.275331 -0.624899
C65   C     C_3   0.719133 0.580198 0.206585 0.047224
H63   H     H_    0.691655 0.575783 0.116244 0.168369
H64   H     H_    0.774960 0.584144 0.184347 0.129873
C66   C     C_3   0.694650 0.650490 0.271163 -0.384670
H65   H     H_    0.639296 0.644832 0.295979 0.245425
H66   H     H_    0.725155 0.658789 0.357464 0.204478
C67   C     C_3   0.703819 0.718011 0.188357 -0.934534
H67   H     H_    0.759397 0.726455 0.167438 0.257859
H68   H     H_    0.684264 0.767638 0.236066 0.257845
H69   H     H_    0.674457 0.711290 0.100365 0.257458
O16   O     O_3   0.293760 0.479348 0.721359 -0.618819
C68   C     C_3   0.282331 0.537018 0.806616 0.032840
H70   H     H_    0.303252 0.518564 0.897556 0.178114
H71   H     H_    0.226452 0.548168 0.820861 0.128425
C69   C     C_3   0.320392 0.607886 0.768901 -0.357134
H72   H     H_    0.375415 0.595414 0.751352 0.247622
H73   H     H_    0.297273 0.630347 0.682466 0.201460
C70   C     C_3   0.316372 0.666379 0.869350 -0.939023
H74   H     H_    0.261613 0.680843 0.887038 0.256949
H75   H     H_    0.344300 0.716690 0.838857 0.250588
H76   H     H_    0.340767 0.646096 0.956346 0.259438
O17   O     O_3   0.069582 0.377438 0.599411 -0.593929
C71   C     C_3   0.096512 0.330637 0.507640 0.057742
H77   H     H_    0.145569 0.353837 0.471386 0.163288
H78   H     H_    0.059638 0.322557 0.428812 0.104986
C72   C     C_3   0.111705 0.255628 0.565849 -0.300987
H79   H     H_    0.146882 0.262860 0.646823 0.233711
H80   H     H_    0.062629 0.230519 0.598472 0.219422
C73   C     C_3   0.145572 0.203976 0.473753 -0.939652
H81   H     H_    0.111457 0.195817 0.391714 0.253064
H82   H     H_    0.155014 0.149720 0.518247 0.262213
H83   H     H_    0.195861 0.227192 0.443755 0.260091
O18   O     O_3   0.927394 0.378814 0.596906 -0.592661
C74   C     C_3   0.904588 0.329384 0.504113 0.068187
H84   H     H_    0.945394 0.287651 0.488501 0.147986
H85   H     H_    0.892417 0.356955 0.414036 0.125613
C75   C     C_3   0.839184 0.290260 0.548115 -0.329786
H86   H     H_    0.850530 0.260003 0.635437 0.224992
H87   H     H_    0.798589 0.331792 0.566699 0.232191
C76   C     C_3   0.811970 0.236214 0.451339 -0.920779
H88   H     H_    0.799078 0.265692 0.364007 0.263115
H89   H     H_    0.764403 0.208897 0.485616 0.271701
H90   H     H_    0.851275 0.193349 0.432614 0.254631

loop_
_geom_bond_atom_site_label_1
_geom_bond_atom_site_label_2
_ccdc_geom_bond_type
C39   H3    S    
C72   H79   S    
C26   C32   S    
C61   H49   S    
C1    C8    S    
C56   H37   S    
O9    C47   S    
O11   C53   S    
C16   H14   S    
Cu2   O7    S    
C8    C42   A    
C62   C63   S    
C25   H44   S    
C63   C64   S    
O15   C65   S    
C60   H47   S    
C4    C46   A    
C50   H22   S    
C22   C35   S    
C72   H80   S    
C24   H43   S    
C68   H70   S    
C30   H59   S    
C47   H16   S    
O16   C68   S    
C70   H75   S    
C13   O17   S    
C24   C26   A    
C65   H63   S    
C29   C32   A    
C66   H66   S    
Cu1   O1    S    
C76   H89   S    
O12   C56   S    
C53   C54   S    
C11   C13   A    
C55   H35   S    
C18   C19   A    
C57   H38   S    
C2    C7    S    
C17   C19   A    
C73   H81   S    
C71   C72   S    
C20   C24   A    
C44   C46   A    
C47   C48   S    
C53   H30   S    
Cu1   Cu2   S    
C1    O3    A    
C56   H36   S    
C51   C52   S    
Cu2   O3    S    
C19   C27   S    
C9    C10   A    
C22   O7    A    
C21   O12   S    
C59   C60   S    
C58   H42   S    
C71   H78   S    
C21   C27   A    
C68   H71   S    
C13   C14   A    
C17   O9    S    
C41   C43   A    
C31   N2    A    
C42   C44   A    
C49   H21   S    
C1    O1    A    
Cu1   O5    S    
C72   C73   S    
C59   H46   S    
O18   C74   S    
C65   H64   S    
C50   H23   S    
C64   H58   S    
C33   C40   S    
C5    O15   S    
C47   H15   S    
C34   C39   S    
C69   C70   S    
C28   C32   A    
C70   H76   S    
O10   C50   S    
C2    O2    A    
C4    C6    A    
C66   C67   S    
Cu2   O8    S    
C52   H26   S    
C5    C7    A    
C12   C45   S    
C76   H90   S    
C6    C8    A    
C61   H51   S    
C62   H53   S    
C25   C26   A    
C48   H17   S    
C3    C45   A    
C60   C61   S    
C58   H41   S    
C9    H11   S    
C75   C76   S    
C69   H73   S    
C23   O6    A    
C10   H12   S    
C37   C38   A    
C52   H27   S    
C65   C66   S    
C37   H1    S    
C44   H8    S    
Cu2   N2    S    
C29   O14   S    
C57   C58   S    
C67   H69   S    
C53   H29   S    
C33   C34   A    
C15   N1    A    
C48   H18   S    
C67   H67   S    
C55   H34   S    
C43   C45   A    
C73   H83   S    
C41   H5    S    
C14   O18   S    
C3    H9    S    
C49   H20   S    
C71   H77   S    
C54   H32   S    
C20   O11   S    
C51   H25   S    
C68   C69   S    
C40   H62   S    
C56   C57   S    
C16   N1    A    
C62   H52   S    
Cu1   O6    S    
O17   C71   S    
C36   C38   A    
C59   H45   S    
C58   H40   S    
C67   H68   S    
C50   C51   S    
C43   H7    S    
C15   C17   A    
C21   C25   A    
C61   H50   S    
C75   H87   S    
C35   C37   A    
C64   H57   S    
C39   H61   S    
C49   H19   S    
C3    C5    A    
C28   O13   S    
C23   O8    A    
Cu1   N1    S    
C63   H55   S    
O13   C59   S    
Cu1   O2    S    
C2    O4    A    
C63   H54   S    
C38   H2    S    
C20   C27   A    
C15   H13   S    
C64   H56   S    
C54   H31   S    
C69   H72   S    
C74   C75   S    
C31   H60   S    
C30   N2    A    
O14   C62   S    
C12   C14   A    
C18   O10   S    
C29   C31   A    
C40   H4    S    
C66   H65   S    
C42   H6    S    
C52   H28   S    
C48   C49   S    
C76   H88   S    
C28   C30   A    
C33   C35   A    
C73   H82   S    
C34   C36   A    
C7    C41   A    
C55   H33   S    
C9    C12   A    
C57   H39   S    
C22   O5    A    
C70   H74   S    
C60   H48   S    
C10   C11   A    
C74   H84   S    
C39   C40   S    
C54   C55   S    
C51   H24   S    
C16   C18   A    
C23   C36   S    
C4    H10   S    
C11   C46   S    
Cu2   O4    S    
C6    O16   S    
C75   H86   S    
C74   H85   S    
