data_mof_unit_32181.cif
_audit_creation_date              2013-03-05T16:13:33-0500
_audit_creation_method            fapswitch 2.2
_symmetry_space_group_name_H-M    P1
_symmetry_Int_Tables_number       1
_space_group_crystal_system       triclinic
_cell_length_a                    10.676261
_cell_length_b                    9.989603
_cell_length_c                    10.797694
_cell_angle_alpha                 91.513703
_cell_angle_beta                  93.34749
_cell_angle_gamma                 92.104577
_cell_volume                      1148.38019225

loop_
_atom_site_label
_atom_site_type_symbol
_atom_site_description
_atom_site_fract_x
_atom_site_fract_y
_atom_site_fract_z
_atom_type_partial_charge
O1    O     O_R   0.316770 0.614620 0.499990 -0.622422
O2    O     O_R   0.683230 0.614620 0.500010 -0.637176
O3    O     O_R   0.316800 0.385290 0.500000 -0.587566
O4    O     O_R   0.683200 0.385290 0.500000 -0.588197
C1    C     C_R   0.261095 0.497873 0.497204 0.911417
C2    C     C_R   0.739206 0.501260 0.496795 0.913262
O5    O     O_R   0.500000 0.614690 0.316780 -0.613119
O6    O     O_R   0.500000 0.614690 0.683220 -0.610237
O7    O     O_R   0.500020 0.385360 0.316780 -0.623369
O8    O     O_R   0.499980 0.385360 0.683220 -0.608720
C3    C     C_R   0.498361 0.498923 0.260725 0.829051
C4    C     C_R   0.502043 0.501933 0.740088 0.856845
Zn1   Zn    Zn3+2 0.500000 0.653120 0.500000 0.931627
Zn2   Zn    Zn3+2 0.500000 0.346880 0.500000 0.964745
C5    C     C_R   0.501608 0.621178 0.069469 -0.031291
C6    C     C_R   0.501471 0.624617 0.943054 -0.024791
C7    C     C_R   0.490265 0.499441 0.128924 -0.076221
C8    C     C_R   0.492248 0.504499 0.872139 -0.106684
C9    C     C_R   0.464370 0.380974 0.058882 -0.225247
C10   C     C_R   0.464101 0.383751 0.930767 -0.210221
H1    H     H_    0.449728 0.285822 0.102357 0.163833
H2    H     H_    0.446635 0.290261 0.878647 0.168571
C11   C     C_3   0.587324 0.749398 0.948294 0.337944
C12   C     C_3   0.589176 0.742420 0.092661 0.372092
C13   C     C_R   0.058821 0.476725 0.382607 0.152637
C14   C     C_R   0.928250 0.468760 0.383600 0.140893
C15   C     C_R   0.872697 0.501631 0.495109 -0.135264
C16   C     C_R   0.128888 0.493817 0.496861 -0.120822
C17   C     C_R   0.943418 0.520073 0.608802 0.152612
C18   C     C_R   0.073360 0.510808 0.610866 0.144408
C19   C     C_R   0.597290 0.078725 0.556398 0.225701
C20   C     C_R   0.400846 0.067540 0.445933 0.194754
C21   C     C_R   0.599722 0.935204 0.552614 0.114101
C22   C     C_R   0.401640 0.923744 0.443237 0.174466
N1    N     N_R   0.500000 0.857200 0.500000 -0.097896
N2    N     N_R   0.500000 0.142810 0.500000 -0.134172
N3    N     N_2   0.707455 0.724450 0.895914 -0.291255
H3    H     H_    0.736264 0.627612 0.903985 0.217068
C23   C     C_3   0.809580 0.824420 0.915920 -0.819097
H4    H     H_    0.859238 0.836138 0.829719 0.241905
H5    H     H_    0.880851 0.790398 0.985784 0.231584
H6    H     H_    0.776254 0.923158 0.945750 0.248206
N4    N     N_2   0.527614 0.851448 0.155189 -0.265484
H7    H     H_    0.436736 0.869075 0.124001 0.208817
C24   C     C_3   0.603809 0.970732 0.192340 -0.763775
H8    H     H_    0.658937 0.006386 0.115024 0.226425
H9    H     H_    0.668273 0.949611 0.273255 0.248012
H10   H     H_    0.543859 0.052415 0.221281 0.226014
C25   C     C_3   0.519322 0.866831 0.887767 -0.867039
H11   H     H_    0.419472 0.867929 0.911316 0.206942
H12   H     H_    0.565325 0.963912 0.918517 0.228111
H13   H     H_    0.520008 0.857725 0.785522 0.270491
C26   C     C_3   0.715152 0.707515 0.160506 -0.862614
H14   H     H_    0.754730 0.619617 0.115171 0.210499
H15   H     H_    0.784245 0.792829 0.161311 0.238008
H16   H     H_    0.703830 0.685600 0.259020 0.269004
C27   C     C_3   0.120793 0.471690 0.259332 -0.910724
H17   H     H_    0.097269 0.374319 0.210063 0.248566
H18   H     H_    0.086505 0.554045 0.200766 0.238609
H19   H     H_    0.224214 0.485632 0.267963 0.217650
C28   C     C_3   0.851442 0.416036 0.268558 -0.898725
H20   H     H_    0.749562 0.429397 0.272757 0.236101
H21   H     H_    0.881300 0.466327 0.184602 0.238096
H22   H     H_    0.866265 0.307202 0.256151 0.243983
C29   C     C_3   0.877175 0.545548 0.726146 -0.932491
H23   H     H_    0.822752 0.635564 0.712380 0.255846
H24   H     H_    0.812493 0.459824 0.742709 0.230492
H25   H     H_    0.938836 0.564310 0.811128 0.252750
C30   C     C_3   0.151080 0.519571 0.733718 -0.865654
H26   H     H_    0.251126 0.499966 0.725248 0.229113
H27   H     H_    0.145903 0.621176 0.776929 0.238676
H28   H     H_    0.115843 0.442858 0.797069 0.239698
N5    N     N_2   0.693296 0.157741 0.623176 -0.247069
H29   H     H_    0.783303 0.146286 0.595799 0.215999
C31   C     C_3   0.682012 0.169074 0.756091 -0.736819
H30   H     H_    0.750340 0.105171 0.805252 0.208513
H31   H     H_    0.585657 0.140343 0.781707 0.231413
H32   H     H_    0.702464 0.273922 0.788357 0.237756
N6    N     N_2   0.291421 0.134073 0.403847 -0.245193
H33   H     H_    0.210142 0.097594 0.440261 0.215176
C32   C     C_3   0.277052 0.158929 0.272251 -0.760127
H34   H     H_    0.179563 0.131522 0.236291 0.206907
H35   H     H_    0.341854 0.100467 0.217670 0.213868
H36   H     H_    0.294653 0.266433 0.257064 0.267421
C33   C     C_3   0.714109 0.868995 0.602909 -0.828743
H37   H     H_    0.778721 0.935807 0.661201 0.211121
H38   H     H_    0.684463 0.786439 0.661391 0.293021
H39   H     H_    0.768734 0.834587 0.524721 0.245519
C34   C     C_3   0.293731 0.846387 0.374906 -0.812179
H40   H     H_    0.248501 0.903223 0.299453 0.205451
H41   H     H_    0.326073 0.756639 0.326728 0.279875
H42   H     H_    0.220476 0.820998 0.440099 0.238739

loop_
_geom_bond_atom_site_label_1
_geom_bond_atom_site_label_2
_geom_bond_distance
_ccdc_geom_bond_type
O6    Zn1   2.025188 S    
C15   C17   1.407364 A    
N5    H29   1.031187 S    
C9    C10   1.384194 A    
O7    Zn2   2.025307 S    
C32   H36   1.101626 S    
C32   H34   1.111437 S    
C23   H5    1.108630 S    
C24   H8    1.108105 S    
C13   C16   1.407984 A    
O5    C3    1.290106 A    
C14   C15   1.409294 A    
N3    H3    1.030139 S    
O1    C1    1.288219 A    
C20   N2    1.368581 A    
C9    H1    1.081452 S    
C14   C28   1.519087 S    
Zn1   N1    2.038678 S    
Zn2   N2    2.038579 S    
C27   H18   1.110543 S    
C5    C6    1.366253 A    
C30   H27   1.110440 S    
C22   N1    1.384894 A    
C28   H21   1.105374 S    
O2    Zn1   2.007465 S    
C21   C33   1.491518 S    
C21   N1    1.381479 A    
C29   H24   1.105110 S    
C11   C12   1.561231 S    
C19   C21   1.434454 A    
C34   H41   1.101234 S    
C28   H20   1.104108 S    
C25   H13   1.105824 S    
C24   H9    1.109817 S    
N5    C31   1.449032 S    
O2    C2    1.300304 A    
C13   C27   1.521132 S    
C32   H35   1.107319 S    
C23   H6    1.107070 S    
C26   H15   1.105995 S    
C33   H38   1.100337 S    
O4    C2    1.286270 A    
O8    Zn2   2.005374 S    
C23   H4    1.104503 S    
N6    C32   1.449215 S    
C27   H19   1.105995 S    
C24   H10   1.105158 S    
C25   H12   1.104958 S    
C12   C26   1.549202 S    
C11   N3    1.458651 S    
C20   C22   1.436329 A    
C28   H22   1.110156 S    
C31   H30   1.108303 S    
C17   C18   1.392687 A    
C1    C16   1.410348 S    
N4    C24   1.451908 S    
C2    C15   1.426228 S    
O6    C4    1.297335 A    
C29   H25   1.105353 S    
C34   H42   1.109357 S    
C31   H31   1.110346 S    
C33   H37   1.100341 S    
O3    Zn2   2.006952 S    
O8    C4    1.300924 A    
C17   C29   1.507035 S    
C5    C12   1.509013 S    
C10   H2    1.082077 S    
C25   H11   1.110650 S    
C6    C11   1.517707 S    
O7    C3    1.300052 A    
N4    H7    1.031155 S    
O1    Zn1   1.979747 S    
C18   C30   1.521773 S    
C33   H39   1.108109 S    
C5    C7    1.394712 A    
C3    C7    1.420874 S    
C30   H28   1.110543 S    
O3    C1    1.291627 A    
C26   H14   1.103560 S    
C11   C25   1.542102 S    
C16   C18   1.406122 A    
C13   C14   1.394046 A    
C22   C34   1.507985 S    
N3    C23   1.453926 S    
C20   N6    1.422689 S    
C27   H17   1.109663 S    
C7    C9    1.397569 A    
C8    C10   1.407823 A    
O4    Zn2   1.979297 S    
C30   H26   1.101559 S    
C31   H32   1.105042 S    
C26   H16   1.104272 S    
C19   N5    1.420474 S    
N6    H33   1.031774 S    
O5    Zn1   2.005277 S    
C6    C8    1.403501 A    
C29   H23   1.097112 S    
C4    C8    1.435377 S    
C12   N4    1.462743 S    
C19   N2    1.362032 A    
C34   H40   1.103605 S    
