data_mof_unit_10092.cif
_audit_creation_date              2012-12-10T20:45:34-0500
_audit_creation_method            fapswitch 2.2
_symmetry_space_group_name_H-M    P1
_symmetry_Int_Tables_number       1
_space_group_crystal_system       triclinic
_cell_length_a                    10.702525
_cell_length_b                    10.662752
_cell_length_c                    9.842148
_cell_angle_alpha                 89.82777
_cell_angle_beta                  90.145548
_cell_angle_gamma                 90.139579
_cell_volume                      1123.15787523

loop_
_atom_site_label
_atom_site_type_symbol
_atom_type_description
_atom_site_fract_x
_atom_site_fract_y
_atom_site_fract_z
_atom_type_partial_charge
C1    C     C_R   0.505216 0.259806 0.500053 0.919400
C2    C     C_R   0.826218 0.373466 0.966638 -0.141904
C3    C     C_R   0.763486 0.259624 0.948569 -0.107241
C4    C     C_R   0.260177 0.504380 0.499684 0.929002
C5    C     C_R   0.759454 0.203788 0.820312 -0.128971
C6    C     C_R   0.816740 0.262394 0.709311 -0.114799
C7    C     C_R   0.879744 0.376917 0.726796 0.148105
C8    C     C_R   0.518530 0.063158 0.623178 0.029386
C9    C     C_R   0.527584 0.128420 0.500998 -0.237156
C10   C     C_R   0.562958 0.064441 0.382148 0.647058
C11   C     C_R   0.563000 0.934507 0.382882 -0.224284
C12   C     C_R   0.227709 0.786371 0.075076 -0.286838
C13   C     C_R   0.527746 0.870941 0.501573 -0.155606
C14   C     C_R   0.519038 0.935504 0.623611 0.097264
C15   C     C_3   0.423263 0.927317 0.733529 -0.412868
C16   C     C_R   0.505210 0.739976 0.499965 0.981341
C17   C     C_3   0.422654 0.069422 0.733032 -0.435955
C18   C     C_R   0.452248 0.400131 0.071665 0.279863
C19   C     C_R   0.558280 0.592392 0.071905 -0.141486
C20   C     C_R   0.558663 0.592166 0.927784 -0.117302
C21   C     C_R   0.450040 0.401378 0.928912 0.225311
C22   C     C_3   0.316975 0.359019 0.926181 -0.543457
C23   C     C_R   0.932550 0.557825 0.394991 -0.249003
C24   C     C_3   0.321887 0.352181 0.080037 -0.477430
C25   C     C_R   0.739900 0.496797 0.500478 0.858582
C26   C     C_R   0.245084 0.821470 0.210531 0.604143
C27   C     C_R   0.191741 0.750250 0.315264 0.552775
C28   C     C_R   0.119899 0.643221 0.284377 -0.064969
C29   C     C_R   0.099868 0.611136 0.147586 -0.283489
C30   C     C_R   0.154917 0.681503 0.043620 -0.229143
C31   C     C_R   0.872430 0.495819 0.501559 -0.075637
C32   C     C_R   0.939360 0.441060 0.609816 -0.001856
C33   C     C_R   0.067409 0.447486 0.606807 -0.273666
C34   C     C_R   0.127691 0.508598 0.499757 -0.039038
C35   C     C_R   0.060777 0.567481 0.393890 0.096747
C36   C     C_R   0.884941 0.431670 0.856387 -0.148363
F1    F     F_    0.587645 0.125557 0.263945 -0.676767
F2    F     F_    0.312071 0.925946 0.240030 -0.656898
F3    F     F_    0.207681 0.786935 0.446147 -0.685144
H1    H     H_    0.269433 0.841272 0.994333 0.180304
H2    H     H_    0.603286 0.668138 0.126240 0.147151
H3    H     H_    0.604238 0.667574 0.873212 0.147475
H4    H     H_    0.252830 0.433065 0.887990 0.215964
H5    H     H_    0.304424 0.266038 0.878088 0.206253
H6    H     H_    0.257891 0.418335 0.131005 0.226820
H7    H     H_    0.318400 0.254611 0.120021 0.242511
H8    H     H_    0.043520 0.530135 0.121669 0.168921
H9    H     H_    0.140769 0.654965 0.938615 0.179616
H10   H     H_    0.879133 0.603545 0.315155 0.159556
H11   H     H_    0.120214 0.401747 0.686971 0.157257
H12   H     H_    0.718174 0.214569 0.033965 0.189931
H13   H     H_    0.932864 0.520156 0.871372 0.125712
H14   H     H_    0.829097 0.416689 0.065998 0.142536
H15   H     H_    0.712081 0.114960 0.807173 0.140256
H16   H     H_    0.812043 0.218874 0.610114 0.113078
H17   H     H_    0.581205 0.884847 0.289132 0.184110
H18   H     H_    0.333669 0.885241 0.698403 0.243086
H19   H     H_    0.462068 0.886509 0.828727 0.190099
H20   H     H_    0.332712 0.110037 0.697322 0.207209
H21   H     H_    0.461314 0.110312 0.828062 0.207443
N1    N     N_R   0.499160 0.499140 0.142800 -0.115989
N2    N     N_R   0.499160 0.499180 0.857150 -0.105520
O1    O     O_R   0.500020 0.316790 0.614690 -0.624846
O2    O     O_R   0.500000 0.316760 0.385350 -0.556597
O3    O     O_R   0.316770 0.500030 0.614670 -0.623229
O4    O     O_R   0.316750 0.499990 0.385330 -0.634921
O5    O     O_R   0.500000 0.683240 0.614650 -0.627878
O6    O     O_R   0.499980 0.683210 0.385310 -0.630995
O7    O     O_R   0.683250 0.500010 0.614670 -0.615025
O8    O     O_R   0.683230 0.499970 0.385330 -0.630211
Zn1   Zn    Zn3+2 0.500010 0.500020 0.653130 0.956604
Zn2   Zn    Zn3+2 0.499990 0.499980 0.346870 0.973611

loop_
_geom_bond_atom_site_label_1
_geom_bond_atom_site_label_2
_ccdc_geom_bond_type
C25   C31   S    
C20   H3    S    
C18   N1    A    
C12   H1    S    
C29   C30   A    
C16   O6    A    
C22   H4    S    
C18   C21   A    
C11   C13   A    
C9    C10   A    
C23   C35   A    
C19   C20   A    
C36   H13   S    
C6    H16   S    
O6    Zn2   S    
C24   H7    S    
C32   C33   A    
C14   C15   S    
C2    C3    A    
C26   C27   A    
C16   O5    A    
O3    Zn1   S    
C13   C14   A    
C4    O4    A    
O4    Zn2   S    
C15   H18   S    
C21   N2    A    
C6    C7    A    
C17   H20   S    
C10   F1    S    
C18   C24   S    
C24   H6    S    
C1    O1    A    
N1    Zn2   S    
C30   H9    S    
C28   C29   A    
C12   C26   A    
C29   H8    S    
N2    Zn1   S    
C33   C34   A    
O5    Zn1   S    
O2    Zn2   S    
C4    C34   S    
C20   N2    A    
C5    C6    A    
C19   N1    A    
C15   H19   S    
C22   C24   S    
C23   H10   S    
C7    C32   S    
C25   O7    A    
C10   C11   A    
C17   H21   S    
C27   F3    S    
C1    O2    A    
C19   H2    S    
C5    H15   S    
C1    C9    S    
O7    Zn1   S    
C34   C35   A    
C7    C36   A    
C13   C16   S    
C2    C36   A    
C27   C28   A    
C15   C17   S    
C3    H12   S    
C4    O3    A    
C26   F2    S    
O8    Zn2   S    
C25   O8    A    
C8    C14   A    
C12   C30   A    
C33   H11   S    
C21   C22   S    
C31   C32   A    
C22   H5    S    
C11   H17   S    
C8    C17   S    
C28   C35   S    
O1    Zn1   S    
C8    C9    A    
C3    C5    A    
C2    H14   S    
C23   C31   A    
