data_mof_unit_58028.cif
_audit_creation_date              2012-12-10T20:44:06-0500
_audit_creation_method            fapswitch 2.2
_symmetry_space_group_name_H-M    P1
_symmetry_Int_Tables_number       1
_space_group_crystal_system       triclinic
_cell_length_a                    17.50373
_cell_length_b                    10.678675
_cell_length_c                    9.851585
_cell_angle_alpha                 89.866995
_cell_angle_beta                  89.955322
_cell_angle_gamma                 90.134443
_cell_volume                      1841.41460728

loop_
_atom_site_label
_atom_site_type_symbol
_atom_type_description
_atom_site_fract_x
_atom_site_fract_y
_atom_site_fract_z
_atom_type_partial_charge
C1    C     C_R   0.502372 0.259869 0.500117 0.883780
C2    C     C_R   0.114398 0.559470 0.501005 0.163975
C3    C     C_R   0.514904 0.063474 0.623188 0.143689
C4    C     C_R   0.353276 0.502492 0.500148 0.863632
C5    C     C_R   0.514822 0.128533 0.500618 -0.107382
C6    C     C_R   0.529683 0.065126 0.378854 -0.227187
C7    C     C_R   0.529896 0.935595 0.378724 -0.225514
C8    C     C_R   0.515250 0.871377 0.500357 -0.104296
C9    C     C_R   0.515237 0.935706 0.623084 0.125874
C10   C     C_3   0.460951 0.927543 0.740019 -0.474597
C11   C     C_3   0.460308 0.069415 0.739717 -0.495993
C12   C     C_R   0.886155 0.547736 0.495636 0.115375
C13   C     C_R   0.467534 0.403135 0.071620 0.217453
C14   C     C_R   0.538222 0.589401 0.071738 -0.135550
C15   C     C_R   0.538253 0.589387 0.927659 -0.140083
C16   C     C_R   0.502610 0.740073 0.499868 0.882444
C17   C     C_R   0.467314 0.403337 0.928933 0.220987
C18   C     C_3   0.385441 0.364783 0.924222 -0.520008
C19   C     C_3   0.385977 0.363617 0.078144 -0.512435
C20   C     C_R   0.646593 0.501467 0.499895 0.865304
C21   C     C_R   0.844733 0.578889 0.611546 -0.189135
C22   C     C_R   0.766460 0.560680 0.614187 -0.201254
C23   C     C_1   0.966337 0.562448 0.499552 -0.067044
C24   C     C_R   0.729167 0.513231 0.499540 -0.044839
C25   C     C_R   0.770690 0.483053 0.382486 -0.251764
C26   C     C_R   0.849811 0.498251 0.379850 0.030766
C27   C     C_R   0.892688 0.462087 0.255914 0.112702
C28   C     C_R   0.872971 0.513768 0.129425 -0.161526
C29   C     C_R   0.913295 0.480079 0.012565 -0.130135
C30   C     C_R   0.973320 0.394396 0.020771 -0.112601
C31   C     C_R   0.992796 0.341475 0.145840 -0.148925
C32   C     C_R   0.952451 0.374488 0.262912 -0.142253
C33   C     C_1   0.034100 0.566162 0.501348 -0.071617
C34   C     C_R   0.153485 0.554630 0.624035 -0.172395
C35   C     C_R   0.231683 0.534148 0.623972 -0.203881
C36   C     C_R   0.270649 0.517891 0.500583 -0.036569
C37   C     C_R   0.230533 0.523636 0.377420 -0.204891
C38   C     C_R   0.152359 0.544021 0.377808 -0.166658
H1    H     H_    0.873080 0.617299 0.699887 0.131233
H2    H     H_    0.123405 0.564682 0.719602 0.130637
H3    H     H_    0.261412 0.531624 0.720147 0.147736
H4    H     H_    0.259282 0.512598 0.281069 0.147294
H5    H     H_    0.121367 0.545704 0.282571 0.143290
H6    H     H_    0.535685 0.114413 0.283172 0.169666
H7    H     H_    0.535993 0.886873 0.283000 0.164925
H8    H     H_    0.488193 0.886916 0.831973 0.199915
H9    H     H_    0.567857 0.662866 0.125931 0.141951
H10   H     H_    0.377445 0.270353 0.879705 0.198216
H11   H     H_    0.735007 0.586125 0.704740 0.153825
H12   H     H_    0.405030 0.885327 0.711820 0.206581
H13   H     H_    0.826866 0.580875 0.121538 0.126280
H14   H     H_    0.898062 0.520537 0.915679 0.123869
H15   H     H_    0.004546 0.368724 0.930165 0.125303
H16   H     H_    0.039023 0.274573 0.152053 0.132317
H17   H     H_    0.967612 0.331423 0.358778 0.132270
H18   H     H_    0.404075 0.109479 0.710462 0.198463
H19   H     H_    0.486892 0.110833 0.831765 0.203662
H20   H     H_    0.567939 0.662804 0.873020 0.142847
H21   H     H_    0.348059 0.438653 0.881019 0.212272
H22   H     H_    0.348641 0.436447 0.123028 0.212259
H23   H     H_    0.379234 0.268344 0.122312 0.201458
H24   H     H_    0.741731 0.445705 0.294086 0.159526
N1    N     N_R   0.499490 0.499140 0.142800 -0.105480
N2    N     N_R   0.499490 0.499180 0.857150 -0.104333
O1    O     O_R   0.500010 0.316790 0.614690 -0.612216
O2    O     O_R   0.500000 0.316760 0.385350 -0.622080
O3    O     O_R   0.389120 0.500020 0.614710 -0.620302
O4    O     O_R   0.389110 0.499990 0.385370 -0.616801
O5    O     O_R   0.500000 0.683240 0.614650 -0.620724
O6    O     O_R   0.499990 0.683210 0.385310 -0.623770
O7    O     O_R   0.610890 0.500010 0.614630 -0.620089
O8    O     O_R   0.610880 0.499980 0.385290 -0.620982
Zn1   Zn    Zn3+2 0.500010 0.500020 0.653130 0.942142
Zn2   Zn    Zn3+2 0.499990 0.499980 0.346870 0.941391

loop_
_geom_bond_atom_site_label_1
_geom_bond_atom_site_label_2
_ccdc_geom_bond_type
C4    C36   S    
C35   C36   A    
C7    C8    A    
C12   C23   S    
C26   C27   S    
C29   C30   A    
C34   H2    S    
C7    H7    S    
C28   C29   A    
C18   C19   S    
C17   N2    A    
C30   C31   A    
C28   H13   S    
O4    Zn2   S    
O2    Zn2   S    
O1    Zn1   S    
C34   C35   A    
C37   H4    S    
C20   C24   S    
C8    C9    A    
C23   C33   T    
C21   H1    S    
O6    Zn2   S    
C1    O1    A    
C15   N2    A    
C20   O7    A    
O5    Zn1   S    
O3    Zn1   S    
C9    C10   S    
C32   H17   S    
C2    C34   A    
C8    C16   S    
C6    H6    S    
C21   C22   A    
C1    O2    A    
C30   H15   S    
C13   C19   S    
C16   O6    A    
C24   C25   A    
O8    Zn2   S    
O7    Zn1   S    
C25   C26   A    
C12   C21   A    
C12   C26   A    
C10   H8    S    
C37   C38   A    
C3    C9    A    
C2    C38   A    
C31   C32   A    
C13   N1    A    
N2    Zn1   S    
C17   C18   S    
C14   H9    S    
C22   H11   S    
C2    C33   S    
C15   H20   S    
C22   C24   A    
C10   H12   S    
C1    C5    S    
C4    O4    A    
C36   C37   A    
C27   C32   A    
C16   O5    A    
C3    C5    A    
C18   H10   S    
C4    O3    A    
C6    C7    A    
N1    Zn2   S    
C19   H22   S    
C13   C17   A    
C38   H5    S    
C5    C6    A    
C19   H23   S    
C14   N1    A    
C25   H24   S    
C31   H16   S    
C35   H3    S    
C3    C11   S    
C10   C11   S    
C18   H21   S    
C27   C28   A    
C14   C15   A    
C20   O8    A    
C11   H19   S    
C11   H18   S    
C29   H14   S    
