data_mof_unit_36302.cif
_audit_creation_date              2012-12-10T17:03:00-0500
_audit_creation_method            fapswitch 2.2
_symmetry_space_group_name_H-M    P1
_symmetry_Int_Tables_number       1
_space_group_crystal_system       triclinic
_cell_length_a                    9.868858
_cell_length_b                    11.047018
_cell_length_c                    13.421636
_cell_angle_alpha                 93.090178
_cell_angle_beta                  82.050212
_cell_angle_gamma                 111.506019
_cell_volume                      1348.28224021

loop_
_atom_site_label
_atom_site_type_symbol
_atom_type_description
_atom_site_fract_x
_atom_site_fract_y
_atom_site_fract_z
_atom_type_partial_charge
C1    C     C_R   0.557763 0.745550 0.503311 0.893730
C2    C     C_R   0.454512 0.458411 0.962453 0.053638
C3    C     C_R   0.466734 0.521799 0.870453 -0.149510
C4    C     C_R   0.551760 0.521821 0.034324 -0.185473
C5    C     C_R   0.669954 0.640957 0.008366 -0.291304
C6    C     C_R   0.676613 0.704052 0.918953 0.552971
C7    C     C_R   0.574464 0.647270 0.852452 0.480505
C8    C     C_R   0.528636 0.476930 0.134228 0.577858
C9    C     C_R   0.752666 0.648263 0.171700 -0.392430
C10   C     C_R   0.370364 0.458238 0.798473 -0.096145
C11   C     C_2   0.586650 0.884800 0.506287 -0.396625
C12   C     C_R   0.421456 0.485921 0.690426 0.890951
C13   C     C_2   0.520775 0.939383 0.450546 0.041903
C14   C     C_2   0.423658 0.117997 0.467631 0.432430
C15   C     C_2   0.533117 0.074402 0.473325 -0.270789
C16   C     C_2   0.921556 0.489875 0.492749 0.489732
C17   C     C_2   0.077372 0.507777 0.508324 0.487126
C18   C     C_R   0.445689 0.254803 0.488689 0.747613
C19   C     C_R   0.578020 0.515229 0.309989 0.887005
C20   C     C_R   0.774009 0.698972 0.075601 0.676630
C21   C     C_R   0.625882 0.542121 0.202738 -0.205493
C22   C     C_R   0.245778 0.345102 0.827111 -0.033387
C23   C     C_R   0.239524 0.281599 0.915511 -0.224211
C24   C     C_R   0.347720 0.332082 0.977691 -0.080220
Cu1   Cu    Cu3+1 0.362000 0.479240 0.482530 1.035255
Cu2   Cu    Cu3+1 0.638000 0.520760 0.517470 1.004774
H1    H     H_    0.828127 0.699339 0.224713 0.188742
H2    H     H_    0.653147 0.941471 0.562317 0.151771
H3    H     H_    0.344921 0.268000 0.036059 0.220703
H4    H     H_    0.151641 0.189708 0.935704 0.177726
H5    H     H_    0.634022 0.138445 0.500631 0.156375
N1    N     N_2   0.845330 0.551960 0.543750 -0.268774
N2    N     N_2   0.154690 0.448120 0.456210 -0.268508
O1    O     O_R   0.426290 0.668220 0.490680 -0.533044
O2    O     O_R   0.659360 0.703290 0.520190 -0.577797
O3    O     O_R   0.326580 0.473880 0.629020 -0.538443
O4    O     O_R   0.559660 0.508940 0.658530 -0.568577
O5    O     O_R   0.340640 0.296710 0.479810 -0.552562
O6    O     O_R   0.573710 0.331780 0.509320 -0.570060
O7    O     O_R   0.440340 0.491060 0.341470 -0.545747
O8    O     O_R   0.673420 0.526120 0.370980 -0.547588
C25   C     C_R   0.456845 0.874473 0.358969 0.193159
C26   C     C_R   0.307102 0.798286 0.363241 0.018890
C27   C     C_R   0.248082 0.739820 0.276202 -0.179220
C28   C     C_R   0.339030 0.754827 0.184536 -0.091252
C29   C     C_R   0.488713 0.829646 0.179810 -0.120260
C30   C     C_R   0.547567 0.889475 0.266680 -0.187010
H6    H     H_    0.237067 0.784039 0.434096 0.166658
H7    H     H_    0.132008 0.682347 0.280027 0.129785
H8    H     H_    0.293605 0.708589 0.117250 0.145171
H9    H     H_    0.558986 0.841804 0.108785 0.168682
H10   H     H_    0.663557 0.947387 0.262145 0.138933
F1    F     F_    0.293615 0.038996 0.438171 -0.690383
F2    F     F_    0.143854 0.591012 0.580038 -0.675891
F3    F     F_    0.854864 0.403830 0.422485 -0.677326
C31   C     C_R   0.092681 0.346449 0.387705 0.269383
C32   C     C_R   0.107020 0.372884 0.284942 -0.010407
C33   C     C_R   0.049685 0.272030 0.217297 -0.069866
C34   C     C_R   0.979334 0.144143 0.251779 -0.104335
C35   C     C_R   0.966651 0.116913 0.353917 -0.120589
C36   C     C_R   0.024134 0.217655 0.421571 -0.071780
H11   H     H_    0.163287 0.470978 0.257278 0.122346
H12   H     H_    0.060760 0.292911 0.138073 0.142289
H13   H     H_    0.935786 0.066117 0.199240 0.165338
H14   H     H_    0.913294 0.017751 0.380524 0.136336
H15   H     H_    0.016829 0.195623 0.499938 0.134613
C37   C     C_R   0.909629 0.651294 0.613399 0.300086
C38   C     C_R   0.004895 0.774660 0.578563 -0.112872
C39   C     C_R   0.094059 0.861769 0.643271 -0.148963
C40   C     C_R   0.084036 0.828185 0.743698 -0.030141
C41   C     C_R   0.981253 0.709528 0.780378 -0.040671
C42   C     C_R   0.891733 0.622458 0.716018 -0.132481
H16   H     H_    0.014976 0.800025 0.500414 0.133175
H17   H     H_    0.171900 0.954735 0.615540 0.171409
H18   H     H_    0.154772 0.894422 0.793450 0.136190
H19   H     H_    0.971715 0.684505 0.858556 0.156000
H20   H     H_    0.812196 0.531475 0.745805 0.100459
F4    F     F_    0.777061 0.825306 0.897962 -0.602373
F5    F     F_    0.892401 0.808824 0.050926 -0.636570
F6    F     F_    0.403488 0.379777 0.171062 -0.692701
C43   C     C_R   0.121258 0.287041 0.767326 0.098036
C44   C     C_R   0.070789 0.153185 0.745406 -0.145465
C45   C     C_R   0.938640 0.092955 0.705199 -0.062926
C46   C     C_R   0.856921 0.166263 0.685203 -0.139475
C47   C     C_R   0.907998 0.299555 0.703708 -0.165156
C48   C     C_R   0.038643 0.360127 0.745840 -0.054540
H21   H     H_    0.131896 0.095383 0.762899 0.122589
H22   H     H_    0.898038 0.989336 0.690999 0.186166
H23   H     H_    0.753908 0.120486 0.655342 0.132833
H24   H     H_    0.843943 0.354304 0.686343 0.127814
H25   H     H_    0.073222 0.462743 0.764226 0.161473
F7    F     F_    0.578320 0.718720 0.772073 -0.645916

loop_
_geom_bond_atom_site_label_1
_geom_bond_atom_site_label_2
_ccdc_geom_bond_type
C27   H7    S    
Cu2   N1    S    
C14   C18   S    
C1    C11   S    
C4    C8    A    
C43   C44   A    
C32   H11   S    
C5    C20   A    
C28   C29   A    
C10   C22   A    
C9    H1    S    
C34   H13   S    
C11   H2    S    
C19   C21   S    
C3    C7    A    
C48   H25   S    
Cu1   O7    S    
C41   H19   S    
Cu2   O6    S    
C6    F4    S    
C44   H21   S    
C31   C32   A    
C37   C42   A    
C12   O4    A    
C18   O6    A    
C24   H3    S    
C36   H15   S    
C16   C17   S    
C23   C24   A    
C40   C41   A    
C12   O3    A    
C26   H6    S    
C43   C48   A    
Cu1   O1    S    
C38   H16   S    
N2    C31   S    
C45   H22   S    
C34   C35   A    
C17   N2    D    
C13   C25   S    
C1    O1    A    
C37   C38   A    
C22   C43   S    
C46   C47   A    
C38   C39   A    
Cu1   Cu2   S    
C47   C48   A    
C29   H9    S    
C35   C36   A    
C2    C4    A    
C26   C27   A    
C23   H4    S    
C42   H20   S    
Cu1   O5    S    
C9    C20   A    
C45   C46   A    
C14   C15   D    
C8    C21   A    
C39   H17   S    
C6    C7    A    
C10   C12   S    
N1    C37   S    
C35   H14   S    
C13   C15   S    
C2    C24   A    
C33   C34   A    
C46   H23   S    
C27   C28   A    
C1    O2    A    
C33   H12   S    
C29   C30   A    
C20   F5    S    
C22   C23   A    
C4    C5    A    
C47   H24   S    
Cu2   O4    S    
C15   H5    S    
C30   H10   S    
C16   N1    D    
C2    C3    A    
C18   O5    A    
C16   F3    S    
C41   C42   A    
C3    C10   A    
C11   C13   D    
C9    C21   A    
C32   C33   A    
C5    C6    A    
C28   H8    S    
C7    F7    S    
C25   C30   A    
C39   C40   A    
C19   O7    A    
Cu1   O3    S    
Cu2   O2    S    
C14   F1    S    
C44   C45   A    
C25   C26   A    
C40   H18   S    
C8    F6    S    
C31   C36   A    
C17   F2    S    
C19   O8    A    
Cu2   O8    S    
Cu1   N2    S    
