data_mof_unit_53444.cif
_audit_creation_date              2012-12-10T17:32:57-0500
_audit_creation_method            fapswitch 2.2
_symmetry_space_group_name_H-M    P1
_symmetry_Int_Tables_number       1
_space_group_crystal_system       triclinic
_cell_length_a                    12.399089
_cell_length_b                    13.352678
_cell_length_c                    14.144315
_cell_angle_alpha                 94.342231
_cell_angle_beta                  107.381449
_cell_angle_gamma                 117.341044
_cell_volume                      1921.52730879

loop_
_atom_site_label
_atom_site_type_symbol
_atom_type_description
_atom_site_fract_x
_atom_site_fract_y
_atom_site_fract_z
_atom_type_partial_charge
C1    C     C_R   0.651245 0.713969 0.509201 0.763295
C2    C     C_R   0.844275 0.501452 0.925539 0.084971
C3    C     C_R   0.789754 0.507041 0.998457 0.042350
C4    C     C_R   0.941468 0.469324 0.948372 0.083060
C5    C     C_R   0.006432 0.473297 0.051157 0.080337
C6    C     C_R   0.956113 0.488767 0.124944 -0.224582
C7    C     C_R   0.846561 0.501362 0.097732 -0.160450
C8    C     C_R   0.968766 0.426008 0.870163 -0.216580
C9    C     C_R   0.067016 0.398258 0.893256 -0.161983
C10   C     C_R   0.142564 0.415658 0.995097 0.068849
C11   C     C_R   0.115630 0.456409 0.075218 0.084406
C12   C     C_R   0.618943 0.518740 0.688667 0.816020
C13   C     C_R   0.243468 0.390627 0.017083 -0.178024
C14   C     C_R   0.323927 0.409880 0.118100 0.459760
C15   C     C_R   0.199866 0.480799 0.176518 -0.313529
C16   C     C_R   0.137784 0.964844 0.360971 -0.184245
C17   C     C_R   0.249126 0.162157 0.463330 -0.052747
C18   C     C_R   0.734452 0.921563 0.579051 -0.182582
C19   C     C_R   0.826415 0.038551 0.600012 -0.141127
C20   C     C_R   0.926558 0.072817 0.562948 -0.173986
C21   C     C_R   0.934018 0.989926 0.500334 0.081425
C22   C     C_R   0.831147 0.872235 0.469420 0.069225
C23   C     C_R   0.345278 0.285359 0.484971 0.807245
C24   C     C_R   0.039434 0.020132 0.466507 0.070091
C25   C     C_R   0.034348 0.935765 0.395061 0.156502
C26   C     C_R   0.924818 0.824248 0.356529 -0.224915
C27   C     C_R   0.823822 0.793339 0.391930 -0.182474
C28   C     C_R   0.150612 0.131732 0.502243 -0.243189
C29   C     C_R   0.244456 0.077977 0.394395 -0.177324
C30   C     C_R   0.737476 0.837211 0.516111 -0.095960
C31   C     C_R   0.259063 0.708336 0.639069 -0.281344
C32   C     C_R   0.652254 0.327390 0.378333 0.104676
C33   C     C_R   0.727432 0.286677 0.352168 -0.251047
C34   C     C_R   0.378865 0.478960 0.311439 0.838455
C35   C     C_R   0.863751 0.352733 0.395468 -0.215032
C36   C     C_R   0.927090 0.460432 0.467101 -0.004316
C37   C     C_R   0.845217 0.499826 0.489656 0.278849
C38   C     C_R   0.067971 0.529195 0.519071 -0.038808
C39   C     C_R   0.123043 0.637388 0.588913 0.163030
C40   C     C_R   0.042257 0.674054 0.609397 -0.270041
C41   C     C_R   0.907071 0.605126 0.563217 -0.207065
C42   C     C_R   0.157835 0.496122 0.505840 0.019080
C43   C     C_R   0.341285 0.672208 0.620975 0.186073
C44   C     C_R   0.681859 0.527943 0.800061 -0.236538
C45   C     C_R   0.303191 0.457394 0.200354 -0.189018
C46   C     C_R   0.681546 0.521955 0.972321 -0.218775
C47   C     C_R   0.622022 0.526321 0.872780 0.358656
C48   C     C_R   0.806261 0.537015 0.835654 0.035666
Cu1   Cu    Cu3+1 0.416420 0.526630 0.522910 0.992783
Cu2   Cu    Cu3+1 0.583580 0.473370 0.477090 0.962806
H1    H     H_    0.808148 0.509344 0.155394 0.154378
H2    H     H_    0.258364 0.354564 0.954160 0.212922
H3    H     H_    0.320163 0.100680 0.363237 0.160660
H4    H     H_    0.917046 0.760458 0.298692 0.152655
H5    H     H_    0.134274 0.900957 0.306227 0.140851
H6    H     H_    0.162986 0.197896 0.559829 0.166488
H7    H     H_    0.662540 0.896911 0.614336 0.149168
H8    H     H_    0.994556 0.165117 0.582928 0.136954
H9    H     H_    0.822481 0.102995 0.647969 0.143738
H10   H     H_    0.738696 0.707605 0.355498 0.205779
H11   H     H_    0.446225 0.729629 0.655863 0.143277
H12   H     H_    0.187845 0.521351 0.238359 0.177611
H13   H     H_    0.083880 0.755426 0.664832 0.161504
H14   H     H_    0.301778 0.792217 0.691168 0.145373
H15   H     H_    0.124354 0.415777 0.453368 0.120012
H16   H     H_    0.547340 0.272020 0.348332 0.179694
H17   H     H_    0.917072 0.316735 0.373035 0.144612
H18   H     H_    0.679575 0.202359 0.299350 0.169200
H19   H     H_    0.854169 0.634611 0.591672 0.198464
H20   H     H_    0.084850 0.364218 0.831125 0.166768
H21   H     H_    0.642188 0.528015 0.029854 0.237211
H22   H     H_    0.994295 0.484189 0.202751 0.142865
H23   H     H_    0.909629 0.407306 0.790393 0.150394
N1    N     N_R   0.290690 0.566960 0.557640 -0.169997
N2    N     N_R   0.709100 0.433710 0.442970 -0.209921
O1    O     O_R   0.545970 0.684450 0.528810 -0.594877
O2    O     O_R   0.687130 0.639470 0.490120 -0.608081
O3    O     O_R   0.519670 0.535100 0.660030 -0.482860
O4    O     O_R   0.660830 0.490120 0.621340 -0.603485
O5    O     O_R   0.312870 0.360530 0.509880 -0.575428
O6    O     O_R   0.454030 0.315550 0.471190 -0.596759
O7    O     O_R   0.339170 0.509880 0.378660 -0.604814
O8    O     O_R   0.480330 0.464900 0.339970 -0.500573
S1    S     S_3+6 0.442097 0.366609 0.134510 -0.010912
O9    O     O_2   0.407248 0.268730 0.186465 -0.343900
O10   O     O_2   0.442377 0.324050 0.033126 -0.289403
O11   O     O_3   0.592165 0.479757 0.205719 -0.557328
H24   H     H_    0.648259 0.444961 0.225382 0.356251
S2    S     S_3+6 0.484500 0.545042 0.850294 0.017265
O12   O     O_2   0.366242 0.445874 0.765902 -0.261874
O13   O     O_2   0.453669 0.550242 0.944877 -0.296395
O14   O     O_3   0.519254 0.671292 0.817357 -0.540625
H25   H     H_    0.600306 0.731207 0.874462 0.332938
C49   C     C_3   0.910482 0.618668 0.798704 -0.378746
C50   C     C_3   0.034161 0.715444 0.885750 -0.788229
H26   H     H_    0.007651 0.759074 0.937328 0.252893
H27   H     H_    0.093176 0.680903 0.930683 0.264292
H28   H     H_    0.096445 0.781475 0.853252 0.238201
H29   H     H_    0.872073 0.665531 0.750575 0.191008
H30   H     H_    0.937032 0.570108 0.752372 0.218847

loop_
_geom_bond_atom_site_label_1
_geom_bond_atom_site_label_2
_ccdc_geom_bond_type
O11   H24   S    
C1    O2    A    
C19   C20   A    
S1    O11   S    
C14   S1    S    
C4    C8    A    
Cu2   O4    S    
C32   N2    A    
C28   H6    S    
C50   H28   S    
C6    H22   S    
C26   C27   A    
C17   C23   S    
C40   H13   S    
C48   C49   S    
C32   H16   S    
C36   C37   A    
S1    O10   D    
C38   C42   A    
C3    C7    A    
C27   H10   S    
C5    C6    A    
C12   O4    A    
C17   C29   A    
Cu1   O3    S    
C18   C19   A    
C1    C30   S    
C11   C15   A    
C50   H26   S    
C8    C9    A    
C12   O3    A    
C42   H15   S    
C18   C30   A    
C49   H30   S    
C23   O5    A    
S2    O13   D    
C23   O6    A    
C9    C10   A    
C44   C47   A    
C43   N1    A    
C37   N2    A    
C21   C22   A    
C47   S2    S    
C26   H4    S    
Cu2   O8    S    
C14   C45   A    
C42   N1    A    
C24   C25   A    
C39   C40   A    
O14   H25   S    
C19   H9    S    
C16   C29   A    
C35   C36   A    
Cu1   O7    S    
C2    C4    A    
C13   H2    S    
C18   H7    S    
C35   H17   S    
C17   C28   A    
Cu1   O1    S    
C34   C45   S    
S1    O9    D    
S2    O14   S    
C46   H21   S    
C31   C43   A    
C40   C41   A    
C22   C27   A    
C34   O8    A    
C15   C45   A    
C20   H8    S    
Cu2   O2    S    
C43   H11   S    
C41   H19   S    
C16   C25   A    
C46   C47   A    
C22   C30   A    
C1    O1    A    
C31   H14   S    
C24   C28   A    
C4    C5    A    
C10   C13   A    
C50   H27   S    
C5    C11   A    
C6    C7    A    
C3    C46   A    
Cu1   O5    S    
C2    C48   A    
C32   C33   A    
C36   C38   A    
C2    C3    A    
C25   C26   A    
C16   H5    S    
C7    H1    S    
C12   C44   S    
Cu2   N2    S    
C38   C39   A    
C29   H3    S    
C49   H29   S    
C8    H23   S    
C33   C35   A    
C15   H12   S    
C31   C39   A    
C37   C41   A    
C49   C50   S    
C10   C11   A    
C9    H20   S    
C20   C21   A    
Cu2   O6    S    
Cu1   Cu2   S    
C21   C24   A    
Cu1   N1    S    
C34   O7    A    
S2    O12   D    
C13   C14   A    
C44   C48   A    
C33   H18   S    
