data_mof_unit_42339.cif
_audit_creation_date              2012-12-11T15:55:47-0500
_audit_creation_method            fapswitch 2.2
_symmetry_space_group_name_H-M    P1
_symmetry_Int_Tables_number       1
_space_group_crystal_system       triclinic
_cell_length_a                    11.025759
_cell_length_b                    11.069793
_cell_length_c                    18.761547
_cell_angle_alpha                 90.832123
_cell_angle_beta                  91.038039
_cell_angle_gamma                 59.345588
_cell_volume                      1969.54537469

loop_
_atom_site_label
_atom_site_type_symbol
_atom_type_description
_atom_site_fract_x
_atom_site_fract_y
_atom_site_fract_z
_atom_type_partial_charge
C1    C     C_R   0.360916 0.763406 0.394958 0.539575
C2    C     C_R   0.261618 0.445998 0.194521 -0.176632
C3    C     C_R   0.245209 0.448163 0.268464 -0.036456
C4    C     C_R   0.384722 0.355089 0.386872 0.578698
C5    C     C_R   0.810622 0.699205 0.337268 -0.064472
C6    C     C_R   0.844252 0.622748 0.274116 -0.086808
C7    C     C_R   0.984792 0.541054 0.253717 -0.066337
C8    C     C_R   0.094880 0.539478 0.294239 0.063231
C9    C     C_R   0.363433 0.345485 0.309199 0.028640
C10   C     C_R   0.849527 0.342567 0.180320 0.014744
C11   C     C_R   0.938787 0.275914 0.237665 -0.055689
C12   C     C_R   0.639901 0.119578 0.169533 0.031243
C13   C     C_R   0.893947 0.297888 0.305329 0.074640
C14   C     C_R   0.657417 0.452551 0.265539 -0.199091
C15   C     C_R   0.704745 0.431292 0.194235 -0.167954
C16   C     C_R   0.711747 0.416004 0.395292 0.563288
C17   C     C_3   0.089691 0.189343 0.258586 -0.252306
C18   C     C_3   0.038217 0.212998 0.336077 0.253688
C19   C     C_R   0.754645 0.388062 0.322311 0.011922
C20   C     C_R   0.367949 0.821369 0.171857 0.009671
C21   C     C_R   0.448589 0.851711 0.219847 -0.006394
C22   C     C_R   0.440309 0.838712 0.292881 0.002391
C23   C     C_R   0.372575 0.331277 0.159239 0.007159
C24   C     C_R   0.296180 0.737918 0.271643 -0.177053
C25   C     C_R   0.306363 0.747784 0.198472 -0.162964
C26   C     C_3   0.453017 0.982150 0.232433 -0.278037
C27   C     C_3   0.434040 0.972440 0.310919 -0.277879
C28   C     C_R   0.342386 0.771727 0.603299 0.548453
C29   C     C_R   0.356305 0.791844 0.319715 0.008951
C30   C     C_R   0.308564 0.333732 0.816202 0.020339
C31   C     C_R   0.442294 0.281545 0.787885 -0.106464
C32   C     C_R   0.457968 0.282771 0.715946 0.019028
C33   C     C_R   0.206807 0.407281 0.697047 -0.138047
C34   C     C_R   0.484770 0.242811 0.272905 -0.162578
C35   C     C_R   0.189121 0.406155 0.770738 0.330275
C36   C     C_3   0.577811 0.143834 0.796091 -0.208173
C37   C     C_3   0.592340 0.144458 0.716081 0.263098
C38   C     C_R   0.342813 0.337059 0.669058 0.001265
C39   C     C_R   0.836568 0.318758 0.831397 0.012546
C40   C     C_R   0.370903 0.350501 0.595932 0.574959
C41   C     C_R   0.789423 0.447274 0.799528 0.118245
C42   C     C_R   0.781305 0.460308 0.727253 0.080035
C43   C     C_R   0.879601 0.211559 0.712627 -0.178279
C44   C     C_R   0.890387 0.198319 0.787230 -0.166869
C45   C     C_R   0.495272 0.231851 0.198706 -0.021628
C46   C     C_3   0.656446 0.582360 0.811689 -0.286082
C47   C     C_3   0.646428 0.597312 0.731547 -0.248616
C48   C     C_R   0.816667 0.345557 0.682544 0.011583
C49   C     C_R   0.303942 0.850958 0.824194 0.014189
C50   C     C_R   0.256460 0.768715 0.792146 -0.020570
C51   C     C_R   0.258371 0.756649 0.719204 0.015882
C52   C     C_R   0.765473 0.376483 0.609670 0.549052
C53   C     C_R   0.374073 0.890225 0.707861 -0.164586
C54   C     C_R   0.368882 0.906654 0.781498 -0.136968
C55   C     C_3   0.119950 0.771952 0.797632 -0.256587
C56   C     C_R   0.053304 0.635263 0.351807 -0.063361
C57   C     C_3   0.117374 0.767951 0.716791 -0.234405
C58   C     C_R   0.313593 0.819205 0.676013 0.006634
C59   C     C_R   0.907793 0.317666 0.110266 0.543947
C60   C     C_R   0.332821 0.295318 0.090589 0.535854
C61   C     C_R   0.309924 0.897284 0.104939 0.537553
C62   C     C_R   0.883935 0.307957 0.904534 0.549864
C63   C     C_R   0.294808 0.289373 0.885903 0.576015
C64   C     C_R   0.918077 0.900696 0.135206 -0.076072
C65   C     C_R   0.274074 0.897455 0.897277 0.546755
C66   C     C_R   0.897402 0.003281 0.184994 -0.077445
C67   C     C_R   0.914326 0.709191 0.375040 -0.095251
C68   C     C_R   0.760873 0.110446 0.201703 -0.107578
C69   C     C_R   0.666346 0.004510 0.123893 -0.081436
C70   C     C_R   0.802509 0.900628 0.105163 -0.142119
Cr1   Cr    Cr6+3 0.601740 0.606840 0.505840 1.041704
Cr2   Cr    Cr6+3 0.291500 0.601560 0.495070 1.003051
Cr3   Cr    Cr6+3 0.606780 0.291630 0.499130 1.035032
Cr4   Cr    Cr6+3 0.062440 0.063060 0.008240 1.016970
Cr5   Cr    Cr6+3 0.062950 0.375000 0.998920 1.041633
Cr6   Cr    Cr6+3 0.374550 0.061770 0.992470 0.990501
F1    F     F_    0.077541 0.295018 0.374971 -0.613860
F2    F     F_    0.056356 0.465054 0.796219 -0.632583
F3    F     F_    0.578121 0.040380 0.682219 -0.650781
H1    H     H_    0.575303 0.165508 0.303070 0.140696
H2    H     H_    0.366779 0.075396 0.205267 0.153339
H3    H     H_    0.561177 0.959022 0.225209 0.143897
H4    H     H_    0.523302 0.961005 0.344135 0.136830
H5    H     H_    0.115311 0.459518 0.662116 0.149828
H6    H     H_    0.565473 0.055664 0.813950 0.183423
H7    H     H_    0.659101 0.155667 0.825986 0.093771
H8    H     H_    0.683644 0.150603 0.698112 0.133538
H9    H     H_    0.886577 0.777208 0.421388 0.102794
H10   H     H_    0.914195 0.119607 0.679149 0.123054
H11   H     H_    0.942011 0.095288 0.810307 0.136806
H12   H     H_    0.761459 0.625572 0.241469 0.128744
H13   H     H_    0.572442 0.567966 0.834730 0.119409
H14   H     H_    0.557940 0.589030 0.708048 0.140149
H15   H     H_    0.424681 0.932229 0.676013 0.206410
H16   H     H_    0.409501 0.969412 0.804284 0.166387
H17   H     H_    0.033199 0.869699 0.820795 0.148750
H18   H     H_    0.023036 0.817142 0.122381 0.115386
H19   H     H_    0.134596 0.674647 0.822219 0.174012
H20   H     H_    0.121970 0.673093 0.694262 0.162845
H21   H     H_    0.034262 0.867953 0.692724 0.141137
H22   H     H_    0.987302 0.997633 0.212047 0.118704
H23   H     H_    0.546974 0.517898 0.276404 0.128112
H24   H     H_    0.749482 0.181941 0.243703 0.119227
H25   H     H_    0.122269 0.662127 0.377466 0.171465
H26   H     H_    0.587800 0.978796 0.109034 0.171258
H27   H     H_    0.174769 0.525361 0.162939 0.117380
H28   H     H_    0.704458 0.752068 0.356460 0.128293
H29   H     H_    0.007202 0.479256 0.205558 0.132123
H30   H     H_    0.818353 0.814789 0.070513 0.103784
H31   H     H_    0.330228 0.053982 0.331240 0.180417
H32   H     H_    0.674984 0.661218 0.839222 0.167051
H33   H     H_    0.658288 0.685183 0.712287 0.187169
H34   H     H_    0.629951 0.483197 0.151067 0.126757
H35   H     H_    0.149675 0.241615 0.245899 0.159007
H36   H     H_    0.137737 0.078877 0.240233 0.101498
H37   H     H_    0.056536 0.116958 0.363822 0.115831
H38   H     H_    0.241351 0.688111 0.290242 0.132271
H39   H     H_    0.252362 0.711886 0.163274 0.123531
O1    O     O_R   0.748670 0.497520 0.427970 -0.461780
O2    O     O_R   0.417470 0.174910 0.067830 -0.538887
O3    O     O_R   0.375160 0.946380 0.070880 -0.516391
O4    O     O_R   0.476470 0.723930 0.429450 -0.514577
O5    O     O_R   0.160500 0.919670 0.926690 -0.520741
O6    O     O_R   0.933140 0.190380 0.936050 -0.515373
O7    O     O_R   0.909010 0.403210 0.925030 -0.475154
O8    O     O_R   0.179590 0.361290 0.918480 -0.440324
O9    O     O_R   0.391360 0.170840 0.907510 -0.548628
O10   O     O_R   0.350950 0.942600 0.922260 -0.517787
O11   O     O_3   0.166650 0.166610 0.999880 -0.253533
O12   O     O_R   0.300170 0.471020 0.567120 -0.509991
O13   O     O_R   0.264730 0.744140 0.416740 -0.557510
O14   O     O_R   0.309440 0.472410 0.418220 -0.514877
O15   O     O_R   0.501630 0.260530 0.414310 -0.534828
O16   O     O_R   0.727920 0.305730 0.428950 -0.509941
O17   O     O_R   0.738670 0.496020 0.588600 -0.501219
O18   O     O_R   0.467190 0.722540 0.578350 -0.499380
O19   O     O_R   0.254720 0.742640 0.577370 -0.515507
O20   O     O_R   0.491630 0.259030 0.574940 -0.464048
O21   O     O_R   0.718640 0.304340 0.577850 -0.507833
O22   O     O_3   0.500010 0.500010 0.500020 -0.292692
O23   O     O_R   0.186620 0.923750 0.087000 -0.526686
O24   O     O_R   0.957350 0.194160 0.084660 -0.487383
O25   O     O_R   0.935120 0.407280 0.085350 -0.538791
O26   O     O_R   0.203800 0.365060 0.067090 -0.515115

loop_
_geom_bond_atom_site_label_1
_geom_bond_atom_site_label_2
_ccdc_geom_bond_type
C66   C68   A    
C12   C69   A    
C23   C45   A    
C22   C29   A    
C41   C42   A    
Cr1   O4    S    
Cr4   O6    S    
C68   H24   S    
C5    C67   A    
C16   O16   A    
C25   H39   S    
C8    C56   A    
C62   O6    A    
C7    C8    A    
C4    O14   A    
C53   C54   A    
C12   C68   A    
C24   H38   S    
C43   H10   S    
C49   C65   S    
C13   C18   S    
Cr6   O3    S    
C21   C22   A    
C36   C37   S    
C48   C52   S    
C10   C15   A    
C31   C36   S    
Cr1   O17   S    
C30   C31   A    
C14   H23   S    
C46   H13   S    
C20   C25   A    
C6    H12   S    
C57   H20   S    
C52   O21   A    
C61   O3    A    
C20   C61   S    
C1    O4    A    
C34   H1    S    
C24   C29   A    
C59   O24   A    
C40   O20   A    
C41   C46   S    
C15   H34   S    
C51   C57   S    
C64   C70   A    
C43   C48   A    
Cr4   O5    S    
Cr4   O24   S    
C59   O25   A    
C26   H3    S    
C46   H32   S    
C66   H22   S    
C21   C26   S    
C17   H35   S    
Cr2   O14   S    
C47   H14   S    
C23   C60   S    
C13   C19   A    
C65   O10   A    
C24   C25   A    
C56   H25   S    
C39   C41   A    
C3    C8    S    
Cr5   O26   S    
C16   O1    A    
C18   H37   S    
Cr1   O18   S    
C51   C58   A    
C69   H26   S    
C12   C45   S    
C42   C48   A    
Cr3   O21   S    
C36   H7    S    
C57   H21   S    
C2    H27   S    
Cr5   O7    S    
C64   C66   A    
C43   C44   A    
C3    C9    A    
C70   H30   S    
C37   F3    S    
Cr6   O11   S    
C31   C32   A    
C64   H18   S    
C1    C29   S    
C17   C18   S    
C67   H9    S    
C50   C51   A    
C34   C45   A    
Cr6   O2    S    
C32   C37   S    
Cr3   O16   S    
C54   H16   S    
C39   C44   A    
Cr5   O25   S    
C7    H29   S    
C30   C35   A    
C61   O23   A    
Cr2   O19   S    
Cr4   O23   S    
Cr3   O15   S    
C26   H2    S    
C32   C38   A    
C22   C27   S    
C55   C57   S    
C26   C27   S    
C9    C34   A    
Cr6   O10   S    
C44   H11   S    
C17   H36   S    
Cr2   O13   S    
C5    H28   S    
C52   O17   A    
C39   C62   S    
C40   O12   A    
C46   C47   S    
C11   C17   S    
Cr1   O22   S    
C53   H15   S    
C28   O18   A    
C14   C19   A    
C37   H8    S    
C28   O19   A    
C50   C55   S    
C55   H17   S    
C1    O13   A    
C62   O7    A    
C53   C58   A    
Cr2   O12   S    
C6    C7    A    
Cr3   O22   S    
C28   C58   S    
C36   H6    S    
C56   C67   A    
C47   H33   S    
C35   F2    S    
C33   C38   A    
C27   H31   S    
Cr1   O1    S    
Cr5   O8    S    
C27   H4    S    
C2    C3    A    
C60   O26   A    
C38   C40   S    
C11   C13   A    
C5    C6    A    
C16   C19   S    
C55   H19   S    
C33   C35   A    
C60   O2    A    
C42   C47   S    
C65   O5    A    
C18   F1    S    
C69   C70   A    
C33   H5    S    
C63   O8    A    
C10   C11   A    
Cr5   O11   S    
Cr2   O22   S    
C20   C21   A    
C49   C50   A    
Cr3   O20   S    
Cr4   O11   S    
C2    C23   A    
Cr6   O9    S    
C14   C15   A    
C4    C9    S    
C30   C63   S    
C10   C59   S    
C63   O9    A    
C49   C54   A    
C4    O15   A    
