data_mof_unit_36016.cif
_audit_creation_date              2012-12-10T17:45:28-0500
_audit_creation_method            fapswitch 2.2
_symmetry_space_group_name_H-M    P1
_symmetry_Int_Tables_number       1
_space_group_crystal_system       triclinic
_cell_length_a                    11.512668
_cell_length_b                    10.651357
_cell_length_c                    10.014988
_cell_angle_alpha                 85.302002
_cell_angle_beta                  88.713785
_cell_angle_gamma                 92.812224
_cell_volume                      1222.06103036

loop_
_atom_site_label
_atom_site_type_symbol
_atom_type_description
_atom_site_fract_x
_atom_site_fract_y
_atom_site_fract_z
_atom_type_partial_charge
C1    C     C_R   0.506787 0.259724 0.506021 0.960991
C2    C     C_R   0.484819 0.873480 0.482786 -0.184760
C3    C     C_R   0.300516 0.396248 0.148399 -0.134051
C4    C     C_R   0.282330 0.499864 0.501250 0.998611
C5    C     C_R   0.195684 0.393045 0.079700 0.559638
C6    C     C_R   0.200790 0.380351 0.943245 -0.329346
C7    C     C_R   0.307992 0.390791 0.876058 0.586152
C8    C     C_R   0.405000 0.448073 0.934524 0.075600
C9    C     C_R   0.403409 0.449182 0.078188 -0.023629
C10   C     C_R   0.593720 0.544637 0.062983 0.019186
C11   C     C_R   0.592492 0.545162 0.920996 -0.076584
C12   C     C_R   0.341355 0.001597 0.825708 -0.242968
C13   C     C_R   0.495228 0.739722 0.494563 0.998973
C14   C     C_R   0.717726 0.501618 0.498685 0.919833
C15   C     C_1   0.161713 0.500916 0.503148 -0.014191
C16   C     C_1   0.059452 0.501821 0.501556 0.088700
C17   C     C_1   0.940759 0.502493 0.498229 0.068933
C18   C     C_1   0.838436 0.502462 0.496757 -0.097366
C19   C     C_R   0.426034 0.075894 0.747029 0.719080
C20   C     C_2   0.670621 0.148794 0.325719 1.068274
C21   C     C_2   0.319416 0.029274 0.965259 1.074401
C22   C     C_2   0.190147 0.818831 0.848928 1.101885
C23   C     C_R   0.282969 0.898341 0.772286 -0.366285
C24   C     C_2   0.701068 0.593918 0.120587 0.951816
C25   C     C_2   0.305844 0.286035 0.247148 1.002252
C26   C     C_R   0.323344 0.860632 0.649807 0.574720
C27   C     C_R   0.418166 0.927191 0.579874 -0.162459
C28   C     C_R   0.454484 0.046182 0.615445 -0.138132
C29   C     C_R   0.522929 0.125295 0.519717 -0.191856
C30   C     C_R   0.583300 0.073428 0.414742 -0.202303
C31   C     C_R   0.565384 0.946162 0.399507 0.582281
F1    F     F_    0.319605 0.322072 0.769854 -0.627773
F2    F     F_    0.491903 0.163007 0.807320 -0.585355
F3    F     F_    0.272876 0.756783 0.600671 -0.702251
F4    F     F_    0.631633 0.891873 0.309064 -0.595590
F5    F     F_    0.093035 0.362637 0.146968 -0.588417
H1    H     H_    0.124259 0.345897 0.893907 0.232004
H2    H     H_    0.667499 0.583518 0.861295 0.164209
H3    H     H_    0.799164 0.285070 0.307986 0.374143
H4    H     H_    0.202416 0.066491 0.107906 0.361380
H5    H     H_    0.079836 0.823336 0.694412 0.337964
H6    H     H_    0.777658 0.720480 0.233113 0.366773
H7    H     H_    0.370368 0.115829 0.289729 0.341406
N1    N     N_R   0.498930 0.498800 0.142780 -0.121097
N2    N     N_R   0.498900 0.498720 0.857170 -0.091903
O1    O     O_R   0.500000 0.316780 0.614690 -0.491927
O2    O     O_R   0.743106 0.240603 0.378037 -0.820915
O3    O     O_2   0.399869 0.028428 0.042656 -0.509154
O4    O     O_R   0.206874 0.052034 0.009221 -0.770275
O5    O     O_2   0.204565 0.782083 0.965804 -0.564735
O6    O     O_R   0.086763 0.782510 0.788685 -0.718316
O7    O     O_2   0.794026 0.550331 0.092611 -0.580958
O8    O     O_R   0.697806 0.694194 0.201139 -0.680107
O9    O     O_2   0.235067 0.269172 0.340668 -0.602413
O10   O     O_R   0.382864 0.192818 0.223531 -0.755410
O11   O     O_R   0.499990 0.316750 0.385360 -0.628283
O12   O     O_R   0.334450 0.500030 0.614670 -0.551805
O13   O     O_R   0.334440 0.500000 0.385330 -0.641892
O14   O     O_R   0.500010 0.683250 0.614640 -0.625639
O15   O     O_R   0.500000 0.683220 0.385310 -0.543689
O16   O     O_R   0.665560 0.500000 0.614670 -0.620030
O17   O     O_R   0.665550 0.499970 0.385330 -0.604683
O18   O     O_2   0.680262 0.129431 0.207349 -0.475579
Zn1   Zn    Zn3+2 0.500010 0.500020 0.653130 1.079325
Zn2   Zn    Zn3+2 0.499990 0.499980 0.346870 1.053595

loop_
_geom_bond_atom_site_label_1
_geom_bond_atom_site_label_2
_ccdc_geom_bond_type
C4    O12   A    
C24   O7    D    
O16   Zn1   S    
C6    C7    A    
C3    C9    A    
C11   H2    S    
O11   Zn2   S    
C14   C18   S    
N2    Zn1   S    
C22   O5    D    
C21   O3    D    
C20   O18   D    
C21   O4    S    
C17   C18   T    
N1    Zn2   S    
C6    H1    S    
C25   O10   S    
C7    C8    A    
C13   O15   A    
C20   C30   S    
C2    C27   A    
C19   C28   A    
C12   C23   A    
C26   C27   A    
C29   C30   A    
C4    C15   S    
C13   O14   A    
C5    C6    A    
C12   C19   A    
H7    O10   S    
C28   C29   A    
C1    O11   A    
H5    O6    S    
O15   Zn2   S    
H6    O8    S    
C22   O6    S    
C30   C31   A    
C31   F4    S    
C1    O1    A    
C11   N2    A    
C20   O2    S    
C16   C17   S    
C10   C11   A    
C1    C29   S    
C10   N1    A    
H4    O4    S    
C14   O17   A    
C5    F5    S    
O14   Zn1   S    
C3    C25   S    
C25   O9    D    
O12   Zn1   S    
H3    O2    S    
C19   F2    S    
C23   C26   A    
C4    O13   A    
C27   C28   A    
C2    C13   S    
C22   C23   S    
C2    C31   A    
C9    N1    A    
C7    F1    S    
O13   Zn2   S    
O17   Zn2   S    
C10   C24   S    
C24   O8    S    
C8    N2    A    
C14   O16   A    
C12   C21   S    
C26   F3    S    
C15   C16   T    
O1    Zn1   S    
C8    C9    A    
C3    C5    A    
