data_mof_unit_5765.cif
_audit_creation_date              2013-03-05T15:55:05-0500
_audit_creation_method            fapswitch 2.2
_symmetry_space_group_name_H-M    P1
_symmetry_Int_Tables_number       1
_space_group_crystal_system       triclinic
_cell_length_a                    14.878064
_cell_length_b                    15.020883
_cell_length_c                    14.956963
_cell_angle_alpha                 109.266274
_cell_angle_beta                  109.633881
_cell_angle_gamma                 109.086969
_cell_volume                      2586.5504047

loop_
_atom_site_label
_atom_site_type_symbol
_atom_site_description
_atom_site_fract_x
_atom_site_fract_y
_atom_site_fract_z
_atom_type_partial_charge
C1    C     C_R   0.185189 0.277199 0.245043 0.334910
N1    N     N_R   0.291070 0.347930 0.293870 -0.091449
C2    C     C_R   0.523151 0.432074 0.745072 -0.062253
H1    H     H_    0.549375 0.374340 0.749872 0.164054
N2    N     N_R   0.554050 0.497220 0.706150 -0.063042
C3    C     C_R   0.501676 0.199648 0.408795 -0.167984
H2    H     H_    0.471397 0.142904 0.324815 0.132186
N3    N     N_R   0.497240 0.291100 0.443210 -0.049904
C4    C     C_R   0.292170 0.600557 0.586667 -0.030292
H3    H     H_    0.327867 0.667324 0.666576 0.170736
N4    N     N_R   0.347890 0.554050 0.556810 -0.057616
C5    C     C_R   0.597419 0.292328 0.590442 0.251000
N5    N     N_R   0.554050 0.347900 0.556830 -0.070354
C6    C     C_R   0.201623 0.506896 0.407069 -0.074204
H4    H     H_    0.154949 0.485530 0.324112 0.181669
N6    N     N_R   0.291070 0.497250 0.443190 -0.068979
C7    C     C_R   0.442582 0.534481 0.759173 0.192131
N7    N     N_R   0.497240 0.554030 0.706140 -0.064587
C8    C     C_R   0.278474 0.186644 0.249783 -0.147839
H5    H     H_    0.298794 0.122455 0.232004 0.131653
N8    N     N_R   0.347890 0.291110 0.293870 -0.060329
C9    C     C_R   0.175534 0.175672 0.218138 -0.075348
C10   C     C_R   0.451562 0.451395 0.777337 -0.028239
C11   C     C_R   0.565208 0.200181 0.499491 0.018300
C12   C     C_R   0.199762 0.572824 0.494644 -0.004774
C13   C     C_R   0.471134 0.723743 0.409014 0.327287
N9    N     N_R   0.445950 0.652100 0.443170 -0.095833
C14   C     C_R   0.814381 0.564962 0.592789 -0.075868
H6    H     H_    0.874364 0.614823 0.677513 0.117402
N10   N     N_R   0.708930 0.502750 0.556810 -0.048888
C15   C     C_R   0.499589 0.406795 0.198593 -0.109423
H7    H     H_    0.525029 0.347955 0.172397 0.113075
N11   N     N_R   0.502760 0.445970 0.293860 -0.054748
C16   C     C_R   0.709591 0.798903 0.802727 0.276677
N12   N     N_R   0.652110 0.708890 0.706130 -0.095025
C17   C     C_R   0.801721 0.708467 0.801293 -0.179152
H8    H     H_    0.859036 0.680997 0.828436 0.161430
N13   N     N_R   0.708930 0.652070 0.706130 -0.068589
C18   C     C_R   0.404498 0.493658 0.194602 -0.045588
H9    H     H_    0.340307 0.510954 0.161631 0.184388
N14   N     N_R   0.445950 0.502780 0.293850 -0.064031
C19   C     C_R   0.567070 0.812504 0.591021 -0.079985
H10   H     H_    0.618213 0.877045 0.674652 0.175705
N15   N     N_R   0.502760 0.708900 0.556790 -0.057061
C20   C     C_R   0.724542 0.475763 0.410214 -0.110133
H11   H     H_    0.703586 0.444681 0.325790 0.098478
N16   N     N_R   0.652110 0.445950 0.443190 -0.049205
Ni1   Ni    Ni4+2 0.369690 0.500010 0.369700 0.282730
Ni2   Ni    Ni4+2 0.630310 0.499990 0.630300 0.249581
Ni3   Ni    Ni4+2 0.500000 0.369720 0.369720 0.225017
Ni4   Ni    Ni4+2 0.500000 0.630280 0.630280 0.302826
C21   C     C_R   0.548753 0.824364 0.500409 -0.142572
C22   C     C_R   0.827846 0.553033 0.502976 0.054141
C23   C     C_R   0.437436 0.434543 0.134051 0.016509
C24   C     C_R   0.803289 0.800028 0.862257 -0.052232
C25   C     C_R   0.063238 0.578801 0.162688 -0.112141
H12   H     H_    0.113593 0.637520 0.148992 0.197314
C26   C     C_R   0.074582 0.611165 0.266577 -0.134892
H13   H     H_    0.132661 0.694031 0.330849 0.182170
C27   C     C_R   0.010944 0.536941 0.287023 0.047391
C28   C     C_R   0.932816 0.430997 0.201266 -0.172064
H14   H     H_    0.881416 0.373251 0.215210 0.164220
C29   C     C_R   0.922647 0.398176 0.097789 -0.090557
H15   H     H_    0.863854 0.315255 0.033650 0.186329
C30   C     C_R   0.989625 0.471179 0.078184 0.418986
C31   C     C_R   0.929507 0.568106 0.403414 -0.202343
H16   H     H_    0.854144 0.533426 0.328702 0.131617
C32   C     C_R   0.932415 0.601252 0.503934 0.051639
C33   C     C_R   0.036284 0.665071 0.600365 0.047102
C34   C     C_R   0.127880 0.668454 0.593125 -0.065347
H17   H     H_    0.205084 0.711636 0.668272 0.154775
C35   C     C_R   0.118346 0.609505 0.492811 0.080459
C36   C     C_R   0.021449 0.571936 0.396227 0.072389
C37   C     C_R   0.058418 0.830744 0.737038 -0.111511
H18   H     H_    0.036781 0.854398 0.675313 0.160212
C38   C     C_R   0.093444 0.902603 0.844630 -0.022742
H19   H     H_    0.098047 0.980673 0.865187 0.156479
C39   C     C_R   0.124656 0.874781 0.925916 -0.126707
H20   H     H_    0.152479 0.930915 0.009338 0.132437
C40   C     C_R   0.120842 0.774876 0.899801 -0.116535
H21   H     H_    0.144547 0.753692 0.963169 0.176713
C41   C     C_R   0.088415 0.703331 0.792714 0.215955
C42   C     C_R   0.056486 0.731175 0.710321 -0.039989
C43   C     C_R   0.475386 0.369853 0.894221 0.062638
C44   C     C_R   0.413108 0.405523 0.838002 0.107002
C45   C     C_R   0.334431 0.420906 0.862573 -0.106653
H22   H     H_    0.279360 0.440528 0.815026 0.171307
C46   C     C_R   0.334191 0.421940 0.956019 -0.081737
H23   H     H_    0.280345 0.444463 0.979642 0.162452
C47   C     C_R   0.408574 0.401246 0.021238 0.104320
C48   C     C_R   0.473096 0.367883 0.985364 -0.048830
C49   C     C_3   0.465290 0.258677 0.949920 0.179409
C50   C     C_3   0.464986 0.259546 0.849263 -0.440592
H24   H     H_    0.539575 0.261407 0.005040 0.087823
H25   H     H_    0.539138 0.262138 0.845580 0.195666
H26   H     H_    0.386215 0.198247 0.772368 0.277153
C51   C     C_R   0.495563 0.961851 0.533316 0.044989
C52   C     C_R   0.562628 0.924923 0.507037 0.084694
C53   C     C_R   0.643346 0.987372 0.491700 -0.087253
H27   H     H_    0.699559 0.961755 0.477092 0.143965
C54   C     C_R   0.646865 0.080815 0.489905 -0.115239
H28   H     H_    0.706816 0.128888 0.475543 0.152985
C55   C     C_R   0.568321 0.107809 0.501582 0.019564
C56   C     C_R   0.496457 0.050765 0.527159 0.045363
C57   C     C_3   0.373781 0.999344 0.471164 0.085799
C58   C     C_3   0.373305 0.902938 0.485382 0.019855
H29   H     H_    0.336210 0.980161 0.384422 0.066343
H30   H     H_    0.329722 0.826013 0.407244 0.102480
C59   C     C_R   0.046060 0.984325 0.136249 0.034581
C60   C     C_R   0.082298 0.077981 0.128412 0.107205
C61   C     C_R   0.038220 0.073770 0.027460 -0.107287
H31   H     H_    0.073480 0.142775 0.017336 0.175992
C62   C     C_R   0.945032 0.981255 0.939932 -0.164274
H32   H     H_    0.907599 0.979215 0.862795 0.139241
C63   C     C_R   0.899329 0.892697 0.953229 0.089495
C64   C     C_R   0.953852 0.891116 0.048002 0.070525
C65   C     C_3   0.910727 0.863817 0.117669 0.072076
C66   C     C_3   0.013325 0.966030 0.215398 -0.452662
H33   H     H_    0.834044 0.867774 0.102896 0.166994
H34   H     H_    0.996182 0.029113 0.257939 0.209338
H35   H     H_    0.070623 0.950656 0.270143 0.239096
N17   N     N_R   0.099697 0.296971 0.193857 0.205900
O1    O     O_R   0.002170 0.242868 0.177983 -0.398452
O2    O     O_R   0.114248 0.354024 0.145676 -0.431702
N18   N     N_R   0.663842 0.859636 0.848006 0.234675
O3    O     O_R   0.724436 0.944341 0.945166 -0.354326
O4    O     O_R   0.559261 0.825503 0.796046 -0.370950
N19   N     N_R   0.985685 0.435380 0.974514 0.255783
O5    O     O_R   0.037645 0.505040 0.951707 -0.353454
O6    O     O_R   0.937044 0.332419 0.905427 -0.340623
I1    I     I_    0.085052 0.553101 0.758487 -0.289720
N20   N     N_R   0.362519 0.174120 0.926609 0.264041
O7    O     O_R   0.267815 0.158274 0.861474 -0.383872
O8    O     O_R   0.365775 0.114019 0.972075 -0.385856
N21   N     N_R   0.334427 0.058850 0.532254 0.280579
O9    O     O_R   0.229730 0.016303 0.497713 -0.336808
O10   O     O_R   0.397351 0.161974 0.601593 -0.440622
N22   N     N_R   0.341379 0.890478 0.565114 0.272664
O11   O     O_R   0.238500 0.849491 0.538240 -0.368179
O12   O     O_R   0.412620 0.909369 0.658291 -0.335947
I2    I     I_    0.902589 0.716682 0.110626 -0.398713
I3    I     I_    0.733845 0.359382 0.745314 -0.309255
I4    I     I_    0.415143 0.652043 0.854514 -0.286430
N23   N     N_R   0.403888 0.705918 0.303770 0.210551
O13   O     O_R   0.443855 0.766043 0.266242 -0.394147
O14   O     O_R   0.298783 0.641288 0.253139 -0.456681

loop_
_geom_bond_atom_site_label_1
_geom_bond_atom_site_label_2
_geom_bond_distance
_ccdc_geom_bond_type
N9    Ni1   1.877281 S    
C31   C32   1.399438 A    
C29   C30   1.405472 A    
N3    N5    1.391618 A    
C2    C10   1.380827 A    
C8    H5    1.080369 S    
C37   C42   1.402539 A    
N19   O5    1.300994 A    
N6    Ni1   1.854872 S    
C51   C52   1.392637 A    
C4    C12   1.390524 A    
N21   O9    1.300754 A    
C18   N14   1.340902 A    
N13   Ni2   1.877258 S    
C20   H11   1.077414 S    
C64   C65   1.491573 S    
C5    N5    1.333063 A    
C57   H29   1.113252 S    
C13   N9    1.336869 A    
C7    C10   1.399147 A    
C37   C38   1.395926 A    
C17   H8    1.081780 S    
C8    N8    1.327919 A    
C38   C39   1.396873 A    
C16   N12   1.330871 A    
C65   H33   1.112471 S    
C40   H21   1.082476 S    
C39   C40   1.396548 A    
C58   N22   1.467179 S    
C18   C23   1.378769 A    
C26   C27   1.400781 A    
C25   C30   1.404919 A    
C27   C36   1.475363 S    
C25   H12   1.082317 S    
C1    N1    1.328138 A    
C28   C29   1.397021 A    
C22   C32   1.478670 S    
C60   C61   1.399420 A    
C56   C57   1.501051 S    
C59   C64   1.375459 A    
C1    N17   1.426502 S    
N9    N15   1.391619 A    
C61   H31   1.083431 S    
C5    I3    2.112772 S    
N20   O7    1.302395 A    
C9    C60   1.413044 S    
C59   C66   1.492922 S    
C15   N11   1.327469 A    
C34   H17   1.080475 S    
C43   C48   1.384780 A    
C4    H3    1.072584 S    
C57   N21   1.462703 S    
C58   H30   1.109508 S    
C31   H16   1.081263 S    
C20   C22   1.404265 A    
C16   C24   1.370013 A    
C50   H25   1.111683 S    
N2    Ni2   1.855100 S    
C28   H14   1.083255 S    
C19   N15   1.330651 A    
C13   N23   1.427884 S    
N8    Ni3   1.856312 S    
N7    Ni4   1.859850 S    
N16   Ni3   1.855791 S    
N17   O1    1.300851 A    
C20   N16   1.338837 A    
C37   H18   1.083396 S    
C54   H28   1.083073 S    
N10   N16   1.391618 A    
C8    C9    1.375909 A    
C38   H19   1.081580 S    
C40   C41   1.399579 A    
C48   C49   1.498496 S    
C39   H20   1.081446 S    
C32   C33   1.417123 A    
C3    N3    1.331111 A    
N2    N7    1.383582 A    
N1    Ni1   1.877258 S    
N11   Ni3   1.859849 S    
C44   C45   1.403086 A    
C31   C36   1.391948 A    
C27   C28   1.403605 A    
C66   H35   1.111290 S    
C65   I2    2.138480 S    
C30   N19   1.437012 S    
C33   C42   1.475118 S    
C13   C21   1.385938 A    
N4    N6    1.391618 A    
C53   H27   1.083093 S    
C3    C11   1.363787 A    
N12   N13   1.383824 A    
N1    N8    1.383826 A    
C49   H24   1.112926 S    
C7    N7    1.344522 A    
C61   C62   1.373637 A    
C12   C35   1.481804 S    
C43   C44   1.396813 A    
C4    N4    1.340283 A    
N22   O12   1.302256 A    
N20   O8    1.300537 A    
N5    Ni2   1.877281 S    
C51   C58   1.502646 S    
N15   Ni4   1.860043 S    
N23   O14   1.299026 A    
C53   C54   1.396876 A    
N10   Ni2   1.854874 S    
C46   C47   1.404468 A    
C52   C53   1.401831 A    
C50   H26   1.110708 S    
N12   Ni4   1.856311 S    
N18   O3    1.301028 A    
C6    N6    1.333612 A    
C19   H10   1.077584 S    
N17   O2    1.300639 A    
C2    H1    1.073778 S    
N3    Ni3   1.860044 S    
C18   H9    1.073816 S    
C62   H32   1.084404 S    
N21   O10   1.300163 A    
C14   H6    1.067596 S    
C49   N20   1.467009 S    
C45   H22   1.081030 S    
C15   H7    1.080670 S    
C35   C36   1.419178 A    
C2    N2    1.330184 A    
N19   O6    1.301624 A    
C15   C23   1.370547 A    
C14   C22   1.386464 A    
C23   C47   1.448238 S    
C3    H2    1.081339 S    
C57   C58   1.529645 S    
C5    C11   1.371697 A    
C7    I4    2.125893 S    
N23   O13   1.300731 A    
C11   C55   1.413496 S    
N11   N14   1.383579 A    
C17   N13   1.329810 A    
C26   H13   1.081128 S    
C14   N10   1.328997 A    
C17   C24   1.364061 A    
C65   C66   1.520117 S    
C47   C48   1.394232 A    
C24   C63   1.404807 S    
C16   N18   1.436087 S    
C21   C52   1.420391 S    
C49   C50   1.508388 S    
N14   Ni1   1.855100 S    
C25   C26   1.396749 A    
C45   C46   1.393839 A    
C43   C50   1.499534 S    
C6    C12   1.372386 A    
C33   C34   1.388883 A    
C66   H34   1.112211 S    
C51   C56   1.364817 A    
N4    Ni4   1.855791 S    
N22   O11   1.300160 A    
C29   H15   1.082516 S    
C1    C9    1.386063 A    
C46   H23   1.081528 S    
C54   C55   1.400296 A    
C41   C42   1.412777 A    
C10   C44   1.459127 S    
C55   C56   1.384108 A    
N18   O4    1.300219 A    
C6    H4    1.066400 S    
C34   C35   1.397665 A    
C41   I1    2.122115 S    
C59   C60   1.392394 A    
C63   C64   1.389244 A    
C19   C21   1.373201 A    
C62   C63   1.394743 A    
