data_mof_unit_10921.cif
_audit_creation_date              2012-10-26T19:20:36-0400
_audit_creation_method            fapswitch 2.2
_symmetry_space_group_name_H-M    P1
_symmetry_Int_Tables_number       1
_space_group_crystal_system       triclinic
_cell_length_a                    10.771542
_cell_length_b                    11.062283
_cell_length_c                    9.84568
_cell_angle_alpha                 111.758469
_cell_angle_beta                  97.756336
_cell_angle_gamma                 91.168114
_cell_volume                      1076.47182048

loop_
_atom_site_label
_atom_site_type_symbol
_atom_type_description
_atom_site_fract_x
_atom_site_fract_y
_atom_site_fract_z
_atom_type_partial_charge
C1    C     C_R   0.489643 0.253667 0.439561 0.521824
C2    C     C_R   0.736850 0.499705 0.498293 0.528230
C3    C     C_R   0.140769 0.737024 0.553952 -0.084126
C4    C     C_R   0.859166 0.262913 0.445743 -0.081800
C5    C     C_R   0.081145 0.851921 0.575693 -0.113938
C6    C     C_R   0.918813 0.148025 0.424053 -0.111799
C7    C     C_R   0.951510 0.850985 0.570492 -0.116053
C8    C     C_R   0.048479 0.149016 0.429548 -0.117246
C9    C     C_R   0.881032 0.735164 0.543615 -0.093332
C10   C     C_R   0.118960 0.264866 0.456567 -0.094607
C11   C     C_R   0.939756 0.617286 0.521543 0.007347
C12   C     C_R   0.508641 0.746324 0.560494 0.521557
C13   C     C_R   0.060223 0.382714 0.478492 0.007585
C14   C     C_R   0.071054 0.618210 0.526663 0.010602
C15   C     C_R   0.928910 0.381764 0.473236 0.010512
C16   C     C_R   0.870235 0.499116 0.495149 -0.011784
C17   C     C_R   0.129746 0.500875 0.504841 -0.011565
C18   C     C_1   0.547358 0.974433 0.750233 0.203063
C19   C     C_1   0.469746 0.025713 0.249165 0.200493
C20   C     C_2   0.481427 0.113164 0.403194 -0.046681
C21   C     C_2   0.511638 0.886778 0.597031 -0.047233
C22   C     C_2   0.486279 0.069349 0.513501 -0.181426
C23   C     C_2   0.482456 0.930370 0.487561 -0.182353
C24   C     C_2   0.510678 0.510610 0.081396 -0.005831
C25   C     C_2   0.489335 0.489369 0.918593 -0.006170
C26   C     C_R   0.263142 0.500285 0.501703 0.527149
Cu1   Cu    Cu3+1 0.521920 0.521810 0.644910 0.959919
Cu2   Cu    Cu3+1 0.478080 0.478190 0.355090 0.958101
H1    H     H_    0.094679 0.059690 0.412469 0.116069
H2    H     H_    0.219533 0.260991 0.460042 0.117856
H3    H     H_    0.416273 0.416616 0.845410 0.146505
H4    H     H_    0.583759 0.583342 0.154569 0.149550
H5    H     H_    0.623506 0.623140 0.934751 0.215418
H6    H     H_    0.376465 0.376891 0.065259 0.213159
H7    H     H_    0.905335 0.940333 0.587672 0.117393
H8    H     H_    0.456498 0.861032 0.374504 0.169130
H9    H     H_    0.495186 0.138522 0.627140 0.166064
H10   H     H_    0.241727 0.742521 0.559453 0.124906
H11   H     H_    0.758169 0.257375 0.440043 0.126488
H12   H     H_    0.135859 0.941994 0.597022 0.114821
H13   H     H_    0.864102 0.057915 0.402563 0.116288
H14   H     H_    0.780470 0.739083 0.540366 0.119356
N1    N     N_2   0.445130 0.445420 0.137360 -0.341423
N2    N     N_2   0.554870 0.554580 0.862640 -0.340039
N3    N     N_1   0.575898 0.044326 0.872366 -0.267888
N4    N     N_1   0.460432 0.955975 0.126371 -0.270519
O1    O     O_R   0.511700 0.332340 0.577400 -0.512118
O2    O     O_R   0.488300 0.667660 0.422600 -0.513002
O3    O     O_R   0.474680 0.295500 0.332650 -0.474301
O4    O     O_R   0.525320 0.704500 0.667350 -0.473309
O5    O     O_R   0.338170 0.518410 0.622370 -0.497208
O6    O     O_R   0.661830 0.481590 0.377630 -0.495598
O7    O     O_R   0.301150 0.481570 0.377630 -0.489648
O8    O     O_R   0.698850 0.518430 0.622370 -0.488389

loop_
_geom_bond_atom_site_label_1
_geom_bond_atom_site_label_2
_ccdc_geom_bond_type
C25   H3    S    
C12   O4    A    
Cu2   O7    S    
C24   H4    S    
C22   H9    S    
C18   C21   S    
Cu2   O6    S    
Cu2   O3    S    
C10   H2    S    
Cu2   N1    S    
C19   C20   S    
C4    H11   S    
C13   C17   A    
C12   O2    A    
C4    C15   A    
C13   C15   A    
C19   N4    T    
C26   O5    A    
C9    C11   A    
C14   C17   A    
C9    H14   S    
C3    C14   A    
C2    O6    A    
C17   C26   S    
C12   C21   S    
C25   N2    D    
C8    C10   A    
Cu1   O5    S    
C21   C23   D    
C2    O8    A    
C11   C14   A    
Cu1   O8    S    
C8    H1    S    
C15   C16   A    
C18   N3    T    
C7    C9    A    
C26   O7    A    
C2    C16   S    
C24   C25   S    
Cu1   O4    S    
C4    C6    A    
C23   H8    S    
C11   C16   A    
C5    H12   S    
Cu1   O1    S    
Cu1   Cu2   S    
C5    C7    A    
C24   N1    D    
C22   C23   S    
C1    O1    A    
C1    C20   S    
C6    C8    A    
H5    N2    S    
C7    H7    S    
Cu1   N2    S    
C6    H13   S    
Cu2   O2    S    
H6    N1    S    
C3    H10   S    
C20   C22   D    
C3    C5    A    
C10   C13   A    
C1    O3    A    
