data_mof_unit_9766.cif
_audit_creation_date              2012-12-11T17:09:33-0500
_audit_creation_method            fapswitch 2.2
_symmetry_space_group_name_H-M    P1
_symmetry_Int_Tables_number       1
_space_group_crystal_system       triclinic
_cell_length_a                    14.808224
_cell_length_b                    6.964157
_cell_length_c                    13.496408
_cell_angle_alpha                 90.000022
_cell_angle_beta                  99.860608
_cell_angle_gamma                 90.0
_cell_volume                      1371.28006862

loop_
_atom_site_label
_atom_site_type_symbol
_atom_type_description
_atom_site_fract_x
_atom_site_fract_y
_atom_site_fract_z
_atom_type_partial_charge
O1    O     O_R   0.586930 0.505770 0.416350 -0.545230
O2    O     O_R   0.413070 0.005770 0.583650 -0.545230
O3    O     O_R   0.397900 0.173100 0.389630 -0.532062
O4    O     O_R   0.602100 0.673100 0.610370 -0.532062
C1    C     C_R   0.364377 0.345380 0.362913 0.725923
C2    C     C_R   0.635623 0.845380 0.637087 0.725923
O5    O     O_R   0.585280 0.175870 0.404330 -0.539835
O6    O     O_R   0.414720 0.675870 0.595670 -0.539835
O7    O     O_R   0.601790 0.008380 0.598460 -0.536135
O8    O     O_R   0.398210 0.508380 0.401540 -0.536136
C3    C     C_R   0.614463 0.344800 0.382772 0.700139
C4    C     C_R   0.385537 0.844800 0.617228 0.700139
O9    O     O_3   0.505200 0.340120 0.563670 -0.366950
O10   O     O_3   0.494800 0.840120 0.436330 -0.366950
V1    V     V_3+5 0.499040 0.064180 0.488190 1.462809
V2    V     V_3+5 0.500960 0.564180 0.511810 1.462809
C5    C     C_R   0.317395 0.008960 0.753474 0.060483
C6    C     C_R   0.682605 0.508960 0.246527 0.060483
C7    C     C_R   0.319093 0.853548 0.687689 -0.092864
C8    C     C_R   0.680907 0.353548 0.312311 -0.092864
C9    C     C_R   0.253544 0.707488 0.689036 -0.159169
C10   C     C_R   0.746456 0.207489 0.310964 -0.159169
H1    H     H_    0.250725 0.587481 0.637729 0.121249
H2    H     H_    0.749275 0.087481 0.362271 0.121248
C11   C     C_R   0.186585 0.722058 0.751331 -0.143494
C12   C     C_R   0.813415 0.222057 0.248668 -0.143493
H3    H     H_    0.132838 0.617251 0.745867 0.142868
H4    H     H_    0.867161 0.117250 0.254132 0.142867
C13   C     C_R   0.184230 0.878455 0.815966 -0.092281
C14   C     C_R   0.815770 0.378455 0.184033 -0.092281
C15   C     C_R   0.249966 0.022326 0.814679 0.038867
C16   C     C_R   0.750034 0.522326 0.185321 0.038867
C17   C     C_3   0.233692 0.229682 0.790184 -0.156734
C18   C     C_3   0.766308 0.729682 0.209816 -0.156734
C19   C     C_3   0.310859 0.217714 0.727689 -0.308396
C20   C     C_3   0.689142 0.717714 0.272311 -0.308396
H5    H     H_    0.289156 0.243633 0.645690 0.126066
H6    H     H_    0.710845 0.743633 0.354311 0.126066
C21   C     C_1   0.783558 0.877146 0.782810 -0.150239
C22   C     C_1   0.216442 0.377146 0.217190 -0.150239
C23   C     C_1   0.716184 0.860080 0.716766 -0.157844
C24   C     C_1   0.283816 0.360080 0.283234 -0.157844
O11   O     O_R   0.101720 0.231700 0.098560 -0.540195
O12   O     O_R   0.898280 0.731700 0.901440 -0.540195
O13   O     O_R   0.914700 0.558980 0.095690 -0.543802
O14   O     O_R   0.085300 0.058980 0.904310 -0.543802
C25   C     C_R   0.885690 0.389965 0.117500 0.700404
C26   C     C_R   0.114309 0.889965 0.882500 0.700405
O15   O     O_R   0.102080 0.561590 0.110390 -0.532376
O16   O     O_R   0.897920 0.061590 0.889610 -0.532376
O17   O     O_R   0.086950 0.728940 0.916330 -0.534570
O18   O     O_R   0.913050 0.228940 0.083670 -0.534569
C27   C     C_R   0.135868 0.391930 0.137540 0.759463
C28   C     C_R   0.864132 0.891930 0.862460 0.759463
O19   O     O_3   0.994770 0.394510 0.936380 -0.370829
O20   O     O_3   0.005230 0.894510 0.063620 -0.370830
V3    V     V_3+5 0.000970 0.670520 0.011800 1.494512
V4    V     V_3+5 0.999030 0.170520 0.988200 1.494512
C29   C     C_1   0.249997 0.349710 0.881557 0.333389
N1    N     N_1   0.263058 0.443569 0.953351 -0.352042
C30   C     C_1   0.750004 0.849710 0.118443 0.333388
N2    N     N_1   0.736942 0.943570 0.046650 -0.352041
C31   C     C_1   0.142665 0.259802 0.727725 0.289416
N3    N     N_1   0.071253 0.281043 0.678537 -0.360258
C32   C     C_1   0.857335 0.759801 0.272276 0.289416
N4    N     N_1   0.928748 0.781042 0.321464 -0.360258
C33   C     C_1   0.396620 0.318495 0.769233 0.388416
N5    N     N_1   0.463885 0.397718 0.801740 -0.328700
C34   C     C_1   0.603381 0.818496 0.230768 0.388416
N6    N     N_1   0.536116 0.897721 0.198261 -0.328700

loop_
_geom_bond_atom_site_label_1
_geom_bond_atom_site_label_2
_ccdc_geom_bond_type
C1    C24   S    
O1    C3    A    
O2    C4    A    
C2    O7    A    
C21   C23   T    
O5    C3    A    
O13   V3    S    
O16   C28   A    
C10   H2    S    
C19   H5    S    
C21   C28   S    
O15   V3    S    
O20   V3    S    
O11   V4    S    
C5    C7    A    
O11   C27   A    
C26   O17   A    
C2    C23   S    
C15   C17   S    
O17   V3    S    
C6    C8    A    
C17   C31   S    
C22   C24   T    
C29   N1    T    
O6    V2    S    
O14   V4    S    
C34   N6    T    
C18   C32   S    
O13   C25   A    
C9    H1    S    
C11   C13   A    
O14   C26   A    
C3    C8    S    
C13   C26   S    
C33   N5    T    
O16   V4    S    
C14   C25   S    
O4    C2    A    
O5    V1    S    
C18   C30   S    
C16   C18   S    
O4    V2    S    
C19   C33   S    
O12   V3    S    
O6    C4    A    
O1    V2    S    
O2    V1    S    
O18   V4    S    
C8    C10   A    
C12   C14   A    
O19   V3    S    
C5    C15   A    
O10   V2    S    
O19   V4    S    
C6    C16   A    
O3    V1    S    
C20   C34   S    
C9    C11   A    
C7    C9    A    
O3    C1    A    
C22   C27   S    
C25   O18   A    
C11   H3    S    
C12   H4    S    
O9    V1    S    
O7    V1    S    
C1    O8    A    
C13   C15   A    
O8    V2    S    
C14   C16   A    
O15   C27   A    
C4    C7    S    
C20   H6    S    
C17   C19   S    
O20   V4    S    
C18   C20   S    
C30   N2    T    
C31   N3    T    
O12   C28   A    
C17   C29   S    
C32   N4    T    
C10   C12   A    
O9    V2    S    
O10   V1    S    
C5    C19   S    
C6    C20   S    
