data_mof_unit_61074.cif
_audit_creation_date              2013-03-05T16:29:53-0500
_audit_creation_method            fapswitch 2.2
_symmetry_space_group_name_H-M    P1
_symmetry_Int_Tables_number       1
_space_group_crystal_system       triclinic
_cell_length_a                    38.957642
_cell_length_b                    32.094982
_cell_length_c                    21.759288
_cell_angle_alpha                 90.589116
_cell_angle_beta                  124.556619
_cell_angle_gamma                 89.910847
_cell_volume                      22404.9569412

loop_
_atom_site_label
_atom_site_type_symbol
_atom_site_description
_atom_site_fract_x
_atom_site_fract_y
_atom_site_fract_z
_atom_type_partial_charge
O1    O     O_R   0.439010 0.534430 0.439020 -0.619064
O2    O     O_R   0.560990 0.534430 0.560980 -0.613895
O3    O     O_R   0.939010 0.034430 0.439020 -0.618934
O4    O     O_R   0.060990 0.034430 0.560980 -0.613981
O5    O     O_R   0.439010 0.465570 0.438980 -0.611770
O6    O     O_R   0.560990 0.465570 0.561020 -0.616905
O7    O     O_R   0.939010 0.965570 0.438980 -0.611938
O8    O     O_R   0.060990 0.965570 0.561020 -0.617097
C1    C     C_R   0.419292 0.499903 0.419256 0.908744
C2    C     C_R   0.580708 0.500095 0.580742 0.908655
C3    C     C_R   0.919292 0.999903 0.419256 0.909053
C4    C     C_R   0.080708 0.000095 0.580740 0.908580
O9    O     O_R   0.500010 0.534430 0.590460 -0.622471
O10   O     O_R   0.499990 0.534430 0.409540 -0.616582
O11   O     O_R   0.000010 0.034430 0.590460 -0.622490
O12   O     O_R   0.999990 0.034430 0.409540 -0.616588
O13   O     O_R   0.500010 0.465570 0.590420 -0.613702
O14   O     O_R   0.499990 0.465570 0.409580 -0.619207
O15   O     O_R   0.000010 0.965570 0.590420 -0.613966
O16   O     O_R   0.999990 0.965570 0.409580 -0.619582
C5    C     C_R   0.501526 0.500343 0.620705 0.934706
C6    C     C_R   0.498473 0.499643 0.379296 0.934171
C7    C     C_R   0.001526 0.000343 0.620704 0.934812
C8    C     C_R   0.998473 0.999643 0.379296 0.934211
Zn1   Zn    Zn3+2 0.500000 0.545980 0.500000 0.972588
Zn2   Zn    Zn3+2 1.000000 0.045980 0.500000 0.972014
Zn3   Zn    Zn3+2 0.500000 0.454020 0.500000 0.983899
Zn4   Zn    Zn3+2 0.000000 0.954020 0.500000 0.981890
C9    C     C_2   0.528087 0.475477 0.811493 -0.147093
C10   C     C_2   0.471890 0.524471 0.188485 -0.150662
C11   C     C_2   0.028089 0.975479 0.811496 -0.147793
C12   C     C_2   0.971888 0.024470 0.188484 -0.150495
C13   C     C_2   0.497761 0.494039 0.812763 -0.333737
C14   C     C_2   0.502234 0.505941 0.187234 -0.332448
C15   C     C_2   0.997761 0.994038 0.812763 -0.333507
C16   C     C_2   0.002234 0.005943 0.187234 -0.332659
H1    H     H_    0.554690 0.461665 0.861344 0.170375
H2    H     H_    0.445277 0.538266 0.138626 0.169467
H3    H     H_    0.054694 0.961670 0.861348 0.170170
H4    H     H_    0.945274 0.038262 0.138623 0.169524
H5    H     H_    0.468987 0.503515 0.761454 0.159306
H6    H     H_    0.531013 0.496480 0.238550 0.159929
H7    H     H_    0.968986 0.003511 0.761453 0.159412
H8    H     H_    0.031013 0.996485 0.238551 0.159634
C17   C     C_2   0.524447 0.471836 0.741007 -0.147376
C18   C     C_2   0.475524 0.528111 0.258964 -0.152208
C19   C     C_2   0.024450 0.971838 0.741009 -0.148308
C20   C     C_2   0.975522 0.028110 0.258963 -0.152238
C21   C     C_2   0.505936 0.502183 0.690877 -0.335035
C22   C     C_2   0.494054 0.497777 0.309117 -0.331541
C23   C     C_2   0.005936 0.002183 0.690876 -0.334798
C24   C     C_2   0.994054 0.997777 0.309117 -0.332033
H9    H     H_    0.538237 0.445224 0.731570 0.171115
H10   H     H_    0.461722 0.554718 0.268385 0.169145
H11   H     H_    0.038243 0.945228 0.731576 0.170533
H12   H     H_    0.961717 0.054715 0.268381 0.169104
H13   H     H_    0.496486 0.530957 0.703951 0.159029
H14   H     H_    0.503520 0.469006 0.296066 0.162044
H15   H     H_    0.996482 0.030956 0.703947 0.159016
H16   H     H_    0.003523 0.969007 0.296068 0.161816
H17   H     H_    0.287452 0.450214 0.220168 0.146933
H18   H     H_    0.711902 0.449737 0.775867 0.145562
H19   H     H_    0.787443 0.951049 0.218865 0.146908
H20   H     H_    0.212062 0.958213 0.788158 0.144953
C25   C     C_R   0.227748 0.471763 0.190540 -0.174516
C26   C     C_R   0.771884 0.471676 0.807298 -0.175520
C27   C     C_R   0.727743 0.972237 0.189800 -0.174538
C28   C     C_R   0.271975 0.976441 0.814253 -0.173464
H21   H     H_    0.210681 0.450270 0.143725 0.146099
H22   H     H_    0.788665 0.449574 0.852233 0.145443
H23   H     H_    0.710672 0.951108 0.142420 0.146275
H24   H     H_    0.288826 0.958036 0.864536 0.146164
C29   C     C_R   0.206628 0.499542 0.207870 0.163535
C30   C     C_R   0.793372 0.500082 0.792302 0.162270
C31   C     C_R   0.706627 0.999549 0.207859 0.162753
C32   C     C_R   0.293371 0.000070 0.792361 0.163735
C33   C     C_R   0.228761 0.527262 0.268317 -0.169188
C34   C     C_R   0.771607 0.528589 0.734281 -0.164290
C35   C     C_R   0.728765 0.026800 0.269035 -0.167072
C36   C     C_R   0.271515 0.023812 0.727438 -0.171604
H25   H     H_    0.212481 0.548829 0.281845 0.147765
H26   H     H_    0.788173 0.550644 0.722570 0.151428
H27   H     H_    0.712489 0.048003 0.283129 0.149564
H28   H     H_    0.288011 0.042161 0.710368 0.147098
C37   C     C_R   0.272190 0.527233 0.311554 -0.175735
C38   C     C_R   0.728176 0.528689 0.691089 -0.174622
C39   C     C_R   0.772194 0.026768 0.312274 -0.175921
C40   C     C_R   0.228084 0.023922 0.684238 -0.175340
H29   H     H_    0.289258 0.548771 0.358298 0.144926
H30   H     H_    0.711390 0.550803 0.646178 0.146663
H31   H     H_    0.789266 0.047942 0.359585 0.145261
H32   H     H_    0.211228 0.042335 0.633967 0.144938
C41   C     C_R   0.293309 0.499488 0.294164 0.163752
C42   C     C_R   0.706693 0.500289 0.706113 0.163405
C43   C     C_R   0.793308 0.999490 0.294157 0.163566
C44   C     C_R   0.206693 0.000297 0.706151 0.164821
C45   C     C_R   0.271175 0.471735 0.233774 -0.173558
C46   C     C_R   0.728462 0.471777 0.764116 -0.173739
C47   C     C_R   0.771170 0.972206 0.233035 -0.173149
C48   C     C_R   0.228552 0.976551 0.771062 -0.174937
C49   C     C_1   0.162205 0.499719 0.163354 -0.057778
C50   C     C_1   0.837795 0.500060 0.836714 -0.054441
C51   C     C_1   0.662204 0.999727 0.163349 -0.055697
C52   C     C_1   0.337794 0.000041 0.836736 -0.059062
C53   C     C_1   0.337729 0.499571 0.338223 -0.063001
C54   C     C_1   0.662272 0.500344 0.661929 -0.062367
C55   C     C_1   0.837729 0.999573 0.338220 -0.062756
C56   C     C_1   0.162272 0.000345 0.661946 -0.063490
C57   C     C_1   0.375038 0.499695 0.375248 -0.173279
C58   C     C_1   0.624962 0.500288 0.624819 -0.173063
C59   C     C_1   0.875038 0.999695 0.375246 -0.173383
C60   C     C_1   0.124962 0.000287 0.624824 -0.173916
C61   C     C_1   0.124893 0.499860 0.125748 -0.162079
C62   C     C_1   0.875107 0.500025 0.874266 -0.157481
C63   C     C_1   0.624893 0.999867 0.125747 -0.158732
C64   C     C_1   0.375107 0.000009 0.874270 -0.163364
O17   O     O_R   0.534430 0.439010 0.034350 -0.616510
O18   O     O_R   0.465570 0.439010 0.965650 -0.611300
O19   O     O_R   0.034430 0.939010 0.034350 -0.616484
O20   O     O_R   0.965570 0.939010 0.965650 -0.611487
C65   C     C_R   0.499911 0.419311 0.999809 0.907552
C66   C     C_R   0.999901 0.919317 0.999984 0.907792
O21   O     O_R   0.534420 0.500000 0.943920 -0.615053
O22   O     O_R   0.465580 0.500000 0.056080 -0.614594
O23   O     O_R   0.034420 0.000000 0.943920 -0.615095
O24   O     O_R   0.965580 0.000000 0.056080 -0.614543
O25   O     O_R   0.465560 0.500000 0.875080 -0.621931
O26   O     O_R   0.534440 0.500000 0.124920 -0.621946
O27   O     O_R   0.965560 0.000000 0.875080 -0.621695
O28   O     O_R   0.034440 0.000000 0.124920 -0.622272
C67   C     C_R   0.499631 0.498477 0.880389 0.934897
C68   C     C_R   0.500368 0.501516 0.119611 0.935834
C69   C     C_R   0.999631 0.998477 0.880389 0.935098
C70   C     C_R   0.000368 0.001517 0.119611 0.935618
Zn5   Zn    Zn3+2 0.545980 0.500000 0.045940 0.977636
Zn6   Zn    Zn3+2 0.454020 0.500000 0.954060 0.977467
Zn7   Zn    Zn3+2 0.045980 0.000000 0.045940 0.977071
Zn8   Zn    Zn3+2 0.954020 0.000000 0.954060 0.978026
O29   O     O_R   0.534430 0.560990 0.034430 -0.613571
O30   O     O_R   0.465570 0.560990 0.965570 -0.618839
O31   O     O_R   0.034430 0.060990 0.034430 -0.613856
O32   O     O_R   0.965570 0.060990 0.965570 -0.618673
C71   C     C_R   0.500097 0.580716 0.000116 0.907773
C72   C     C_R   0.000097 0.080716 0.000117 0.907771
O33   O     O_R   0.000000 0.439050 0.051090 -0.616228
O34   O     O_R   0.000000 0.439050 0.948910 -0.617031
O35   O     O_R   0.500000 0.939050 0.051090 -0.616337
O36   O     O_R   0.500000 0.939050 0.948910 -0.616756
C73   C     C_R   0.999994 0.419401 0.999709 0.898227
C74   C     C_R   0.499994 0.919400 0.999709 0.898151
O37   O     O_R   0.060990 0.500040 0.112010 -0.617566
O38   O     O_R   0.939010 0.500040 0.887990 -0.615833
O39   O     O_R   0.560990 0.000040 0.112010 -0.615542
O40   O     O_R   0.439010 0.000040 0.887990 -0.617428
O41   O     O_R   0.060980 0.499970 0.009870 -0.608205
O42   O     O_R   0.939020 0.499970 0.990130 -0.608849
O43   O     O_R   0.560980 0.999970 0.009870 -0.608022
O44   O     O_R   0.439020 0.999970 0.990130 -0.609053
C75   C     C_R   0.080635 0.499992 0.080879 0.905230
C76   C     C_R   0.919365 0.499988 0.919122 0.909648
C77   C     C_R   0.580635 0.999995 0.080879 0.908615
C78   C     C_R   0.419364 0.999980 0.919122 0.903016
Zn9   Zn    Zn3+2 0.000010 0.500050 0.068180 0.997536
Zn10  Zn    Zn3+2 0.999990 0.500050 0.931820 1.007818
Zn11  Zn    Zn3+2 0.500010 0.000050 0.068180 1.009068
Zn12  Zn    Zn3+2 0.499990 0.000050 0.931820 1.001499
O45   O     O_R   0.000010 0.561020 0.051000 -0.611412
O46   O     O_R   0.999990 0.561020 0.949000 -0.595906
O47   O     O_R   0.500010 0.061020 0.051000 -0.595920
O48   O     O_R   0.499990 0.061020 0.949000 -0.606567
C79   C     C_R   0.999998 0.580656 0.000247 0.901204
C80   C     C_R   0.500014 0.080661 0.000328 0.896976
H33   H     H_    0.461139 0.289553 0.041081 0.191979
H34   H     H_    0.542488 0.289159 0.967606 0.190869
H35   H     H_    0.946202 0.789737 0.005546 0.192450
H36   H     H_    0.050158 0.788904 0.987600 0.191187
C81   C     C_R   0.967054 0.728674 0.998686 0.283844
C82   C     C_R   0.026773 0.728221 0.988364 0.283022
C83   C     C_R   0.480416 0.228658 0.029438 0.281819
C84   C     C_R   0.527150 0.228430 0.987232 0.283856
C85   C     C_R   0.996682 0.706581 0.993051 -0.119183
C86   C     C_R   0.504188 0.206686 0.009118 -0.119068
C87   C     C_R   0.525066 0.271935 0.984055 -0.232850
C88   C     C_R   0.479071 0.272161 0.025596 -0.230660
C89   C     C_R   0.027437 0.771775 0.991292 -0.231783
C90   C     C_R   0.968662 0.772238 0.001437 -0.231434
C91   C     C_R   0.501193 0.293464 0.003028 0.037524
C92   C     C_R   0.998604 0.793448 0.997738 0.036845
C93   C     C_1   0.998050 0.662083 0.997123 0.130332
C94   C     C_1   0.502435 0.162130 0.005202 0.130120
C95   C     C_1   0.500217 0.337834 0.001057 0.004336
C96   C     C_1   0.999239 0.837839 0.999055 0.004229
C97   C     C_1   0.499824 0.375105 0.000098 -0.174424
C98   C     C_1   0.999630 0.875116 0.999677 -0.174461
C99   C     C_1   0.999111 0.624831 0.999520 -0.082471
C100  C     C_1   0.501100 0.124853 0.002364 -0.082668
H37   H     H_    0.463114 0.710720 0.879353 0.143381
H38   H     H_    0.537933 0.712634 0.120068 0.144168
H39   H     H_    0.960649 0.210727 0.879382 0.143533
H40   H     H_    0.040392 0.212626 0.119996 0.144014
C101  C     C_R   0.978041 0.271234 0.931637 -0.177001
C102  C     C_R   0.022945 0.272296 0.067123 -0.176825
C103  C     C_R   0.479430 0.771230 0.931633 -0.176738
C104  C     C_R   0.521560 0.772301 0.067176 -0.176475
H41   H     H_    0.960579 0.287486 0.878994 0.144643
H42   H     H_    0.040326 0.289376 0.119608 0.144812
H43   H     H_    0.463044 0.787479 0.878965 0.144758
H44   H     H_    0.537865 0.789383 0.119680 0.145176
C105  C     C_R   0.000457 0.293397 0.999274 0.164988
C106  C     C_R   0.500458 0.793397 0.999297 0.164744
C107  C     C_R   0.521597 0.728881 0.067398 -0.177163
C108  C     C_R   0.479468 0.727805 0.931855 -0.177263
C109  C     C_R   0.022981 0.228876 0.067346 -0.177425
C110  C     C_R   0.978078 0.227809 0.931860 -0.177279
C111  C     C_R   0.500531 0.706712 0.999738 0.166232
C112  C     C_R   0.000527 0.206711 0.999717 0.166231
C113  C     C_1   0.000268 0.337825 0.999123 -0.065617
C114  C     C_1   0.500269 0.837825 0.999133 -0.065275
C115  C     C_1   0.500436 0.662285 0.999964 -0.065445
C116  C     C_1   0.000435 0.162285 0.999953 -0.065636
C117  C     C_1   0.500307 0.624976 0.000095 -0.175306
C118  C     C_1   0.000306 0.124976 0.000091 -0.175441
C119  C     C_1   0.000122 0.375137 0.999239 -0.171416
C120  C     C_1   0.500122 0.875137 0.999241 -0.170990
N1    N     N_R   0.935492 0.707636 0.002066 0.219002
O49   O     O_R   0.920005 0.725425 0.035207 -0.374208
O50   O     O_R   0.918793 0.672966 0.965383 -0.383939
N2    N     N_R   0.056840 0.706714 0.981093 0.216069
O51   O     O_R   0.092750 0.723966 0.005947 -0.377834
O52   O     O_R   0.046975 0.672230 0.942520 -0.377205
N3    N     N_R   0.457384 0.207529 0.053455 0.216792
O53   O     O_R   0.424359 0.224651 0.043765 -0.375341
O54   O     O_R   0.471623 0.173585 0.092265 -0.374939
N4    N     N_R   0.552347 0.207071 0.967701 0.218893
O55   O     O_R   0.559488 0.224029 0.921877 -0.375339
O56   O     O_R   0.571990 0.173055 0.001469 -0.381339

loop_
_geom_bond_atom_site_label_1
_geom_bond_atom_site_label_2
_geom_bond_distance
_ccdc_geom_bond_type
C113  C119  1.197516 T    
C107  C111  1.398867 A    
O38   C76   1.277814 A    
C8    C24   1.436998 S    
C39   H31   1.083616 S    
H39   C110  1.083606 S    
C49   C61   1.197164 T    
C10   C18   1.461367 S    
C37   C41   1.398917 A    
C14   H6    1.087062 S    
O30   C71   1.273166 A    
C102  H42   1.083615 S    
Zn6   O30   1.990401 S    
C74   C120  1.420599 S    
C15   C69   1.437009 S    
C116  C118  1.197504 T    
C25   C29   1.398894 A    
H36   C89   1.084088 S    
C25   H21   1.083621 S    
O7    C3    1.273431 A    
O22   C68   1.274192 A    
C31   C35   1.398815 A    
O48   C80   1.276367 A    
H18   C46   1.083631 S    
C12   C16   1.336353 D    
C64   C78   1.419986 S    
O36   C74   1.278341 A    
C87   C91   1.393015 A    
C43   C47   1.398788 A    
H20   C48   1.083628 S    
O19   C66   1.272778 A    
C42   C46   1.398795 A    
C81   C85   1.416447 A    
C26   C30   1.398825 A    
C9    C13   1.336374 D    
O35   Zn11  1.988997 S    
C21   H13   1.087067 S    
C10   H2    1.086460 S    
C13   C67   1.437006 S    
O43   C77   1.277286 A    
C65   C97   1.418887 S    
O17   C65   1.272530 A    
O41   Zn10  1.987991 S    
H19   C47   1.083615 S    
C38   C42   1.398924 A    
O7    Zn4   1.993570 S    
C41   C53   1.425369 S    
O20   Zn8   1.994102 S    
C52   C64   1.197166 T    
C82   C89   1.398279 A    
C85   C93   1.430848 S    
O46   C79   1.275062 A    
C42   C54   1.425365 S    
O27   Zn8   2.007985 S    
C104  H44   1.083616 S    
H33   C88   1.084047 S    
O20   C66   1.272776 A    
C39   C43   1.398922 A    
C32   C36   1.398872 A    
C103  C106  1.398918 A    
C33   H25   1.083609 S    
O4    C4    1.273469 A    
C15   H7    1.087062 S    
C72   C118  1.420561 S    
C84   C87   1.398680 A    
C27   C47   1.393434 A    
C30   C50   1.425368 S    
C83   C86   1.416523 A    
O39   Zn11  1.995737 S    
C34   C38   1.393610 A    
O11   C7    1.266480 A    
C44   C56   1.425357 S    
C84   N4    1.441952 S    
O12   C8    1.274414 A    
C11   C19   1.461435 S    
C31   C51   1.425371 S    
C12   C20   1.461366 S    
O9    Zn1   2.006473 S    
O28   C70   1.266309 A    
N4    O56   1.301302 A    
C66   C98   1.418611 S    
C102  C109  1.393631 A    
O26   C68   1.266307 A    
O24   C70   1.274193 A    
C35   C39   1.393517 A    
N2    O51   1.301581 A    
C84   C86   1.416376 A    
C86   C94   1.431128 S    
N1    O49   1.301584 A    
Zn11  O47   1.995987 S    
C101  C105  1.398918 A    
O4    Zn2   1.993574 S    
C10   C14   1.336354 D    
O41   C75   1.277289 A    
C36   H28   1.083601 S    
O13   Zn3   1.998126 S    
C40   H32   1.083605 S    
O42   C76   1.277282 A    
O35   C74   1.277840 A    
O1    C1    1.273219 A    
O25   Zn6   2.007985 S    
O42   Zn9   1.987956 S    
C79   C99   1.418218 S    
C38   H30   1.083608 S    
O31   C72   1.273377 A    
O22   Zn6   1.999142 S    
O15   C7    1.274448 A    
C89   C92   1.392681 A    
O45   C79   1.276901 A    
O16   Zn4   2.005617 S    
O23   Zn7   1.999142 S    
C103  H43   1.083601 S    
C17   H9    1.086457 S    
O13   C5    1.274445 A    
C81   C90   1.398837 A    
C56   C60   1.197154 T    
C9    C17   1.461437 S    
C40   C44   1.398925 A    
C1    C57   1.419968 S    
C22   H14   1.087065 S    
C63   C77   1.419991 S    
Zn9   O45   1.995987 S    
C32   C52   1.425368 S    
C95   C97   1.196531 T    
O5    C1    1.273432 A    
C51   C63   1.197164 T    
C50   C62   1.197158 T    
C111  C115  1.425941 S    
C115  C117  1.197503 T    
O34   C73   1.278338 A    
C34   H26   1.083606 S    
C7    C23   1.437004 S    
O6    Zn3   1.989861 S    
C108  C111  1.399031 A    
C17   C21   1.336341 D    
O8    C4    1.273188 A    
O3    C3    1.273219 A    
O16   C8    1.266520 A    
C18   H10   1.086458 S    
H40   C109  1.083611 S    
Zn7   O31   1.994085 S    
O9    C5    1.266482 A    
O29   C71   1.273377 A    
N3    O54   1.301293 A    
C61   C75   1.419995 S    
O15   Zn4   1.998126 S    
C62   C76   1.419981 S    
O38   Zn10  1.995735 S    
C43   C55   1.425371 S    
C91   C95   1.424949 S    
O27   C69   1.266300 A    
C5    C21   1.437006 S    
Zn10  O46   1.988436 S    
Zn12  O48   1.988436 S    
O37   Zn9   1.995737 S    
Zn8   O32   1.990401 S    
N2    O52   1.301285 A    
O8    Zn4   1.989861 S    
O47   C80   1.275762 A    
C11   C15   1.336373 D    
C103  C108  1.393762 A    
C16   H8    1.087063 S    
C27   C31   1.398895 A    
N4    O55   1.301582 A    
C102  C105  1.398986 A    
C83   N3    1.441925 S    
O2    C2    1.273465 A    
C41   C45   1.398792 A    
C4    C60   1.419959 S    
O32   C72   1.273166 A    
O18   Zn6   1.994102 S    
C19   H11   1.086456 S    
C83   C88   1.398698 A    
C54   C58   1.197154 T    
C109  C112  1.398871 A    
O23   C69   1.274206 A    
C20   H12   1.086460 S    
C53   C57   1.197160 T    
O24   Zn8   1.999142 S    
C37   H29   1.083618 S    
O21   Zn5   1.999142 S    
O21   C67   1.274206 A    
O14   C6    1.266520 A    
C55   C59   1.197160 T    
C28   C48   1.393338 A    
O40   C78   1.277826 A    
O3    Zn2   1.989875 S    
H17   C45   1.083613 S    
O14   Zn3   2.005617 S    
C112  C116  1.425941 S    
O11   Zn2   2.006473 S    
O12   Zn2   1.998981 S    
C16   C70   1.437000 S    
O43   Zn12  1.987991 S    
C71   C117  1.420560 S    
C19   C23   1.336341 D    
O1    Zn1   1.989875 S    
O17   Zn5   1.990383 S    
C114  C120  1.197517 T    
C94   C100  1.197049 T    
C28   H24   1.083624 S    
C28   C32   1.398838 A    
O33   Zn9   1.988997 S    
C18   C22   1.336339 D    
C106  C114  1.425954 S    
C88   C91   1.392880 A    
C6    C22   1.436995 S    
C92   C96   1.424674 S    
Zn5   O29   1.994085 S    
C13   H5    1.087061 S    
O10   C6    1.274414 A    
C104  C106  1.398985 A    
C110  C112  1.399025 A    
C105  C113  1.425955 S    
C36   C40   1.393613 A    
H37   C108  1.083607 S    
H38   C107  1.083612 S    
H35   C90   1.084053 S    
C35   H27   1.083613 S    
C93   C99   1.196893 T    
O28   Zn7   2.007985 S    
O5    Zn3   1.993570 S    
C26   C46   1.393339 A    
C26   H22   1.083629 S    
O19   Zn7   1.990383 S    
O34   Zn10  1.996508 S    
C82   N2    1.441891 S    
C33   C37   1.393514 A    
O39   C77   1.277782 A    
C44   C48   1.398778 A    
C104  C107  1.393624 A    
C29   C49   1.425372 S    
N1    O50   1.301297 A    
C11   H3    1.086461 S    
C2    C58   1.419971 S    
O2    Zn1   1.993574 S    
C27   H23   1.083621 S    
C12   H4    1.086461 S    
O10   Zn1   1.998981 S    
O26   Zn5   2.007985 S    
O25   C67   1.266300 A    
C101  C110  1.393759 A    
C82   C85   1.416521 A    
C80   C100  1.418525 S    
O6    C2    1.273195 A    
O44   C78   1.277278 A    
C81   N1    1.441994 S    
C14   C68   1.436996 S    
C20   C24   1.336339 D    
C23   H15   1.087063 S    
C25   C45   1.393440 A    
C29   C33   1.398819 A    
C24   H16   1.087064 S    
C30   C34   1.398889 A    
C9    H1    1.086460 S    
N3    O53   1.301584 A    
C3    C59   1.419971 S    
C101  H41   1.083599 S    
O36   Zn12  1.996508 S    
O40   Zn12  1.995735 S    
C73   C119  1.420599 S    
H34   C87   1.084057 S    
C90   C92   1.393075 A    
O18   C65   1.273172 A    
O33   C73   1.277844 A    
O44   Zn11  1.987956 S    
O37   C75   1.277783 A    
C96   C98   1.196368 T    
