data_mof_unit_63439.cif
_audit_creation_date              2012-12-10T19:50:08-0500
_audit_creation_method            fapswitch 2.2
_symmetry_space_group_name_H-M    P1
_symmetry_Int_Tables_number       1
_space_group_crystal_system       triclinic
_cell_length_a                    36.875171
_cell_length_b                    18.272456
_cell_length_c                    18.272483
_cell_angle_alpha                 90.016551
_cell_angle_beta                  119.876904
_cell_angle_gamma                 89.97104
_cell_volume                      10675.7027333

loop_
_atom_site_label
_atom_site_type_symbol
_atom_type_description
_atom_site_fract_x
_atom_site_fract_y
_atom_site_fract_z
_atom_type_partial_charge
C1    C     C_R   0.500056 0.999991 0.358830 0.936161
C2    C     C_R   0.499944 0.000009 0.641170 0.936183
C3    C     C_R   0.000056 0.499991 0.358830 0.936154
C4    C     C_R   0.999944 0.500009 0.641170 0.936191
C5    C     C_1   0.837226 0.998415 0.834192 -0.015467
C6    C     C_1   0.162774 0.001475 0.165837 -0.015419
C7    C     C_1   0.337226 0.498395 0.834197 -0.015464
C8    C     C_1   0.662775 0.501437 0.165848 -0.015425
C9    C     C_1   0.662746 0.999387 0.659278 0.023016
C10   C     C_1   0.337254 0.000540 0.340740 0.022984
C11   C     C_1   0.162746 0.499375 0.659286 0.023017
C12   C     C_1   0.837254 0.500516 0.340745 0.022972
C13   C     C_1   0.625377 0.999834 0.623864 -0.191792
C14   C     C_1   0.374623 0.000149 0.376142 -0.191817
C15   C     C_1   0.125377 0.499832 0.623869 -0.191788
C16   C     C_1   0.874623 0.500143 0.376143 -0.191825
C17   C     C_1   0.500132 0.999977 0.282483 -0.179539
C18   C     C_1   0.499868 0.000023 0.717517 -0.179489
C19   C     C_1   0.000132 0.499977 0.282483 -0.179557
C20   C     C_1   0.999868 0.500023 0.717517 -0.179470
C21   C     C_1   0.500149 0.999981 0.217751 -0.176196
C22   C     C_1   0.499851 0.000019 0.782249 -0.176171
C23   C     C_1   0.000148 0.499981 0.217751 -0.176214
C24   C     C_1   0.999852 0.500019 0.782249 -0.176158
C25   C     C_R   0.000003 0.141048 0.000012 0.931104
C26   C     C_R   0.999997 0.858952 0.999988 0.931203
C27   C     C_R   0.500003 0.641048 0.000012 0.931076
C28   C     C_R   0.499997 0.358952 0.999988 0.931234
C29   C     C_R   0.918870 0.999990 0.918700 0.904335
C30   C     C_R   0.081129 0.000013 0.081300 0.904320
C31   C     C_R   0.418870 0.499991 0.918700 0.904338
C32   C     C_R   0.581129 0.500015 0.081301 0.904319
C33   C     C_R   0.500007 0.858750 0.000013 0.929196
C34   C     C_R   0.499993 0.141250 0.999986 0.929212
C35   C     C_R   0.000007 0.358750 0.000013 0.929215
C36   C     C_R   0.999993 0.641250 0.999986 0.929198
C37   C     C_R   0.500053 0.999994 0.141229 0.929481
C38   C     C_R   0.499946 0.000006 0.858771 0.929462
C39   C     C_R   0.000053 0.499994 0.141229 0.929481
C40   C     C_R   0.999946 0.500006 0.858771 0.929467
C41   C     C_1   0.000014 0.217512 0.000038 -0.184087
C42   C     C_1   0.999986 0.782488 0.999962 -0.184044
C43   C     C_1   0.500014 0.717512 0.000038 -0.184116
C44   C     C_1   0.499986 0.282488 0.999962 -0.184014
C45   C     C_R   0.581123 0.999977 0.581169 0.907364
C46   C     C_R   0.418877 0.000021 0.418830 0.907436
C47   C     C_R   0.081123 0.499977 0.581170 0.907347
C48   C     C_R   0.918877 0.500021 0.418829 0.907459
C49   C     C_1   0.500018 0.782284 0.000038 -0.180231
C50   C     C_1   0.499982 0.217716 0.999961 -0.180194
C51   C     C_1   0.000018 0.282284 0.000038 -0.180209
C52   C     C_1   0.999981 0.717716 0.999961 -0.180223
C53   C     C_3   0.725280 0.071400 0.678583 0.074464
C54   C     C_3   0.274722 0.927196 0.319161 0.074544
C55   C     C_3   0.275372 0.073506 0.324151 0.109768
C56   C     C_3   0.724625 0.925027 0.678154 0.109872
C57   C     C_3   0.225280 0.571138 0.678182 0.074500
C58   C     C_3   0.774723 0.426712 0.318340 0.074514
C59   C     C_3   0.775371 0.572964 0.324968 0.109801
C60   C     C_3   0.224623 0.424770 0.678580 0.109835
C61   C     C_3   0.774946 0.929522 0.720047 0.082798
C62   C     C_3   0.225049 0.068737 0.282106 0.082657
C63   C     C_3   0.224348 0.923808 0.259582 0.101690
C64   C     C_3   0.775655 0.075058 0.738048 0.101551
C65   C     C_3   0.274945 0.429216 0.720441 0.082741
C66   C     C_3   0.725049 0.568095 0.282872 0.082693
C67   C     C_3   0.724349 0.423421 0.258720 0.101679
C68   C     C_3   0.275655 0.574845 0.737624 0.101581
C69   C     C_1   0.874590 0.999265 0.873664 -0.172147
C70   C     C_1   0.125410 0.000691 0.126342 -0.172146
C71   C     C_1   0.374590 0.499257 0.873665 -0.172148
C72   C     C_1   0.625410 0.500676 0.126345 -0.172152
C73   C     C_3   0.708668 0.998534 0.703035 0.020475
C74   C     C_3   0.291332 0.001313 0.297002 0.020513
C75   C     C_3   0.208668 0.498508 0.703047 0.020484
C76   C     C_3   0.791332 0.501261 0.297014 0.020513
C77   C     C_3   0.791301 0.997564 0.784344 0.042727
C78   C     C_3   0.208699 0.002216 0.215713 0.042778
C79   C     C_3   0.291301 0.497525 0.784356 0.042750
C80   C     C_3   0.708699 0.502140 0.215733 0.042770
C81   C     C_3   0.774565 0.986248 0.847411 -0.520477
C82   C     C_3   0.225436 0.016021 0.153042 -0.520556
C83   C     C_3   0.274566 0.486660 0.847488 -0.520481
C84   C     C_3   0.725436 0.516838 0.153223 -0.520560
C85   C     C_3   0.726263 0.997574 0.802756 0.013995
C86   C     C_3   0.273739 0.004830 0.197353 0.014000
C87   C     C_3   0.226264 0.498011 0.802772 0.013989
C88   C     C_3   0.773740 0.505696 0.197410 0.014003
H1    H     H_    0.791266 0.021718 0.904159 0.186609
H2    H     H_    0.208738 0.981811 0.095209 0.186656
H3    H     H_    0.216990 0.072733 0.127896 0.191410
H4    H     H_    0.783009 0.930082 0.874314 0.191480
H5    H     H_    0.291269 0.522353 0.904036 0.186612
H6    H     H_    0.708739 0.483092 0.095008 0.186658
H7    H     H_    0.716990 0.573735 0.128717 0.191409
H8    H     H_    0.283009 0.430597 0.874705 0.191479
O1    O     O_R   0.500010 0.060620 0.392670 -0.618174
O2    O     O_R   0.499990 0.939380 0.607330 -0.618190
O3    O     O_R   0.499990 0.060620 0.607330 -0.617402
O4    O     O_R   0.500010 0.939380 0.392670 -0.617390
O5    O     O_R   0.000010 0.560620 0.392670 -0.618177
O6    O     O_R   0.999990 0.439380 0.607330 -0.618157
O7    O     O_R   0.999990 0.560620 0.607330 -0.617444
O8    O     O_R   0.000010 0.439380 0.392670 -0.617376
O9    O     O_R   0.561430 0.060620 0.561430 -0.616850
O10   O     O_R   0.438570 0.939380 0.438570 -0.617152
O11   O     O_R   0.438570 0.060620 0.438570 -0.619401
O12   O     O_R   0.561430 0.939380 0.561430 -0.619617
O13   O     O_R   0.061430 0.560620 0.561430 -0.616805
O14   O     O_R   0.938570 0.439380 0.438570 -0.617246
O15   O     O_R   0.938570 0.560620 0.438570 -0.619335
O16   O     O_R   0.061430 0.439380 0.561430 -0.619641
O17   O     O_R   1.000000 0.107140 0.939380 -0.617552
O18   O     O_R   1.000000 0.892860 0.060620 -0.617506
O19   O     O_R   1.000000 0.107140 0.060620 -0.617664
O20   O     O_R   1.000000 0.892860 0.939380 -0.617597
O21   O     O_R   0.500000 0.607140 0.939380 -0.617563
O22   O     O_R   0.500000 0.392860 0.060620 -0.617489
O23   O     O_R   0.500000 0.607140 0.060620 -0.617689
O24   O     O_R   0.500000 0.392860 0.939380 -0.617577
O25   O     O_R   0.938580 0.000000 0.877970 -0.611048
O26   O     O_R   0.061420 1.000000 0.122030 -0.611198
O27   O     O_R   0.438580 0.500000 0.877970 -0.611020
O28   O     O_R   0.561420 0.500000 0.122030 -0.611262
O29   O     O_R   0.938570 1.000000 0.999140 -0.618439
O30   O     O_R   0.061430 1.000000 0.000860 -0.618277
O31   O     O_R   0.438570 0.500000 0.999140 -0.618469
O32   O     O_R   0.561430 0.500000 0.000860 -0.618215
O33   O     O_R   0.534690 0.892630 0.034650 -0.619598
O34   O     O_R   0.465310 0.107370 0.965350 -0.619634
O35   O     O_R   0.465310 0.892630 0.965350 -0.618332
O36   O     O_R   0.534690 0.107370 0.034650 -0.618325
O37   O     O_R   0.034690 0.392630 0.034650 -0.619599
O38   O     O_R   0.965310 0.607370 0.965350 -0.619640
O39   O     O_R   0.965310 0.392630 0.965350 -0.618313
O40   O     O_R   0.034690 0.607370 0.034650 -0.618344
O41   O     O_R   0.534680 1.000000 0.141990 -0.616923
O42   O     O_R   0.465320 0.000000 0.858010 -0.616932
O43   O     O_R   0.034680 0.500000 0.141990 -0.616944
O44   O     O_R   0.965320 0.500000 0.858010 -0.616912
O45   O     O_R   0.465320 1.000000 0.072630 -0.618021
O46   O     O_R   0.534680 1.000000 0.927370 -0.617998
O47   O     O_R   0.965320 0.500000 0.072630 -0.618019
O48   O     O_R   0.034680 0.500000 0.927370 -0.618004
Zn1   Zn    Zn3+2 0.500000 0.080950 0.500000 0.979006
Zn2   Zn    Zn3+2 0.500000 0.919050 0.500000 0.978678
Zn3   Zn    Zn3+2 0.000000 0.580950 0.500000 0.979030
Zn4   Zn    Zn3+2 0.000000 0.419050 0.500000 0.978661
Zn5   Zn    Zn3+2 0.000010 1.000000 0.919080 0.985277
Zn6   Zn    Zn3+2 0.999990 1.000000 0.080920 0.985098
Zn7   Zn    Zn3+2 0.500010 0.500000 0.919080 0.985327
Zn8   Zn    Zn3+2 0.499990 0.500000 0.080920 0.985035
Zn9   Zn    Zn3+2 0.546310 1.000000 0.046300 0.986819
Zn10  Zn    Zn3+2 0.453690 1.000000 0.953700 0.986689
Zn11  Zn    Zn3+2 0.046310 0.500000 0.046300 0.986760
Zn12  Zn    Zn3+2 0.953690 0.500000 0.953700 0.986718
C89   C     C_1   0.797174 0.091117 0.688443 0.208275
N1    N     N_1   0.813899 0.104542 0.650673 -0.182003
C90   C     C_1   0.202827 0.905533 0.308647 0.207988
N2    N     N_1   0.186102 0.890409 0.345971 -0.182535
C91   C     C_1   0.211672 0.057114 0.346088 0.169291
N3    N     N_1   0.201346 0.049564 0.395974 -0.174911
C92   C     C_1   0.788321 0.938725 0.655735 0.169061
N4    N     N_1   0.798645 0.944391 0.605638 -0.175181
C93   C     C_1   0.297174 0.590502 0.687928 0.208251
N5    N     N_1   0.313898 0.603620 0.650082 -0.182218
C94   C     C_1   0.702827 0.404350 0.307573 0.207976
N6    N     N_1   0.686101 0.388617 0.344720 -0.182376
C95   C     C_1   0.711673 0.555598 0.346720 0.169248
N7    N     N_1   0.701349 0.547369 0.396519 -0.174986
C96   C     C_1   0.288317 0.437980 0.656074 0.169105
N8    N     N_1   0.298639 0.443307 0.605944 -0.175090
C97   C     C_1   0.714101 0.068958 0.587850 0.163953
N9    N     N_1   0.705529 0.068631 0.517649 -0.175396
C98   C     C_1   0.285898 0.927156 0.409929 0.163931
N10   N     N_1   0.294469 0.925561 0.480109 -0.175645
C99   C     C_1   0.295857 0.080689 0.418051 0.175736
N11   N     N_1   0.311819 0.087356 0.490593 -0.185779
C100  C     C_1   0.704136 0.915561 0.584513 0.175803
N12   N     N_1   0.688173 0.907135 0.512206 -0.186074
C101  C     C_1   0.214100 0.568247 0.587464 0.163861
N13   N     N_1   0.205527 0.567572 0.517265 -0.175599
C102  C     C_1   0.785897 0.425783 0.409102 0.164029
N14   N     N_1   0.794467 0.423499 0.479259 -0.175447
C103  C     C_1   0.795858 0.579329 0.418944 0.175613
N15   N     N_1   0.811821 0.585364 0.491557 -0.185902
C104  C     C_1   0.204132 0.414890 0.584993 0.175917
N16   N     N_1   0.188167 0.406145 0.512735 -0.185932
N17   N     N_2   0.713018 0.860113 0.710350 -0.292039
H9    H     H_    0.732646 0.840094 0.770061 0.264471
C105  C     C_3   0.674678 0.818777 0.660780 -0.733180
H10   H     H_    0.666786 0.788279 0.703551 0.239981
H11   H     H_    0.679173 0.778784 0.620246 0.240446
H12   H     H_    0.648038 0.855170 0.620737 0.252215
N18   N     N_2   0.286979 0.139759 0.294005 -0.292112
H13   H     H_    0.267352 0.161016 0.234937 0.264423
C106  C     C_3   0.325317 0.180734 0.344865 -0.732569
H14   H     H_    0.333207 0.212809 0.303074 0.240002
H15   H     H_    0.351958 0.143945 0.383760 0.251971
H16   H     H_    0.320821 0.219294 0.386630 0.240671
N19   N     N_2   0.295459 0.862494 0.307062 -0.299001
H17   H     H_    0.281462 0.831794 0.252930 0.259802
C107  C     C_3   0.331850 0.827117 0.375797 -0.724143
H18   H     H_    0.348774 0.795662 0.350046 0.237336
H19   H     H_    0.321652 0.788671 0.409062 0.242017
H20   H     H_    0.353920 0.867605 0.421408 0.251447
N20   N     N_2   0.704546 0.137100 0.688652 -0.299008
H21   H     H_    0.718546 0.169034 0.741807 0.259794
C108  C     C_3   0.668154 0.171457 0.618833 -0.723536
H22   H     H_    0.651235 0.204240 0.643587 0.237382
H23   H     H_    0.646080 0.130259 0.574504 0.251020
H24   H     H_    0.678350 0.208518 0.584378 0.242276
N21   N     N_2   0.213018 0.360107 0.711147 -0.292059
H25   H     H_    0.232648 0.340314 0.770969 0.264467
C109  C     C_3   0.174677 0.318709 0.661816 -0.733163
H26   H     H_    0.166787 0.288499 0.704762 0.239960
H27   H     H_    0.179170 0.278462 0.621506 0.240512
H28   H     H_    0.148037 0.355027 0.621570 0.252245
N22   N     N_2   0.786975 0.639683 0.295563 -0.292109
H29   H     H_    0.767346 0.661377 0.236737 0.264420
C110  C     C_3   0.825315 0.680516 0.346875 -0.732504
H30   H     H_    0.833206 0.713137 0.305441 0.240041
H31   H     H_    0.851956 0.643593 0.385362 0.251893
H32   H     H_    0.820821 0.718562 0.389065 0.240624
N23   N     N_2   0.795461 0.362384 0.305521 -0.299013
H33   H     H_    0.781465 0.332135 0.251047 0.259807
C111  C     C_3   0.831851 0.326648 0.373861 -0.724199
H34   H     H_    0.848777 0.295675 0.347764 0.237297
H35   H     H_    0.821651 0.287716 0.406688 0.242031
H36   H     H_    0.853919 0.366870 0.419927 0.251585
N24   N     N_2   0.204547 0.637013 0.687881 -0.298998
H37   H     H_    0.218548 0.669167 0.740855 0.259796
C112  C     C_3   0.168154 0.671180 0.617870 -0.723562
H38   H     H_    0.151234 0.704192 0.642442 0.237415
H39   H     H_    0.146081 0.629856 0.573774 0.250951
H40   H     H_    0.178347 0.707992 0.583208 0.242230
N25   N     N_2   0.794654 0.861006 0.765491 -0.319832
H41   H     H_    0.823886 0.864550 0.818256 0.236066
C113  C     C_3   0.790268 0.794834 0.717454 -0.747282
H42   H     H_    0.794787 0.746276 0.757614 0.240343
H43   H     H_    0.814389 0.793778 0.697966 0.244108
H44   H     H_    0.758890 0.791132 0.660317 0.261777
N26   N     N_2   0.205341 0.138017 0.238806 -0.320078
H45   H     H_    0.176107 0.135201 0.185944 0.235990
C114  C     C_3   0.209727 0.202802 0.288879 -0.746091
H46   H     H_    0.205222 0.252445 0.250254 0.240403
H47   H     H_    0.241100 0.205696 0.346133 0.261841
H48   H     H_    0.185598 0.202512 0.308355 0.244236
N27   N     N_2   0.210586 0.867495 0.192837 -0.304191
H49   H     H_    0.219331 0.872356 0.147846 0.236957
C115  C     C_3   0.203868 0.791996 0.208810 -0.764828
H50   H     H_    0.203083 0.755553 0.159354 0.235410
H51   H     H_    0.173307 0.787155 0.206503 0.258993
H52   H     H_    0.229203 0.773205 0.271366 0.250115
N28   N     N_2   0.789420 0.132991 0.803013 -0.304378
H53   H     H_    0.780677 0.129811 0.848133 0.236889
C116  C     C_3   0.796140 0.207743 0.784697 -0.764351
H54   H     H_    0.796927 0.245686 0.832994 0.235263
H55   H     H_    0.770806 0.225369 0.721574 0.250338
H56   H     H_    0.826702 0.211691 0.786866 0.259068
N29   N     N_2   0.294653 0.360844 0.766269 -0.319887
H57   H     H_    0.323890 0.364520 0.819001 0.236062
C117  C     C_3   0.290261 0.294428 0.718601 -0.747049
H58   H     H_    0.294787 0.246071 0.759038 0.240295
H59   H     H_    0.314375 0.293127 0.699099 0.244188
H60   H     H_    0.258879 0.290580 0.661497 0.261836
N30   N     N_2   0.705338 0.637635 0.240354 -0.320045
H61   H     H_    0.676102 0.635080 0.187470 0.235997
C118  C     C_3   0.709726 0.701900 0.291158 -0.746190
H62   H     H_    0.705206 0.751925 0.253087 0.240479
H63   H     H_    0.741105 0.704516 0.348426 0.261785
H64   H     H_    0.685607 0.701102 0.310656 0.244161
N31   N     N_2   0.710589 0.367706 0.191346 -0.304178
H65   H     H_    0.719333 0.373172 0.146413 0.236958
C119  C     C_3   0.703871 0.291956 0.206469 -0.764821
H66   H     H_    0.703089 0.256061 0.156610 0.235435
H67   H     H_    0.673309 0.286794 0.204100 0.258999
H68   H     H_    0.729205 0.272751 0.268814 0.250108
N32   N     N_2   0.289421 0.633065 0.802263 -0.304372
H69   H     H_    0.280680 0.630189 0.847402 0.236900
C120  C     C_3   0.296142 0.707674 0.783525 -0.764407
H70   H     H_    0.296928 0.745885 0.831607 0.235269
H71   H     H_    0.270807 0.725087 0.720303 0.250314
H72   H     H_    0.326703 0.711460 0.785672 0.259053
C121  C     C_1   0.716202 0.064416 0.834653 0.156277
N33   N     N_1   0.708176 0.115909 0.860804 -0.211624
C122  C     C_1   0.283805 0.939333 0.163397 0.156170
N34   N     N_1   0.291835 0.888933 0.135661 -0.211462
C123  C     C_1   0.292715 0.063652 0.171566 0.186057
N35   N     N_1   0.307598 0.109183 0.150987 -0.203205
C124  C     C_1   0.707285 0.940185 0.830357 0.185982
N36   N     N_1   0.692401 0.895787 0.852339 -0.203176
C125  C     C_1   0.216205 0.565090 0.834293 0.156303
N37   N     N_1   0.208181 0.616776 0.860154 -0.211497
C126  C     C_1   0.783806 0.440697 0.162724 0.156118
N38   N     N_1   0.791837 0.390702 0.134427 -0.211579
C127  C     C_1   0.792715 0.565017 0.172284 0.186117
N39   N     N_1   0.807597 0.610944 0.152217 -0.203118
C128  C     C_1   0.207286 0.440888 0.830698 0.185951
N40   N     N_1   0.192401 0.396702 0.852932 -0.203254

loop_
_geom_bond_atom_site_label_1
_geom_bond_atom_site_label_2
_ccdc_geom_bond_type
C3    O8    A    
C117  H60   S    
C55   N18   S    
C96   N8    T    
C30   O30   A    
C114  H47   S    
C89   N1    T    
C65   C79   S    
C29   O29   A    
C83   H5    S    
C2    C18   S    
C38   O46   A    
C86   C122  S    
O8    Zn4   S    
C66   C95   S    
C48   O14   A    
C124  N36   T    
C63   C90   S    
C80   C84   S    
C47   O13   A    
C16   C48   S    
N28   C116  S    
C91   N3    T    
N19   C107  S    
C53   C97   S    
C117  H58   S    
C14   C46   S    
C68   N32   S    
C101  N13   T    
C120  H72   S    
C107  H19   S    
C88   C126  S    
C64   C77   S    
N27   H49   S    
C87   C125  S    
C37   O45   A    
C65   C96   S    
C24   C40   S    
O26   Zn6   S    
O6    Zn4   S    
C119  H67   S    
C113  H42   S    
C110  H32   S    
C25   O17   A    
C30   O26   A    
C25   O19   A    
C59   C66   S    
C7    C71   T    
N29   H57   S    
O11   Zn1   S    
C53   C64   S    
C23   C39   S    
O45   Zn10  S    
C6    C78   S    
C62   C91   S    
C3    O5    A    
C54   C63   S    
N24   C112  S    
C33   O33   A    
N26   H45   S    
C22   C38   S    
C4    O7    A    
C46   O10   A    
C108  H24   S    
C121  N33   T    
N17   C105  S    
C116  H54   S    
N19   H17   S    
C106  H15   S    
C9    C13   T    
C34   O34   A    
C5    C69   T    
C47   O16   A    
C53   N20   S    
C58   C76   S    
C54   C74   S    
C81   H4    S    
C11   C15   T    
C32   O28   A    
C60   N21   S    
O38   Zn12  S    
C103  N15   T    
C111  H34   S    
C61   C77   S    
N26   C114  S    
O37   Zn11  S    
C64   C89   S    
N32   H69   S    
C3    C19   S    
N31   C119  S    
O35   Zn10  S    
C31   O31   A    
C113  H44   S    
C112  H38   S    
C76   C88   S    
C29   C69   S    
C36   C52   S    
C45   O12   A    
C64   N28   S    
C81   H1    S    
C68   C93   S    
C33   O35   A    
C68   C79   S    
N21   C109  S    
O3    Zn1   S    
C34   O36   A    
C86   C123  S    
C37   O41   A    
C118  H62   S    
C55   C99   S    
C35   O37   A    
O13   Zn3   S    
C9    C73   S    
O14   Zn4   S    
C36   O40   A    
C1    O4    A    
C57   C101  S    
O20   Zn5   S    
C30   C70   S    
C45   O9    A    
O36   Zn9   S    
O12   Zn2   S    
C27   O21   A    
C38   O42   A    
C85   C124  S    
C108  H22   S    
C39   O43   A    
C8    C72   T    
C34   C50   S    
C67   C80   S    
C59   C76   S    
O7    Zn3   S    
C105  H10   S    
C59   N22   S    
C95   N7    T    
C12   C16   T    
C107  H20   S    
C62   N26   S    
C119  H68   S    
C58   C67   S    
C117  H59   S    
C32   C72   S    
C28   O24   A    
C109  H28   S    
C1    O1    A    
N22   H29   S    
N29   C117  S    
O40   Zn11  S    
C15   C47   S    
C43   C49   T    
C115  H52   S    
N18   H13   S    
O2    Zn2   S    
C120  H70   S    
C97   N9    T    
C28   C44   S    
C17   C21   T    
O39   Zn12  S    
N20   H21   S    
C4    O6    A    
C58   C102  S    
C116  H55   S    
C84   H7    S    
C4    C20   S    
C54   C98   S    
C67   N31   S    
C106  H16   S    
C19   C23   T    
C128  N40   T    
C105  H11   S    
C102  N14   T    
C125  N37   T    
C42   C52   T    
O15   Zn3   S    
O31   Zn8   S    
N22   C110  S    
C110  H30   S    
C78   C82   S    
O32   Zn7   S    
C90   N2    T    
C77   C81   S    
O9    Zn1   S    
C46   O11   A    
C111  H36   S    
N23   H33   S    
C115  H50   S    
O41   Zn9   S    
N17   H9    S    
O34   Zn10  S    
C84   H6    S    
C82   H2    S    
C74   C86   S    
O22   Zn8   S    
C112  H39   S    
C73   C85   S    
N21   H25   S    
C58   N23   S    
C85   C121  S    
O44   Zn12  S    
C113  H43   S    
C75   C87   S    
C63   N27   S    
C119  H66   S    
C39   O47   A    
C60   C65   S    
C99   N11   T    
N27   C115  S    
C27   O23   A    
N25   C113  S    
C122  N34   T    
C35   C51   S    
C40   O48   A    
C114  H48   S    
O21   Zn7   S    
C120  H71   S    
O18   Zn6   S    
C57   C68   S    
C25   C41   S    
N28   H53   S    
C12   C76   S    
C94   N6    T    
C26   C42   S    
C7    C79   S    
C63   C78   S    
C44   C50   T    
O23   Zn8   S    
C6    C70   T    
C56   N17   S    
O5    Zn3   S    
O24   Zn7   S    
C56   C73   S    
O33   Zn9   S    
O17   Zn5   S    
C111  H35   S    
C18   C22   T    
O1    Zn1   S    
C62   C78   S    
O27   Zn7   S    
C53   C73   S    
C67   C94   S    
C84   C88   S    
C35   O39   A    
N20   C108  S    
C33   C49   S    
C36   O38   A    
C83   C87   S    
C2    O3    A    
N30   H61   S    
O16   Zn4   S    
C29   O25   A    
C118  H63   S    
C60   C104  S    
C54   N19   S    
C66   C80   S    
O43   Zn11  S    
C60   C75   S    
C65   N29   S    
O10   Zn2   S    
C82   C86   S    
C116  H56   S    
C61   N25   S    
C32   O32   A    
O48   Zn11  S    
C109  H27   S    
C105  H12   S    
C87   C128  S    
C104  N16   T    
C126  N38   T    
C98   N10   T    
C28   O22   A    
C13   C45   S    
C10   C74   S    
C57   C75   S    
O47   Zn12  S    
C57   N24   S    
C83   H8    S    
C40   O44   A    
O19   Zn6   S    
C31   C71   S    
N23   C111  S    
O25   Zn5   S    
C59   C103  S    
C26   O18   A    
N25   H41   S    
N32   C120  S    
O46   Zn9   S    
O28   Zn8   S    
C106  H14   S    
C20   C24   T    
C112  H40   S    
C26   O20   A    
C92   N4    T    
C115  H51   S    
O29   Zn6   S    
C82   H3    S    
C31   O27   A    
C100  N12   T    
C79   C83   S    
C127  N39   T    
C27   C43   S    
C93   N5    T    
C109  H26   S    
C48   O15   A    
C21   C37   S    
C1    C17   S    
C2    O2    A    
C110  H31   S    
C55   C62   S    
C118  H64   S    
O4    Zn2   S    
N24   H37   S    
C8    C80   S    
C61   C92   S    
C108  H23   S    
C123  N35   T    
C11   C75   S    
C88   C127  S    
C107  H18   S    
O42   Zn10  S    
C114  H46   S    
C5    C77   S    
O30   Zn5   S    
C41   C51   T    
C55   C74   S    
C81   C85   S    
C66   N30   S    
N30   C118  S    
N31   H65   S    
C10   C14   T    
N18   C106  S    
C56   C100  S    
C56   C61   S    
