data_mof_unit_50323.cif
_audit_creation_date              2012-12-11T15:47:03-0500
_audit_creation_method            fapswitch 2.2
_symmetry_space_group_name_H-M    P1
_symmetry_Int_Tables_number       1
_space_group_crystal_system       triclinic
_cell_length_a                    11.645426
_cell_length_b                    11.589822
_cell_length_c                    19.523207
_cell_angle_alpha                 90.835987
_cell_angle_beta                  91.053329
_cell_angle_gamma                 60.44005
_cell_volume                      2291.6090372

loop_
_atom_site_label
_atom_site_type_symbol
_atom_type_description
_atom_site_fract_x
_atom_site_fract_y
_atom_site_fract_z
_atom_type_partial_charge
C1    C     C_R   0.640808 0.116727 0.599055 0.550640
C2    C     C_1   0.654560 0.148723 0.668428 0.005427
C3    C     C_R   0.657528 0.682273 0.189947 -0.030820
C4    C     C_R   0.613631 0.744111 0.597876 0.548316
C5    C     C_R   0.540564 0.710826 0.222899 -0.015332
C6    C     C_R   0.532377 0.722535 0.292638 0.035292
C7    C     C_R   0.755076 0.686080 0.300537 0.211737
C8    C     C_R   0.761627 0.680875 0.228665 -0.170503
C9    C     C_3   0.470481 0.631104 0.222619 -0.224296
C10   C     C_3   0.461581 0.646024 0.298769 0.089203
C11   C     C_R   0.640588 0.702343 0.331908 0.010938
C12   C     C_1   0.651649 0.684518 0.664129 0.002902
C13   C     C_R   0.168494 0.188768 0.185415 -0.002378
C14   C     C_R   0.184180 0.280203 0.225221 -0.022858
C15   C     C_R   0.233058 0.251533 0.290261 0.054887
C16   C     C_R   0.242358 0.144707 0.598267 0.558888
C17   C     C_R   0.267115 0.031783 0.279272 -0.162456
C18   C     C_R   0.223161 0.058375 0.210432 -0.121206
C19   C     C_3   0.094648 0.423161 0.242544 -0.181016
C20   C     C_3   0.160788 0.392761 0.313419 0.500143
C21   C     C_R   0.263752 0.132413 0.321470 -0.050849
C22   C     C_R   0.685792 0.190045 0.195360 0.006885
C23   C     C_1   0.125074 0.199331 0.859212 0.004632
C24   C     C_R   0.791162 0.136221 0.241666 -0.044423
C25   C     C_R   0.778155 0.118221 0.308358 -0.076062
C26   C     C_R   0.548465 0.199195 0.288722 -0.127294
C27   C     C_R   0.560674 0.221679 0.219097 0.223304
C28   C     C_R   0.643567 0.112191 0.402821 0.542658
C29   C     C_3   0.936798 0.082879 0.248966 0.178328
C30   C     C_3   0.921543 0.060449 0.325105 -0.217912
C31   C     C_R   0.657504 0.149317 0.334749 -0.042232
C32   C     C_R   0.080368 0.231835 0.928482 0.539882
C33   C     C_R   0.707171 0.548198 0.922768 0.558840
C34   C     C_1   0.171892 0.170364 0.727595 -0.030882
C35   C     C_R   0.708443 0.206868 0.930307 0.540347
C36   C     C_R   0.086173 0.235038 0.124127 0.536089
C37   C     C_R   0.683056 0.613429 0.124804 0.562563
C38   C     C_R   0.710490 0.211134 0.126441 0.570198
C39   C     C_R   0.615348 0.740463 0.402466 0.563471
C40   C     C_R   0.299856 0.115880 0.394165 0.553658
C41   C     C_1   0.695801 0.583338 0.851937 0.002299
C42   C     C_1   0.672096 0.646332 0.722443 -0.030055
C43   C     C_1   0.686764 0.610860 0.792112 -0.031314
C44   C     C_3   0.911402 0.733925 0.346802 0.039988
C45   C     C_1   0.149186 0.182726 0.798884 -0.029957
C46   C     C_3   0.961016 0.732488 0.420364 -0.303088
C47   C     C_3   0.252708 0.493982 0.388739 0.029064
C48   C     C_3   0.389721 0.466887 0.411592 -0.381765
C49   C     C_3   0.384843 0.382026 0.159278 -0.007974
C50   C     C_3   0.316003 0.401645 0.090044 -0.341931
C51   C     C_3   0.971035 0.880152 0.195423 0.029541
C52   C     C_3   0.081982 0.746293 0.172213 -0.393475
C53   C     C_1   0.196522 0.160625 0.667342 0.002681
C54   C     C_1   0.678118 0.191713 0.860818 0.003093
C55   C     C_1   0.659744 0.166718 0.728879 -0.031792
C56   C     C_1   0.665746 0.181046 0.800226 -0.032092
Cr1   Cr    Cr6+3 0.404720 0.198220 0.499960 0.999485
Cr2   Cr    Cr6+3 0.698290 0.897110 0.500380 0.991461
Cr3   Cr    Cr6+3 0.396970 0.904720 0.499610 1.043293
Cr4   Cr    Cr6+3 0.926290 0.152010 0.028150 1.036226
Cr5   Cr    Cr6+3 0.921440 0.451830 0.027490 1.006731
Cr6   Cr    Cr6+3 0.626370 0.446880 0.028730 0.998652
H1    H     H_    0.109526 0.493625 0.211867 0.108161
H2    H     H_    0.296065 0.936913 0.300488 0.227095
H3    H     H_    0.221862 0.981119 0.179234 0.185469
H4    H     H_    0.990749 0.444393 0.242947 0.123769
H5    H     H_    0.833970 0.836467 0.333604 0.139572
H6    H     H_    0.996405 0.702111 0.312295 0.132057
H7    H     H_    0.015615 0.630485 0.440144 0.159148
H8    H     H_    0.021566 0.782235 0.422989 0.058788
H9    H     H_    0.883290 0.782449 0.457700 0.212375
H10   H     H_    0.214984 0.458388 0.430363 0.203291
H11   H     H_    0.193987 0.601860 0.384071 0.129021
H12   H     H_    0.456518 0.213580 0.306606 0.178976
H13   H     H_    0.464436 0.409223 0.372623 0.169619
H14   H     H_    0.389915 0.561218 0.421836 0.144616
H15   H     H_    0.417831 0.413607 0.461118 0.147108
H16   H     H_    0.022070 0.369643 0.357044 0.314614
H17   H     H_    0.442707 0.433105 0.157277 0.139764
H18   H     H_    0.313138 0.432005 0.200109 0.163691
H19   H     H_    0.269382 0.338711 0.085816 0.200762
H20   H     H_    0.239810 0.507233 0.083389 0.081307
H21   H     H_    0.389189 0.372533 0.048450 0.164005
H22   H     H_    0.899368 0.919399 0.152601 0.179068
H23   H     H_    0.961904 0.162527 0.241560 0.122234
H24   H     H_    0.920068 0.866762 0.238730 0.096554
H25   H     H_    0.147093 0.692403 0.216177 0.133570
H26   H     H_    0.039540 0.686695 0.149934 0.088629
H27   H     H_    0.141112 0.759734 0.132337 0.159126
H28   H     H_    0.283991 0.677852 0.307058 0.329773
H29   H     H_    0.969337 0.954660 0.339998 0.153489
H30   H     H_    0.941125 0.124986 0.360461 0.113640
H31   H     H_    0.853354 0.657727 0.204417 0.123831
H32   H     H_    0.537690 0.525609 0.209421 0.115775
H33   H     H_    0.374139 0.681204 0.194728 0.149082
H34   H     H_    0.519811 0.552199 0.327335 0.114294
O1    O     O_R   0.267750 0.231960 0.575440 -0.506340
O2    O     O_R   0.596230 0.579400 0.952760 -0.498623
O3    O     O_R   0.639160 0.321170 0.958690 -0.514863
O4    O     O_R   0.527290 0.186640 0.570530 -0.502378
O5    O     O_R   0.821370 0.124220 0.104400 -0.513248
O6    O     O_R   0.037020 0.167050 0.097880 -0.482577
O7    O     O_R   0.056310 0.349620 0.102920 -0.537520
O8    O     O_R   0.797790 0.564880 0.097980 -0.504047
O9    O     O_R   0.596000 0.584270 0.104310 -0.523452
O10   O     O_R   0.638950 0.325690 0.099180 -0.516786
O11   O     O_3   0.824700 0.350240 0.028120 -0.280110
O12   O     O_R   0.685950 0.784660 0.430010 -0.493389
O13   O     O_R   0.728110 0.003450 0.576380 -0.510912
O14   O     O_R   0.682980 0.789190 0.570500 -0.499980
O15   O     O_R   0.499300 0.771880 0.575540 -0.508149
O16   O     O_R   0.285350 0.030870 0.569740 -0.489344
O17   O     O_R   0.270960 0.227070 0.423890 -0.481457
O18   O     O_R   0.530270 0.182120 0.430040 -0.532666
O19   O     O_R   0.731320 0.998570 0.424830 -0.547112
O20   O     O_3   0.867947 0.640472 0.340586 -0.527491
O21   O     O_3   0.252799 0.440198 0.322994 -0.593045
O22   O     O_3   0.071017 0.418215 0.366901 -0.648956
O23   O     O_R   0.502510 0.767000 0.423980 -0.499515
O24   O     O_3   0.460161 0.245112 0.172994 -0.554956
O25   O     O_3   0.023281 0.964607 0.212216 -0.543805
O26   O     O_3   0.332143 0.724672 0.321475 -0.708488
O27   O     O_R   0.288320 0.026340 0.429250 -0.485349
O28   O     O_3   0.499990 0.000020 0.499980 -0.282709
O29   O     O_R   0.821590 0.119350 0.952850 -0.502596
O30   O     O_R   0.037230 0.162540 0.957390 -0.494911
O31   O     O_R   0.056530 0.344750 0.951370 -0.517315
O32   O     O_R   0.798000 0.560370 0.957490 -0.487963

loop_
_geom_bond_atom_site_label_1
_geom_bond_atom_site_label_2
_ccdc_geom_bond_type
C25   C31   A    
C55   C56   S    
C23   C45   T    
Cr2   O13   S    
C41   C43   T    
C48   H14   S    
C19   C20   S    
C20   O22   S    
C7    C8    A    
Cr6   O9    S    
C27   O24   S    
C18   H3    S    
C7    C11   A    
C16   O16   A    
C26   C27   A    
C13   C18   A    
C36   O7    A    
C32   O31   A    
Cr4   O29   S    
H16   O22   S    
C1    C2    S    
C38   O5    A    
C2    C55   T    
C17   H2    S    
C5    C6    A    
Cr4   O6    S    
C16   O1    A    
C49   O24   S    
C22   C38   S    
C25   C30   S    
C51   H24   S    
C19   H4    S    
C36   O6    A    
C33   O2    A    
C32   O30   A    
C35   O29   A    
C16   C53   S    
C46   H7    S    
C12   C42   T    
C1    O13   A    
Cr6   O2    S    
C47   O21   S    
C40   O17   A    
C19   H1    S    
C29   O25   S    
Cr3   O15   S    
C4    C12   S    
C9    C10   S    
C9    H33   S    
C29   H23   S    
C26   C31   A    
C13   C14   A    
C35   C54   S    
H28   O26   S    
C48   H13   S    
C52   H27   S    
C15   C20   S    
C35   O3    A    
C1    O4    A    
C20   O21   S    
C44   C46   S    
C50   H21   S    
Cr3   O16   S    
C28   C31   S    
Cr3   O27   S    
C39   O12   A    
C54   C56   T    
C51   C52   S    
C52   H26   S    
Cr5   O8    S    
C24   C25   A    
C47   H11   S    
C13   C36   S    
C30   H30   S    
C3    C8    A    
C6    C11   A    
Cr1   O17   S    
Cr6   O11   S    
C10   O26   S    
Cr1   O4    S    
C33   O32   A    
C17   C21   A    
C49   H17   S    
C7    O20   S    
C38   O10   A    
C37   O9    A    
C29   C30   S    
C28   O19   A    
C47   C48   S    
C10   H34   S    
Cr1   O1    S    
C48   H15   S    
C17   C18   A    
Cr5   O31   S    
C34   C45   S    
C11   C39   S    
C3    C37   S    
C46   H9    S    
Cr4   O11   S    
C28   O18   A    
C4    O15   A    
C22   C27   A    
Cr2   O19   S    
C51   O25   S    
C22   C24   A    
C15   C21   A    
C44   H6    S    
C42   C43   S    
Cr4   O5    S    
C50   H20   S    
Cr3   O28   S    
C40   O27   A    
C4    O14   A    
Cr3   O23   S    
Cr5   O7    S    
Cr2   O14   S    
C14   C19   S    
C52   H25   S    
C8    H31   S    
C5    C9    S    
C30   H29   S    
C3    C5    A    
C6    C10   S    
C37   O8    A    
Cr1   O18   S    
Cr6   O10   S    
Cr2   O28   S    
C49   H18   S    
C33   C41   S    
C23   C32   S    
Cr4   O30   S    
Cr1   O28   S    
C21   C40   S    
C39   O23   A    
C9    H32   S    
C26   H12   S    
Cr5   O32   S    
Cr2   O12   S    
Cr5   O11   S    
C47   H10   S    
C46   H8    S    
Cr6   O3    S    
C24   C29   S    
C44   O20   S    
C34   C53   T    
C49   C50   S    
C14   C15   A    
C44   H5    S    
C51   H22   S    
C50   H19   S    
