data_mof_unit_7843.cif
_audit_creation_date              2012-12-10T18:58:44-0500
_audit_creation_method            fapswitch 2.2
_symmetry_space_group_name_H-M    P1
_symmetry_Int_Tables_number       1
_space_group_crystal_system       triclinic
_cell_length_a                    12.979787
_cell_length_b                    10.776963
_cell_length_c                    9.5438
_cell_angle_alpha                 89.806222
_cell_angle_beta                  96.019214
_cell_angle_gamma                 90.188545
_cell_volume                      1327.6387739

loop_
_atom_site_label
_atom_site_type_symbol
_atom_type_description
_atom_site_fract_x
_atom_site_fract_y
_atom_site_fract_z
_atom_type_partial_charge
C1    C     C_R   0.495239 0.262678 0.499705 0.820766
C2    C     C_R   0.025884 0.549204 0.556449 0.164112
C3    C     C_R   0.973373 0.482393 0.442464 0.135604
C4    C     C_R   0.866619 0.465770 0.434748 -0.258864
C5    C     C_R   0.862956 0.572472 0.657264 -0.210752
C6    C     C_R   0.969191 0.592143 0.664617 -0.210696
C7    C     C_R   0.543694 0.063641 0.603651 0.087065
C8    C     C_R   0.482755 0.129597 0.501055 -0.142278
C9    C     C_R   0.406901 0.065781 0.409714 0.164984
C10   C     C_R   0.409854 0.933555 0.406552 0.133929
C11   C     C_R   0.485770 0.870796 0.498828 -0.151694
C12   C     C_R   0.300780 0.504718 0.473851 0.789831
C13   C     C_R   0.544777 0.936816 0.603203 0.079230
C14   C     C_3   0.658690 0.931976 0.647088 -0.473087
C15   C     C_3   0.657233 0.072805 0.647836 -0.451585
C16   C     C_R   0.579002 0.554908 0.084710 0.262919
C17   C     C_R   0.427617 0.435418 0.064398 -0.075346
C18   C     C_R   0.427620 0.435397 0.915479 -0.074228
C19   C     C_R   0.579031 0.554853 0.937414 0.263736
C20   C     C_3   0.610979 0.687797 0.935808 -0.517614
C21   C     C_3   0.610982 0.687802 0.094869 -0.497522
C22   C     C_R   0.496792 0.737499 0.499259 0.820438
C23   C     C_R   0.699249 0.501590 0.526188 0.801217
C24   C     C_R   0.811396 0.511436 0.541160 -0.045291
C25   C     C_R   0.187974 0.509384 0.458657 -0.050631
C26   C     C_R   0.027738 0.433223 0.336990 -0.218723
C27   C     C_R   0.134475 0.444557 0.346539 -0.248092
C28   C     C_R   0.133406 0.570255 0.559438 0.099526
Cu1   Cu    Cu3+1 0.499990 0.499980 0.640670 0.938378
Cu2   Cu    Cu3+1 0.500010 0.500020 0.359330 0.932226
H1    H     H_    0.826328 0.416978 0.345868 0.145504
H2    H     H_    0.703148 0.892353 0.564402 0.193068
H3    H     H_    0.673869 0.112953 0.754992 0.202788
H4    H     H_    0.700846 0.115434 0.565547 0.188849
H5    H     H_    0.367957 0.384992 0.111919 0.137412
H6    H     H_    0.367953 0.384914 0.851434 0.144879
H7    H     H_    0.689593 0.699479 0.901357 0.181987
H8    H     H_    0.550328 0.748793 0.881574 0.225013
H9    H     H_    0.689534 0.699575 0.151959 0.196199
H10   H     H_    0.550370 0.748797 0.131367 0.218231
H11   H     H_    0.820661 0.608212 0.740364 0.146448
H12   H     H_    0.988030 0.382234 0.249541 0.143728
H13   H     H_    0.005987 0.639957 0.756091 0.151109
H14   H     H_    0.175694 0.399616 0.267780 0.157245
H15   H     H_    0.676824 0.891384 0.753843 0.197918
N1    N     N_R   0.500660 0.500930 0.148010 -0.186862
N2    N     N_R   0.500660 0.500890 0.852110 -0.186298
O1    O     O_R   0.500000 0.319640 0.618810 -0.577148
O2    O     O_R   0.500010 0.319680 0.381230 -0.575605
O3    O     O_R   0.348990 0.499960 0.599490 -0.575947
O4    O     O_R   0.349000 0.500000 0.361910 -0.595890
O5    O     O_R   0.499990 0.680320 0.618770 -0.583689
O6    O     O_R   0.500000 0.680360 0.381190 -0.580533
O7    O     O_R   0.651000 0.500000 0.638090 -0.582736
O8    O     O_R   0.651010 0.500040 0.400510 -0.582419
C29   C     C_3   0.187339 0.661599 0.663808 -0.862884
H16   H     H_    0.262321 0.695100 0.631961 0.241477
H17   H     H_    0.139781 0.746616 0.668717 0.219721
H18   H     H_    0.199941 0.618382 0.769969 0.237891
C30   C     C_3   0.323817 0.136074 0.318559 -0.867195
H19   H     H_    0.324227 0.236983 0.339107 0.228789
H20   H     H_    0.333439 0.121727 0.205529 0.233446
H21   H     H_    0.246102 0.103169 0.341088 0.227193
C31   C     C_3   0.334574 0.858815 0.307374 -0.817530
H22   H     H_    0.295866 0.787499 0.368022 0.218091
H23   H     H_    0.272627 0.914510 0.249304 0.229483
H24   H     H_    0.376827 0.812549 0.227024 0.240708

loop_
_geom_bond_atom_site_label_1
_geom_bond_atom_site_label_2
_ccdc_geom_bond_type
C12   O3    A    
Cu2   O4    S    
C1    O1    A    
C23   O8    A    
Cu1   Cu2   S    
C21   H10   S    
C22   O6    A    
C1    C8    S    
C20   H8    S    
Cu2   O8    S    
C11   C22   S    
C19   C20   S    
C21   H9    S    
C29   H18   S    
Cu2   N1    S    
C12   C25   S    
C6    H13   S    
C9    C30   S    
C18   N2    A    
C7    C15   S    
C2    C3    A    
C28   C29   S    
C7    C8    A    
C13   C14   S    
C17   N1    A    
C25   C28   A    
C20   H7    S    
C11   C13   A    
C26   C27   A    
C2    C6    A    
C5    C24   A    
C18   H6    S    
Cu1   N2    S    
C30   H21   S    
C31   H22   S    
C17   H5    S    
Cu2   O2    S    
C29   H17   S    
C17   C18   A    
C14   H15   S    
Cu1   O3    S    
C16   C19   A    
C30   H20   S    
C5    C6    A    
C4    C24   A    
Cu2   O6    S    
C19   N2    A    
C4    H1    S    
C25   C27   A    
Cu1   O7    S    
C23   C24   S    
C3    C4    A    
C31   H24   S    
C7    C13   A    
C12   O4    A    
C14   H2    S    
C20   C21   S    
C26   H12   S    
C23   O7    A    
C22   O5    A    
C10   C11   A    
C16   N1    A    
C29   H16   S    
C16   C21   S    
C5    H11   S    
C14   C15   S    
C8    C9    A    
C2    C28   A    
Cu1   O1    S    
C15   H4    S    
C1    O2    A    
C27   H14   S    
C15   H3    S    
C3    C26   A    
C10   C31   S    
C9    C10   A    
C30   H19   S    
Cu1   O5    S    
C31   H23   S    
