data_mof_unit_65695.cif
_audit_creation_date              2012-12-11T15:44:47-0500
_audit_creation_method            fapswitch 2.2
_symmetry_space_group_name_H-M    P1
_symmetry_Int_Tables_number       1
_space_group_crystal_system       triclinic
_cell_length_a                    22.669233
_cell_length_b                    30.525537
_cell_length_c                    19.018939
_cell_angle_alpha                 89.999856
_cell_angle_beta                  124.129565
_cell_angle_gamma                 90.00001
_cell_volume                      10894.2313977

loop_
_atom_site_label
_atom_site_type_symbol
_atom_type_description
_atom_site_fract_x
_atom_site_fract_y
_atom_site_fract_z
_atom_type_partial_charge
C1    C     C_R   0.115965 0.382566 0.066857 0.144894
C2    C     C_R   0.115965 0.617433 0.066857 0.144948
C3    C     C_R   0.615969 0.882569 0.066858 0.144924
C4    C     C_R   0.615969 0.117431 0.066858 0.144961
C5    C     C_R   0.868516 0.388779 0.932635 -0.080450
C6    C     C_R   0.868516 0.611221 0.932635 -0.080426
C7    C     C_R   0.368513 0.888781 0.932634 -0.080432
C8    C     C_R   0.368513 0.111219 0.932634 -0.080411
C9    C     C_R   0.941367 0.609643 0.075486 -0.089779
C10   C     C_R   0.941367 0.390357 0.075486 -0.089740
C11   C     C_R   0.441364 0.109642 0.075485 -0.089774
C12   C     C_R   0.441364 0.890358 0.075485 -0.089739
C13   C     C_R   0.015392 0.500000 0.266095 0.077796
C14   C     C_R   0.515391 1.000000 0.266095 0.077799
C15   C     C_R   0.765686 0.500001 0.728865 0.078330
C16   C     C_R   0.265735 0.000001 0.728807 0.078364
C17   C     C_R   0.880065 0.370705 0.006392 0.069175
C18   C     C_R   0.880066 0.629295 0.006392 0.069178
C19   C     C_R   0.380061 0.870707 0.006391 0.069169
C20   C     C_R   0.380061 0.129293 0.006391 0.069172
C21   C     C_3   0.492370 0.543122 0.364881 0.034757
C22   C     C_3   0.492799 0.457263 0.364042 0.034668
C23   C     C_3   0.992454 0.043066 0.364741 0.034741
C24   C     C_3   0.992754 0.957206 0.364150 0.034669
C25   C     C_3   0.571953 0.459691 0.439889 -0.033130
C26   C     C_3   0.571550 0.540750 0.440634 -0.033186
C27   C     C_3   0.071931 0.959625 0.439933 -0.033124
C28   C     C_3   0.071651 0.040685 0.440454 -0.033163
C29   C     C_1   0.706225 0.500001 0.644333 0.052668
C30   C     C_1   0.206311 0.000001 0.644254 0.052663
C31   C     C_3   0.452983 0.500004 0.360275 0.043179
C32   C     C_3   0.953019 0.000003 0.360303 0.043188
C33   C     C_3   0.582798 0.500000 0.497502 -0.060176
C34   C     C_3   0.082876 0.000001 0.497450 -0.060181
C35   C     C_R   0.050096 0.615284 0.927663 0.159666
C36   C     C_R   0.050096 0.384716 0.927663 0.159664
C37   C     C_R   0.550099 0.115282 0.927664 0.159670
C38   C     C_R   0.550099 0.884718 0.927664 0.159670
C39   C     C_3   0.526339 0.499594 0.521739 0.419110
C40   C     C_3   0.026466 0.999717 0.521767 0.419080
C41   C     C_3   0.450528 0.499581 0.440072 -0.604800
C42   C     C_3   0.950630 0.999706 0.440147 -0.604777
C43   C     C_1   0.652915 0.500002 0.575130 0.099298
C44   C     C_1   0.153009 0.000002 0.575046 0.099299
C45   C     C_1   0.379230 0.500000 0.289531 0.091800
C46   C     C_1   0.879250 0.000001 0.289604 0.091778
C47   C     C_1   0.316093 0.500000 0.243739 0.010559
C48   C     C_1   0.816112 0.000000 0.243832 0.010581
C49   C     C_1   0.140610 0.677679 0.995869 0.091561
C50   C     C_1   0.140610 0.322321 0.995869 0.091495
C51   C     C_1   0.640617 0.177675 0.995870 0.091558
C52   C     C_1   0.640617 0.822325 0.995870 0.091512
C53   C     C_1   0.174435 0.709040 0.997827 0.052639
C54   C     C_1   0.174434 0.290959 0.997828 0.052556
C55   C     C_1   0.674442 0.209037 0.997829 0.052633
C56   C     C_1   0.674443 0.790963 0.997830 0.052574
C57   C     C_1   0.217325 0.744344 0.001636 0.031014
C58   C     C_1   0.217324 0.255655 0.001636 0.030931
C59   C     C_1   0.717332 0.244340 0.001638 0.031007
C60   C     C_1   0.717333 0.755660 0.001639 0.030945
C61   C     C_1   0.755170 0.273585 0.005066 0.033979
C62   C     C_1   0.755170 0.726415 0.005066 0.033930
C63   C     C_1   0.255162 0.773589 0.005064 0.033984
C64   C     C_1   0.255162 0.226410 0.005064 0.033921
C65   C     C_1   0.800014 0.307401 0.008253 0.038511
C66   C     C_1   0.800014 0.692599 0.008252 0.038478
C67   C     C_1   0.300007 0.807405 0.008251 0.038516
C68   C     C_1   0.300006 0.192595 0.008250 0.038474
C69   C     C_R   0.984000 0.463417 0.777926 -0.100679
C70   C     C_R   0.984001 0.536584 0.777926 -0.100751
C71   C     C_R   0.483996 0.963417 0.777923 -0.100707
C72   C     C_R   0.483997 0.036584 0.777923 -0.100758
C73   C     C_1   0.837463 0.336122 0.009100 -0.004045
C74   C     C_1   0.837463 0.663878 0.009100 -0.004066
C75   C     C_1   0.337457 0.836126 0.009098 -0.004039
C76   C     C_1   0.337457 0.163874 0.009098 -0.004064
C77   C     C_1   0.014405 0.500000 0.341185 -0.017085
C78   C     C_1   0.514402 1.000000 0.341183 -0.017091
C79   C     C_1   0.012200 0.500000 0.403185 0.030216
C80   C     C_1   0.512195 1.000000 0.403182 0.030211
C81   C     C_1   0.008428 0.500000 0.475015 0.023393
C82   C     C_1   0.508422 1.000000 0.475011 0.023390
C83   C     C_1   0.004549 0.500000 0.535816 0.023492
C84   C     C_1   0.504542 0.000000 0.535811 0.023490
C85   C     C_1   0.999549 0.500000 0.606753 0.034898
C86   C     C_1   0.499541 0.000000 0.606747 0.034897
C87   C     C_1   0.995193 0.500000 0.667206 -0.002927
C88   C     C_1   0.495185 0.000000 0.667200 -0.002930
C89   C     C_R   0.199935 0.535688 0.186562 -0.088957
C90   C     C_R   0.199934 0.464312 0.186563 -0.089141
C91   C     C_R   0.699943 0.035689 0.186609 -0.088992
C92   C     C_R   0.699943 0.964311 0.186610 -0.089123
C93   C     C_R   0.105389 0.361967 0.996402 -0.035132
C94   C     C_R   0.105390 0.638032 0.996402 -0.035107
C95   C     C_R   0.605396 0.861971 0.996403 -0.035130
C96   C     C_R   0.605396 0.138029 0.996403 -0.035113
C97   C     C_R   0.990178 0.500000 0.739455 0.057481
C98   C     C_R   0.490172 0.000000 0.739451 0.057493
C99   C     C_R   0.241730 0.500000 0.202605 0.039741
C100  C     C_R   0.741747 1.000000 0.202691 0.039790
C101  C     C_R   0.018623 0.463289 0.225249 -0.108520
C102  C     C_R   0.018623 0.536711 0.225249 -0.108535
C103  C     C_R   0.518623 0.963289 0.225249 -0.108527
C104  C     C_R   0.518623 0.036711 0.225249 -0.108540
C105  C     C_R   0.804729 0.535984 0.773770 -0.101985
C106  C     C_R   0.804729 0.464017 0.773769 -0.101891
C107  C     C_R   0.304755 0.035984 0.773737 -0.101937
C108  C     C_R   0.304755 0.964017 0.773736 -0.101871
H1    H     H_    0.419971 0.528409 0.439061 0.215064
H2    H     H_    0.420317 0.470420 0.438521 0.215110
H3    H     H_    0.920140 0.028584 0.439092 0.215075
H4    H     H_    0.920386 0.970592 0.438713 0.215107
H5    H     H_    0.025372 0.429839 0.247006 0.117300
H6    H     H_    0.025372 0.570160 0.247006 0.117291
H7    H     H_    0.525371 0.929839 0.247006 0.117298
H8    H     H_    0.525371 0.070160 0.247006 0.117289
H9    H     H_    0.828617 0.379203 0.867927 0.127564
H10   H     H_    0.828617 0.620798 0.867927 0.127571
H11   H     H_    0.328612 0.879207 0.867926 0.127576
H12   H     H_    0.328612 0.120793 0.867925 0.127581
H13   H     H_    0.604335 0.536021 0.414471 0.157278
H14   H     H_    0.604724 0.464998 0.413865 0.157211
H15   H     H_    0.104391 0.035868 0.414256 0.157272
H16   H     H_    0.104667 0.964844 0.413835 0.157224
N1    N     N_R   0.075400 0.419050 0.040930 -0.079182
N2    N     N_R   0.075400 0.580950 0.040930 -0.079206
N3    N     N_R   0.575400 0.919050 0.040930 -0.079181
N4    N     N_R   0.575400 0.080950 0.040930 -0.079199
N5    N     N_R   0.035610 0.578860 0.956800 -0.078041
N6    N     N_R   0.035610 0.421140 0.956800 -0.078050
N7    N     N_R   0.535610 0.078860 0.956800 -0.078041
N8    N     N_R   0.535610 0.921140 0.956800 -0.078047
N9    N     N_R   0.976800 0.476930 0.840160 -0.047128
N10   N     N_R   0.976800 0.523070 0.840160 -0.047117
N11   N     N_R   0.476800 0.976930 0.840160 -0.047128
N12   N     N_R   0.476800 0.023070 0.840160 -0.047120
N13   N     N_R   0.134210 0.520980 0.157560 -0.043136
N14   N     N_R   0.134210 0.479020 0.157560 -0.043099
N15   N     N_R   0.634210 0.020980 0.157560 -0.043140
N16   N     N_R   0.634210 0.979020 0.157560 -0.043114
N17   N     N_R   0.020160 0.476910 0.158980 -0.045827
N18   N     N_R   0.020160 0.523090 0.158980 -0.045828
N19   N     N_R   0.520160 0.976910 0.158980 -0.045825
N20   N     N_R   0.520160 0.023090 0.158980 -0.045825
N21   N     N_R   0.864590 0.520950 0.843300 -0.048992
N22   N     N_R   0.864590 0.479050 0.843300 -0.049005
N23   N     N_R   0.364590 0.020950 0.843300 -0.049004
N24   N     N_R   0.364590 0.979050 0.843300 -0.049013
N25   N     N_R   0.919150 0.419020 0.955970 -0.048311
N26   N     N_R   0.919150 0.580980 0.955970 -0.048307
N27   N     N_R   0.419150 0.919020 0.955970 -0.048312
N28   N     N_R   0.419150 0.080980 0.955970 -0.048310
N29   N     N_R   0.965610 0.578840 0.046310 -0.046493
N30   N     N_R   0.965610 0.421160 0.046310 -0.046492
N31   N     N_R   0.465610 0.078840 0.046310 -0.046491
N32   N     N_R   0.465610 0.921160 0.046310 -0.046492
Ni1   Ni    Ni4+2 0.047340 0.448440 0.099050 0.249931
Ni2   Ni    Ni4+2 0.047340 0.551560 0.099050 0.249919
Ni3   Ni    Ni4+2 0.547340 0.948440 0.099050 0.249927
Ni4   Ni    Ni4+2 0.547340 0.051560 0.099050 0.249917
Ni5   Ni    Ni4+2 0.950540 0.549450 0.900950 0.244800
Ni6   Ni    Ni4+2 0.950540 0.450550 0.900950 0.244823
Ni7   Ni    Ni4+2 0.450540 0.049450 0.900950 0.244793
Ni8   Ni    Ni4+2 0.450540 0.950550 0.900950 0.244810
I1    I     I_    0.154335 0.350023 0.183534 -0.380401
I2    I     I_    0.154340 0.649975 0.183536 -0.380180
I3    I     I_    0.654334 0.850021 0.183530 -0.380394
I4    I     I_    0.654336 0.149978 0.183530 -0.380229
I5    I     I_    0.481841 0.561720 0.248864 -0.273960
I6    I     I_    0.482504 0.439772 0.247694 -0.274038
I7    I     I_    0.981866 0.061503 0.248621 -0.273987
I8    I     I_    0.982336 0.939551 0.247798 -0.274052
H17   H     H_    0.467672 0.429090 0.374859 0.163403
H18   H     H_    0.466989 0.570910 0.376295 0.163471
H19   H     H_    0.967613 0.929089 0.375092 0.163414
H20   H     H_    0.967138 0.070913 0.376108 0.163464
I9    I     I_    0.613887 0.396550 0.498689 -0.279470
I10   I     I_    0.612918 0.603739 0.500586 -0.279670
I11   I     I_    0.113805 0.896505 0.498891 -0.279491
I12   I     I_    0.113135 0.103697 0.500219 -0.279622
I13   I     I_    0.535776 0.553625 0.601369 -0.280270
I14   I     I_    0.536378 0.444933 0.600478 -0.280293
I15   I     I_    0.036053 0.053845 0.601295 -0.280349
I16   I     I_    0.036478 0.945150 0.600679 -0.280370
I17   I     I_    0.973565 0.649782 0.816012 -0.389152
I18   I     I_    0.973566 0.350218 0.816012 -0.388955
I19   I     I_    0.473571 0.149782 0.816013 -0.389124
I20   I     I_    0.473572 0.850218 0.816014 -0.388975
H21   H     H_    0.980698 0.430392 0.757098 0.153715
H22   H     H_    0.980701 0.569608 0.757100 0.153699
H23   H     H_    0.480692 0.930392 0.757093 0.153715
H24   H     H_    0.480695 0.069608 0.757095 0.153704
H25   H     H_    0.216715 0.569158 0.193493 0.146519
H26   H     H_    0.216714 0.430841 0.193495 0.146436
H27   H     H_    0.716724 0.069160 0.193550 0.146519
H28   H     H_    0.716723 0.930840 0.193550 0.146460
H29   H     H_    0.795737 0.569513 0.751603 0.134144
H30   H     H_    0.795737 0.430488 0.751601 0.134177
H31   H     H_    0.295781 0.069512 0.751569 0.134159
H32   H     H_    0.295780 0.930489 0.751567 0.134182
H33   H     H_    0.967887 0.619427 0.141047 0.118826
H34   H     H_    0.967888 0.380573 0.141048 0.118840
H35   H     H_    0.467884 0.119426 0.141047 0.118824
H36   H     H_    0.467885 0.880574 0.141047 0.118839

loop_
_geom_bond_atom_site_label_1
_geom_bond_atom_site_label_2
_ccdc_geom_bond_type
C21   C26   S    
C49   C53   T    
N28   Ni7   S    
C55   C59   S    
C101  H5    S    
N11   Ni8   S    
N23   N24   A    
C24   C27   S    
N25   N30   A    
N9    Ni6   S    
C10   N30   A    
N8    Ni8   S    
N21   N22   A    
C28   H15   S    
C65   C73   T    
N11   N12   A    
C39   C41   S    
C72   C98   A    
N22   Ni6   S    
C70   H22   S    
C8    C20   A    
N13   Ni2   S    
C89   C99   A    
C34   C40   S    
C64   C68   S    
C15   C106  A    
C8    N28   A    
C84   C86   S    
C77   C79   T    
N16   Ni3   S    
C71   N11   A    
C3    N3    A    
C72   N12   A    
C5    C17   A    
C10   C17   A    
C16   C30   S    
N19   N20   A    
C66   C74   T    
C5    N25   A    
C20   C76   S    
C52   C95   S    
C60   C62   T    
C45   C47   T    
N29   Ni2   S    
N26   Ni5   S    
C42   H4    S    
N3    N8    A    
C82   C84   T    
C16   C107  A    
C90   N14   A    
C104  H8    S    
C101  N17   A    
N1    N6    A    
N26   N29   A    
C38   C95   A    
C47   C99   S    
C69   N9    A    
C104  N20   A    
C15   C29   S    
C10   H34   S    
C26   H13   S    
C1    I1    S    
C91   C100  A    
N20   Ni4   S    
C25   H14   S    
C2    I2    S    
C36   I18   S    
C70   C97   A    
C11   N31   A    
C51   C96   S    
C106  H30   S    
C40   I15   S    
C40   I16   S    
N6    Ni6   S    
C40   C42   S    
N13   N14   A    
C28   C34   S    
C18   C74   S    
C4    C96   A    
C29   C43   T    
C17   C73   S    
C30   C44   T    
N18   Ni2   S    
C48   C100  S    
C36   C93   A    
C12   H36   S    
C81   C83   T    
C57   C63   T    
C63   C67   S    
C85   C87   T    
C27   C34   S    
C58   C64   T    
C6    C18   A    
C71   C98   A    
C46   C48   T    
C11   C20   A    
C59   C61   T    
C22   C31   S    
C4    N4    A    
C86   C88   T    
C3    I3    S    
C33   C43   S    
C7    H11   S    
C2    C94   A    
C34   C44   S    
N30   Ni1   S    
C80   C82   S    
C69   H21   S    
C79   C81   S    
C92   C100  A    
C62   C66   S    
N24   Ni8   S    
C11   H35   S    
C23   H20   S    
N2    N5    A    
C107  N23   A    
N27   N32   A    
C22   C25   S    
C4    I4    S    
C37   C96   A    
C5    H9    S    
C38   N8    A    
C108  H32   S    
C103  H7    S    
C42   H3    S    
C24   C32   S    
C102  H6    S    
C36   N6    A    
C22   I6    S    
C21   C31   S    
C24   H19   S    
C26   C33   S    
C14   C104  A    
C90   H26   S    
N28   N31   A    
N7    Ni7   S    
C35   I17   S    
C89   H25   S    
C78   C80   T    
N5    Ni5   S    
C33   C39   S    
C23   C28   S    
C28   I12   S    
C39   I13   S    
C9    H33   S    
C7    N27   A    
C2    N2    A    
N17   Ni1   S    
C83   C85   S    
N15   Ni4   S    
N27   Ni8   S    
C7    C19   A    
C41   H2    S    
C13   C77   S    
N9    N10   A    
C49   C94   S    
C91   N15   A    
C67   C75   T    
C12   N32   A    
C13   C101  A    
C92   N16   A    
N4    N7    A    
N3    Ni3   S    
C90   C99   A    
C22   H17   S    
N4    Ni4   S    
C54   C58   S    
C35   C94   A    
C8    H12   S    
C35   N5    A    
C53   C57   S    
C31   C41   S    
N12   Ni7   S    
N31   Ni4   S    
N1    Ni1   S    
C32   C46   S    
N32   Ni3   S    
C27   I11   S    
C92   H28   S    
C103  N19   A    
C3    C95   A    
C27   H16   S    
C38   I20   S    
C50   C93   S    
N19   Ni3   S    
C68   C76   T    
C91   H27   S    
C26   I10   S    
C89   N13   A    
C106  N22   A    
N10   Ni5   S    
C1    N1    A    
C23   C32   S    
C15   C105  A    
C19   C75   S    
C50   C54   T    
N23   Ni7   S    
N17   N18   A    
C107  H31   S    
N15   N16   A    
N14   Ni1   S    
C14   C103  A    
C37   I19   S    
N21   Ni5   S    
C21   I5    S    
C12   C19   A    
C105  H29   S    
C6    H10   S    
C51   C55   T    
C14   C78   S    
C61   C65   S    
C24   I8    S    
C39   I14   S    
C16   C108  A    
C9    N29   A    
C6    N26   A    
C37   N7    A    
C9    C18   A    
N2    Ni2   S    
C56   C60   S    
C1    C93   A    
C21   H18   S    
C31   C45   S    
C70   N10   A    
C32   C42   S    
C41   H1    S    
N25   Ni6   S    
C102  N18   A    
C71   H23   S    
C13   C102  A    
C87   C97   S    
C25   I9    S    
C105  N21   A    
C72   H24   S    
C88   C98   S    
C52   C56   T    
C25   C33   S    
C108  N24   A    
C23   I7    S    
C69   C97   A    
