data_mof_unit_36855.cif
_audit_creation_date              2012-12-11T14:21:19-0500
_audit_creation_method            fapswitch 2.2
_symmetry_space_group_name_H-M    P1
_symmetry_Int_Tables_number       1
_space_group_crystal_system       triclinic
_cell_length_a                    11.545072
_cell_length_b                    11.509741
_cell_length_c                    19.507548
_cell_angle_alpha                 90.595841
_cell_angle_beta                  90.082461
_cell_angle_gamma                 59.724618
_cell_volume                      2238.49421979

loop_
_atom_site_label
_atom_site_type_symbol
_atom_type_description
_atom_site_fract_x
_atom_site_fract_y
_atom_site_fract_z
_atom_type_partial_charge
C1    C     C_R   0.640656 0.118008 0.599085 0.531020
C2    C     C_1   0.652821 0.150600 0.668492 0.003425
C3    C     C_R   0.648581 0.672092 0.194160 -0.002344
C4    C     C_R   0.613852 0.743404 0.597905 0.533237
C5    C     C_R   0.552409 0.658363 0.234425 0.035846
C6    C     C_R   0.578581 0.630726 0.304036 0.023706
C7    C     C_R   0.739738 0.707665 0.296865 -0.139395
C8    C     C_R   0.740562 0.698356 0.226303 -0.162866
C9    C     C_R   0.433845 0.666898 0.207846 -0.094953
C10   C     C_R   0.361660 0.622375 0.245654 -0.152872
C11   C     C_R   0.400139 0.577008 0.312020 -0.123006
C12   C     C_1   0.651740 0.683271 0.664041 0.003553
C13   C     C_R   0.509294 0.579039 0.340988 -0.078235
C14   C     C_R   0.659954 0.673024 0.336362 -0.009345
C15   C     C_R   0.149129 0.208543 0.192701 0.015502
C16   C     C_R   0.298206 0.120073 0.605363 0.554523
C17   C     C_R   0.124667 0.317179 0.238147 0.023212
C18   C     C_R   0.118525 0.298757 0.308759 -0.031938
C19   C     C_R   0.235037 0.056816 0.287620 -0.137131
C20   C     C_R   0.211024 0.078224 0.217791 -0.161176
C21   C     C_R   0.111180 0.441287 0.216872 -0.149140
C22   C     C_R   0.075496 0.547072 0.263350 -0.127554
C23   C     C_1   0.146826 0.188019 0.863215 0.002326
C24   C     C_R   0.049721 0.533299 0.331334 0.363340
C25   C     C_R   0.064521 0.412146 0.353299 -0.052657
C26   C     C_R   0.183254 0.166058 0.333831 0.000922
C27   C     C_R   0.724640 0.213849 0.207722 0.002665
C28   C     C_R   0.647179 0.116021 0.404540 0.530775
C29   C     C_R   0.834157 0.118839 0.249254 0.024579
C30   C     C_R   0.811181 0.109019 0.319582 0.022663
C31   C     C_R   0.572275 0.257163 0.301980 -0.153732
C32   C     C_R   0.595734 0.283766 0.235992 -0.140737
C33   C     C_R   0.964443 0.027252 0.223691 -0.104636
C34   C     C_1   0.227630 0.144899 0.735614 -0.029537
C35   C     C_R   0.063455 0.932423 0.265809 -0.139662
C36   C     C_R   0.045033 0.938902 0.336001 -0.075623
C37   C     C_R   0.921238 0.031396 0.363214 -0.069722
C38   C     C_R   0.678483 0.168239 0.343592 -0.009056
C39   C     C_R   0.084529 0.229449 0.929327 0.542229
C40   C     C_R   0.620078 0.734145 0.403881 0.535810
C41   C     C_R   0.709093 0.546233 0.922614 0.558643
C42   C     C_R   0.707970 0.206241 0.930265 0.552781
C43   C     C_R   0.085985 0.236660 0.124851 0.537627
C44   C     C_R   0.679130 0.615147 0.125043 0.547133
C45   C     C_1   0.188005 0.163935 0.805091 -0.027816
C46   C     C_R   0.741966 0.235316 0.134842 0.556230
C47   C     C_R   0.241389 0.141635 0.402134 0.537215
C48   C     C_1   0.698804 0.581019 0.851738 0.001872
C49   C     C_1   0.673137 0.644598 0.722262 -0.027578
C50   C     C_1   0.689219 0.608672 0.791886 -0.030393
C51   C     C_1   0.258875 0.132947 0.675957 0.002692
C52   C     C_1   0.678242 0.190885 0.860889 0.001042
C53   C     C_1   0.658185 0.167956 0.728983 -0.030694
C54   C     C_1   0.665248 0.181008 0.800360 -0.031778
Cr1   Cr    Cr6+3 0.404720 0.198220 0.499960 1.034822
Cr2   Cr    Cr6+3 0.698290 0.897110 0.500380 1.077010
Cr3   Cr    Cr6+3 0.396970 0.904720 0.499610 1.024264
Cr4   Cr    Cr6+3 0.926180 0.151990 0.028120 1.007874
Cr5   Cr    Cr6+3 0.921330 0.451820 0.027470 1.020699
Cr6   Cr    Cr6+3 0.626260 0.446870 0.028710 1.017784
F1    F     F_    0.016219 0.635375 0.376867 -0.654362
H1    H     H_    0.796457 0.748861 0.320079 0.210867
H2    H     H_    0.394466 0.709617 0.158191 0.134292
H3    H     H_    0.811184 0.713599 0.196826 0.136950
H4    H     H_    0.275413 0.623674 0.223229 0.103002
H5    H     H_    0.343784 0.542894 0.341493 0.140611
H6    H     H_    0.536121 0.545447 0.393304 0.128182
H7    H     H_    0.293796 0.954328 0.305530 0.146361
H8    H     H_    0.137361 0.456178 0.165968 0.152326
H9    H     H_    0.240122 0.993409 0.183359 0.108287
H10   H     H_    0.066228 0.640580 0.246366 0.122301
H11   H     H_    0.043743 0.404371 0.406651 0.149893
H12   H     H_    0.469289 0.301214 0.319143 0.144530
H13   H     H_    0.995810 0.021811 0.171717 0.170490
H14   H     H_    0.510547 0.351727 0.205256 0.150048
H15   H     H_    0.159360 0.861991 0.244059 0.108543
H16   H     H_    0.126825 0.873135 0.369219 0.142778
H17   H     H_    0.911108 0.037714 0.418451 0.136317
O1    O     O_R   0.267740 0.231960 0.575440 -0.497018
O2    O     O_R   0.596130 0.579390 0.952730 -0.501568
O3    O     O_R   0.639060 0.321160 0.958670 -0.504025
O4    O     O_R   0.527280 0.186640 0.570530 -0.512294
O5    O     O_R   0.821240 0.124200 0.104370 -0.528235
O6    O     O_R   0.036890 0.167040 0.097840 -0.530475
O7    O     O_R   0.056180 0.349610 0.102880 -0.524799
O8    O     O_R   0.797660 0.564870 0.097950 -0.491327
O9    O     O_R   0.595880 0.584250 0.104270 -0.532004
O10   O     O_R   0.638830 0.325670 0.099150 -0.493960
O11   O     O_3   0.824590 0.350230 0.028100 -0.285228
O12   O     O_R   0.685970 0.784660 0.430010 -0.469264
O13   O     O_R   0.728090 0.003450 0.576380 -0.502625
O14   O     O_R   0.682970 0.789190 0.570490 -0.489492
O15   O     O_R   0.499290 0.771880 0.575530 -0.513744
O16   O     O_R   0.285330 0.030870 0.569730 -0.489704
O17   O     O_R   0.270980 0.227080 0.423890 -0.511849
O18   O     O_R   0.530280 0.182120 0.430050 -0.504988
O19   O     O_R   0.731330 0.998570 0.424830 -0.496329
O20   O     O_R   0.502530 0.767000 0.423990 -0.525177
O21   O     O_R   0.288330 0.026350 0.429250 -0.499849
O22   O     O_3   0.499990 0.000020 0.499980 -0.274743
O23   O     O_R   0.821500 0.119340 0.952830 -0.496530
O24   O     O_R   0.037130 0.162530 0.957360 -0.494217
O25   O     O_R   0.056440 0.344740 0.951340 -0.509403
O26   O     O_R   0.797900 0.560360 0.957470 -0.486007

loop_
_geom_bond_atom_site_label_1
_geom_bond_atom_site_label_2
_ccdc_geom_bond_type
C28   O19   A    
C24   F1    S    
C23   C45   T    
C27   C29   A    
C19   C20   A    
C18   C26   A    
C16   C51   S    
C32   H14   S    
C12   C49   T    
Cr6   O10   S    
C7    C8    A    
C53   C54   S    
C42   O3    A    
C34   C51   T    
Cr5   O26   S    
C36   C37   A    
C36   H16   S    
C40   O20   A    
C5    C6    A    
C31   H12   S    
Cr3   O21   S    
C29   C33   A    
C47   O21   A    
C30   C38   A    
C1    C2    S    
Cr5   O11   S    
C19   C26   A    
Cr2   O13   S    
C35   C36   A    
Cr1   O22   S    
Cr4   O24   S    
C4    C12   S    
C44   O9    A    
C9    C10   A    
C11   H5    S    
Cr2   O12   S    
C1    O13   A    
Cr3   O15   S    
C21   C22   A    
C43   O6    A    
C20   H9    S    
C18   C25   A    
Cr2   O19   S    
C41   O2    A    
C44   O8    A    
Cr6   O9    S    
C52   C54   T    
C46   O10   A    
C7    C14   A    
C15   C20   A    
C35   H15   S    
C3    C44   S    
C43   O7    A    
C24   C25   A    
Cr1   O17   S    
C3    C8    A    
Cr4   O23   S    
C1    O4    A    
Cr6   O11   S    
Cr3   O22   S    
C17   C21   A    
C4    O15   A    
C30   C37   A    
C21   H8    S    
Cr5   O7    S    
C7    H1    S    
C5    C9    A    
C29   C30   A    
Cr4   O6    S    
C6    C14   A    
Cr1   O1    S    
Cr6   O3    S    
C31   C32   A    
C28   C38   S    
C17   C18   A    
C19   H7    S    
C34   C45   S    
Cr1   O4    S    
C26   C47   S    
C8    H3    S    
C27   C46   S    
Cr3   O16   S    
C22   C24   A    
Cr2   O22   S    
C42   O23   A    
C22   H10   S    
C39   O24   A    
C13   H6    S    
C10   H4    S    
C15   C17   A    
Cr6   O2    S    
C27   C32   A    
C9    H2    S    
Cr1   O18   S    
C3    C5    A    
C2    C53   T    
C31   C38   A    
C39   O25   A    
C37   H17   S    
C16   O16   A    
C41   O26   A    
C28   O18   A    
C16   O1    A    
Cr5   O25   S    
Cr5   O8    S    
C15   C43   S    
Cr4   O5    S    
C6    C13   A    
C11   C13   A    
C25   H11   S    
C23   C39   S    
Cr3   O20   S    
C48   C50   T    
C33   C35   A    
C41   C48   S    
Cr4   O11   S    
C10   C11   A    
C14   C40   S    
C46   O5    A    
C33   H13   S    
Cr2   O14   S    
C49   C50   S    
C47   O17   A    
C40   O12   A    
C42   C52   S    
C4    O14   A    
