data_mof_unit_41216.cif
_audit_creation_date              2012-12-10T16:48:43-0500
_audit_creation_method            fapswitch 2.2
_symmetry_space_group_name_H-M    P1
_symmetry_Int_Tables_number       1
_space_group_crystal_system       triclinic
_cell_length_a                    7.776815
_cell_length_b                    8.586124
_cell_length_c                    10.479545
_cell_angle_alpha                 88.925859
_cell_angle_beta                  97.580075
_cell_angle_gamma                 93.482341
_cell_volume                      692.311241842

loop_
_atom_site_label
_atom_site_type_symbol
_atom_type_description
_atom_site_fract_x
_atom_site_fract_y
_atom_site_fract_z
_atom_type_partial_charge
C1    C     C_R   0.545185 0.794833 0.498327 0.959662
C2    C     C_2   0.432912 0.041761 0.509543 -0.390327
C3    C     C_3   0.495853 0.118636 0.176503 -0.770320
C4    C     C_3   0.159727 0.320340 0.860608 -0.723788
C5    C     C_R   0.455847 0.205143 0.505199 0.968450
C6    C     C_R   0.568554 0.486590 0.737634 0.958177
C7    C     C_R   0.428564 0.498329 0.262421 0.949654
C8    C     C_2   0.594693 0.453582 0.875039 -0.448206
C9    C     C_2   0.389339 0.471256 0.124906 -0.411575
C10   C     C_2   0.469204 0.370774 0.928655 0.179637
C11   C     C_2   0.477552 0.367274 0.068159 0.206715
C12   C     C_2   0.569804 0.958143 0.500106 -0.396766
H1    H     H_    0.297422 0.543766 0.068117 0.127768
H2    H     H_    0.123264 0.289792 0.957393 0.216362
H3    H     H_    0.699342 0.009175 0.491605 0.181250
H4    H     H_    0.303433 0.990796 0.518302 0.181071
H5    H     H_    0.985277 0.382569 0.406232 0.192511
H6    H     H_    0.014730 0.617238 0.593920 0.186140
H7    H     H_    0.707718 0.506943 0.933879 0.126657
H8    H     H_    0.695271 0.238494 0.097915 0.214960
H9    H     H_    0.587528 0.045522 0.237553 0.239548
H10   H     H_    0.441241 0.051537 0.089305 0.217948
H11   H     H_    0.388821 0.145214 0.231615 0.238678
H12   H     H_    0.350026 0.161256 0.863978 0.210187
H13   H     H_    0.068863 0.254586 0.787300 0.233867
H14   H     H_    0.146593 0.447038 0.841219 0.244386
N1    N     N_2   0.940600 0.458860 0.467170 -0.169843
N2    N     N_2   0.059400 0.541140 0.532830 -0.172618
N3    N     N_2   0.587249 0.260987 0.140539 -0.277584
N4    N     N_2   0.335622 0.279432 0.852210 -0.271584
O1    O     O_R   0.391630 0.738350 0.508060 -0.611378
O2    O     O_R   0.608370 0.261650 0.491940 -0.602364
O3    O     O_R   0.674540 0.711990 0.487010 -0.631395
O4    O     O_R   0.325460 0.288010 0.512990 -0.624635
O5    O     O_R   0.411370 0.508250 0.688780 -0.578710
O6    O     O_R   0.588630 0.491750 0.311220 -0.577442
O7    O     O_R   0.694270 0.481880 0.667740 -0.628076
O8    O     O_R   0.305730 0.518120 0.332260 -0.623156
Zn1   Zn    Zn3+2 0.311100 0.517600 0.514050 0.936836
Zn2   Zn    Zn3+2 0.688900 0.482400 0.485950 0.939302

loop_
_geom_bond_atom_site_label_1
_geom_bond_atom_site_label_2
_ccdc_geom_bond_type
O5    Zn1   S    
C2    C5    S    
C2    H4    S    
C7    O6    A    
C10   N4    S    
C3    H11   S    
C12   H3    S    
C1    O1    A    
N1    Zn2   S    
C5    O2    A    
C2    C12   D    
C5    O4    A    
C4    H13   S    
C6    O7    A    
C1    O3    A    
C9    C11   D    
C1    C12   S    
C7    O8    A    
O1    Zn1   S    
O7    Zn2   S    
H8    N3    S    
O2    Zn2   S    
C4    H2    S    
O8    Zn1   S    
H12   N4    S    
C4    H14   S    
C3    H9    S    
O3    Zn2   S    
C10   C11   S    
O4    Zn1   S    
C8    H7    S    
C7    C9    S    
O6    Zn2   S    
H6    N2    S    
C6    O5    A    
C11   N3    S    
C8    C10   D    
N1    N2    D    
C3    N3    S    
C9    H1    S    
C3    H10   S    
C6    C8    S    
N2    Zn1   S    
C4    N4    S    
H5    N1    S    
