data_mof_unit_7791.cif
_audit_creation_date              2012-12-11T14:34:10-0500
_audit_creation_method            fapswitch 2.2
_symmetry_space_group_name_H-M    P1
_symmetry_Int_Tables_number       1
_space_group_crystal_system       triclinic
_cell_length_a                    13.827541
_cell_length_b                    14.025793
_cell_length_c                    27.305799
_cell_angle_alpha                 90.039433
_cell_angle_beta                  89.851042
_cell_angle_gamma                 119.77329
_cell_volume                      4596.67648695

loop_
_atom_site_label
_atom_site_type_symbol
_atom_type_description
_atom_site_fract_x
_atom_site_fract_y
_atom_site_fract_z
_atom_type_partial_charge
C1    C     C_R   0.233817 0.786911 0.568867 0.542304
C2    C     C_1   0.709979 0.863098 0.859918 -0.048937
C3    C     C_1   0.481296 0.733586 0.822366 0.200593
C4    C     C_1   0.220791 0.763170 0.827656 0.212082
C5    C     C_1   0.183098 0.458417 0.823922 0.214010
C6    C     C_1   0.607180 0.537154 0.196547 0.165769
C7    C     C_1   0.417431 0.114608 0.214113 0.153106
C8    C     C_1   0.845966 0.236397 0.224779 0.177198
C9    C     C_1   0.107914 0.886338 0.851864 -0.054795
C10   C     C_1   0.113668 0.228935 0.852123 -0.054413
C11   C     C_1   0.628116 0.812858 0.658909 -0.070732
C12   C     C_1   0.176998 0.818519 0.656642 -0.071069
C13   C     C_1   0.177985 0.359014 0.656310 -0.071170
C14   C     C_1   0.600762 0.795443 0.616616 -0.013368
C15   C     C_1   0.199051 0.805480 0.615452 -0.013327
C16   C     C_1   0.192277 0.393376 0.615123 -0.012990
C17   C     C_R   0.065994 0.153278 0.096409 0.530177
C18   C     C_R   0.212271 0.446393 0.568719 0.545650
C19   C     C_R   0.778966 0.884551 0.088926 0.541045
C20   C     C_R   0.086230 0.933721 0.096140 0.530368
C21   C     C_R   0.068939 0.159700 0.943311 0.533685
C22   C     C_R   0.780304 0.887261 0.950694 0.554219
C23   C     C_R   0.089472 0.931517 0.943760 0.535008
C24   C     C_R   0.524795 0.842431 0.348679 -0.131451
C25   C     C_R   0.087748 0.749554 0.367384 -0.132335
C26   C     C_R   0.265020 0.360804 0.363925 -0.137901
C27   C     C_R   0.550271 0.858154 0.298671 0.013584
C28   C     C_R   0.062928 0.773891 0.320779 0.016825
C29   C     C_R   0.552672 0.765140 0.568938 0.552033
C30   C     C_R   0.243842 0.316079 0.316817 0.017553
C31   C     C_R   0.626782 0.900012 0.201269 0.015441
C32   C     C_R   0.024336 0.813708 0.223690 0.017525
C33   C     C_R   0.206989 0.246109 0.218920 0.016178
C34   C     C_R   0.232715 0.788467 0.431794 0.538794
C35   C     C_R   0.211354 0.443952 0.431886 0.542678
C36   C     C_R   0.498681 0.735720 0.425919 0.564264
C37   C     C_R   0.602442 0.973050 0.226106 -0.116790
C38   C     C_R   0.939907 0.726593 0.250506 -0.118098
C39   C     C_R   0.310268 0.279281 0.240957 -0.121124
C40   C     C_3   0.694065 0.750400 0.787541 -0.224751
C41   C     C_R   0.565864 0.953136 0.274700 -0.124688
C42   C     C_R   0.959592 0.705933 0.298551 -0.123133
C43   C     C_R   0.327991 0.312058 0.289846 -0.130590
C44   C     C_R   0.680148 0.927635 0.155462 -0.135502
C45   C     C_R   0.008631 0.830383 0.174441 -0.131606
C46   C     C_R   0.189725 0.214915 0.169756 -0.128992
C47   C     C_R   0.706329 0.854362 0.132165 -0.011123
C48   C     C_R   0.096535 0.914234 0.147853 -0.014793
C49   C     C_R   0.087025 0.184570 0.147845 -0.015249
C50   C     C_R   0.519559 0.666830 0.345453 -0.126768
C51   C     C_3   0.233719 0.962430 0.780928 -0.226138
C52   C     C_R   0.269145 0.915101 0.363820 -0.128010
C53   C     C_R   0.076716 0.331714 0.368421 -0.124160
C54   C     C_R   0.545482 0.681659 0.295800 0.000105
C55   C     C_R   0.248836 0.936067 0.316869 -0.003557
C56   C     C_R   0.055374 0.289846 0.321212 -0.003840
C57   C     C_R   0.564298 0.779048 0.272528 0.060453
C58   C     C_R   0.145839 0.865324 0.294815 0.060471
C59   C     C_R   0.139331 0.282780 0.294947 0.060476
C60   C     C_R   0.557468 0.602364 0.269754 -0.129625
C61   C     C_R   0.334437 0.022046 0.290647 -0.133723
C62   C     C_3   0.021971 0.244934 0.777388 -0.230497
C63   C     C_R   0.955256 0.265596 0.298480 -0.131150
C64   C     C_R   0.593846 0.621155 0.221249 -0.016666
C65   C     C_R   0.320643 0.036088 0.241450 -0.010997
C66   C     C_R   0.938095 0.235773 0.249279 -0.008224
C67   C     C_R   0.620209 0.721934 0.198558 -0.002541
C68   C     C_R   0.216029 0.969039 0.219337 0.003986
C69   C     C_R   0.018717 0.221903 0.223346 0.003600
C70   C     C_3   0.544577 0.814186 0.738911 -0.212008
C71   C     C_3   0.155807 0.741964 0.740561 -0.211286
C72   C     C_3   0.237028 0.426261 0.740800 -0.211104
C73   C     C_3   0.674776 0.737912 0.731499 -0.221922
C74   C     C_R   0.602214 0.799602 0.223832 0.052531
C75   C     C_R   0.128051 0.883662 0.246137 0.052286
C76   C     C_R   0.120773 0.247978 0.246018 0.051131
C77   C     C_R   0.669722 0.749699 0.152371 -0.125734
C78   C     C_R   0.198266 0.983537 0.170730 -0.123325
C79   C     C_R   0.001970 0.186904 0.174740 -0.122183
C80   C     C_R   0.515016 0.749283 0.372683 -0.004107
C81   C     C_R   0.192785 0.818553 0.388111 0.001183
C82   C     C_R   0.183140 0.373358 0.388768 0.000679
C83   C     C_3   0.749621 0.941367 0.723445 -0.223222
C84   C     C_3   0.251813 0.945988 0.726419 -0.221471
C85   C     C_3   0.044871 0.832005 0.714054 -0.220789
C86   C     C_3   0.193598 0.235571 0.716622 -0.222327
C87   C     C_3   0.773112 0.953104 0.779210 -0.234370
C88   C     C_3   0.026650 0.852548 0.768166 -0.232746
C89   C     C_3   0.175028 0.199920 0.771024 -0.235569
C90   C     C_1   0.736749 0.873680 0.902279 0.005387
C91   C     C_1   0.098952 0.906501 0.893877 -0.002593
C92   C     C_1   0.095150 0.197725 0.893902 -0.004133
C93   C     C_3   0.649437 0.826729 0.711829 0.047083
C94   C     C_3   0.157234 0.833931 0.708121 0.045109
C95   C     C_3   0.039305 0.280989 0.723054 -0.220681
C96   C     C_3   0.162336 0.325821 0.707888 0.046269
C97   C     C_3   0.565436 0.830868 0.795486 0.008177
C98   C     C_3   0.131837 0.756214 0.795540 0.005736
C99   C     C_3   0.221266 0.392479 0.796252 0.009956
C100  C     C_3   0.684783 0.849809 0.807110 0.044223
C101  C     C_3   0.123922 0.863787 0.800636 0.042409
C102  C     C_3   0.133513 0.266887 0.800806 0.043105
C103  C     C_1   0.553373 0.924937 0.811976 0.194117
C104  C     C_1   0.027516 0.658575 0.811821 0.202506
C105  C     C_1   0.329389 0.416018 0.817357 0.208168
Cr1   Cr    Cr6+3 0.164410 0.584450 0.499910 1.016922
Cr2   Cr    Cr6+3 0.415550 0.579960 0.499910 1.013747
Cr3   Cr    Cr6+3 0.420040 0.835590 0.499910 1.016063
Cr4   Cr    Cr6+3 0.155170 0.075460 0.019960 1.054204
Cr5   Cr    Cr6+3 0.924540 0.079710 0.019960 1.035554
Cr6   Cr    Cr6+3 0.920290 0.844830 0.019960 1.048975
H1    H     H_    0.472342 0.731483 0.730688 0.104602
H2    H     H_    0.516537 0.904374 0.369061 0.130039
H3    H     H_    0.027800 0.675821 0.386450 0.122506
H4    H     H_    0.347189 0.392419 0.379709 0.115579
H5    H     H_    0.552890 0.013431 0.293914 0.111486
H6    H     H_    0.894746 0.635967 0.318017 0.115474
H7    H     H_    0.408628 0.337658 0.306065 0.104925
H8    H     H_    0.686814 0.692020 0.133214 0.153584
H9    H     H_    0.264999 0.049208 0.150112 0.146641
H10   H     H_    0.922966 0.162830 0.157111 0.134854
H11   H     H_    0.542114 0.527255 0.287762 0.105917
H12   H     H_    0.237355 0.744497 0.736731 0.106495
H13   H     H_    0.414450 0.074372 0.307812 0.101511
H14   H     H_    0.893491 0.277044 0.318186 0.113045
H15   H     H_    0.522309 0.874301 0.723434 0.112235
H16   H     H_    0.092128 0.660358 0.726055 0.116249
H17   H     H_    0.325617 0.461161 0.729186 0.111499
H18   H     H_    0.506933 0.592424 0.363284 0.125201
H19   H     H_    0.349937 0.970444 0.379566 0.133378
H20   H     H_    0.012621 0.339967 0.387737 0.134984
H21   H     H_    0.825109 0.953361 0.703426 0.113236
H22   H     H_    0.043733 0.896206 0.690509 0.115055
H23   H     H_    0.216255 0.492409 0.733921 0.107524
H24   H     H_    0.141974 0.163105 0.692999 0.115651
H25   H     H_    0.731767 0.006591 0.710988 0.124705
H26   H     H_    0.975233 0.751131 0.701986 0.122920
H27   H     H_    0.282395 0.266786 0.706588 0.124266
H28   H     H_    0.773356 0.027813 0.793029 0.131417
H29   H     H_    0.946594 0.783347 0.781316 0.124714
H30   H     H_    0.254014 0.211016 0.786730 0.130974
H31   H     H_    0.604132 0.654509 0.723237 0.127140
H32   H     H_    0.333919 0.950221 0.721904 0.127392
H33   H     H_    0.015577 0.345368 0.717667 0.128628
H34   H     H_    0.777597 0.762092 0.796045 0.116234
H35   H     H_    0.750193 0.745520 0.713044 0.120962
H36   H     H_    0.254112 0.013755 0.704294 0.122092
H37   H     H_    0.983567 0.209745 0.699588 0.118858
H38   H     H_    0.632925 0.673103 0.806167 0.157380
H39   H     H_    0.306474 0.973335 0.802647 0.158166
H40   H     H_    0.985490 0.288236 0.797824 0.145901
H41   H     H_    0.613759 0.046501 0.208247 0.169556
H42   H     H_    0.859934 0.672537 0.233836 0.128930
H43   H     H_    0.378302 0.282778 0.219981 0.150785
H44   H     H_    0.857474 0.964250 0.785943 0.102216
H45   H     H_    0.231107 0.039394 0.785137 0.111355
H46   H     H_    0.018984 0.927386 0.770781 0.099808
H47   H     H_    0.112176 0.111457 0.773328 0.104463
H48   H     H_    0.960812 0.156198 0.779498 0.107611
H49   H     H_    0.705828 0.007270 0.139264 0.130142
H50   H     H_    0.929647 0.777524 0.156676 0.129432
H51   H     H_    0.256374 0.215749 0.148468 0.130471
N1    N     N_1   0.543919 0.998561 0.824820 -0.292320
N2    N     N_1   0.945868 0.582207 0.824526 -0.274416
N3    N     N_1   0.413890 0.433951 0.833770 -0.279014
N4    N     N_1   0.417008 0.657713 0.844157 -0.241553
N5    N     N_1   0.289737 0.770246 0.853746 -0.227843
N6    N     N_1   0.152279 0.509015 0.845737 -0.238079
N7    N     N_1   0.617789 0.469821 0.176844 -0.264358
N8    N     N_1   0.495015 0.177154 0.192252 -0.265829
N9    N     N_1   0.773866 0.239718 0.204957 -0.285572
O1    O     O_R   0.137150 0.468200 0.553200 -0.508505
O2    O     O_R   0.140110 0.470540 0.446010 -0.520148
O3    O     O_R   0.529460 0.669570 0.446010 -0.514508
O4    O     O_R   0.330430 0.859890 0.446010 -0.535893
O5    O     O_R   0.176710 0.690910 0.450560 -0.501316
O6    O     O_R   0.309090 0.485800 0.450560 -0.522031
O7    O     O_R   0.514200 0.823290 0.450560 -0.499719
O8    O     O_3   0.333333 0.666667 0.499990 -0.289952
O9    O     O_R   0.176750 0.985260 0.074180 -0.494892
O10   O     O_R   0.014740 0.191490 0.074180 -0.468900
O11   O     O_R   0.808510 0.823250 0.074180 -0.526491
O12   O     O_R   0.531800 0.668950 0.553200 -0.503285
O13   O     O_R   0.146100 0.172630 0.068980 -0.484565
O14   O     O_R   0.827370 0.973470 0.068980 -0.518053
O15   O     O_R   0.026530 0.853900 0.068980 -0.456416
O16   O     O_3   0.000000 1.000000 0.020040 -0.333224
O17   O     O_R   0.148270 0.170520 0.969620 -0.479808
O18   O     O_R   0.829480 0.977750 0.969620 -0.517896
O19   O     O_R   0.022250 0.851730 0.969620 -0.457513
O20   O     O_R   0.331050 0.862850 0.553200 -0.506600
O21   O     O_R   0.179100 0.982980 0.967000 -0.472321
O22   O     O_R   0.017020 0.196120 0.967000 -0.459125
O23   O     O_R   0.803880 0.820900 0.967000 -0.500887
O24   O     O_R   0.173970 0.688730 0.549930 -0.497592
O25   O     O_R   0.311270 0.485240 0.549930 -0.498160
O26   O     O_R   0.514760 0.826030 0.549930 -0.491712

loop_
_geom_bond_atom_site_label_1
_geom_bond_atom_site_label_2
_ccdc_geom_bond_type
C35   O6    A    
C83   C87   S    
Cr5   O14   S    
C8    C66   S    
C4    C98   S    
C89   C102  S    
C32   C45   A    
C36   C80   S    
C95   C96   S    
C67   C77   A    
C24   C27   A    
C73   C93   S    
C71   H16   S    
C28   C58   A    
C9    C91   T    
C32   C75   A    
C88   C101  S    
C89   H47   S    
C20   O9    A    
C71   C94   S    
C54   C60   A    
Cr4   O16   S    
C25   C28   A    
C36   O3    A    
C79   H10   S    
C46   C49   A    
C20   C48   S    
C33   C39   A    
C40   H34   S    
C72   H17   S    
C61   H13   S    
C71   H12   S    
C1    O24   A    
C38   C42   A    
C11   C14   T    
C19   C47   S    
C84   H36   S    
C66   C69   A    
Cr4   O21   S    
C6    C64   S    
C72   C99   S    
C83   C93   S    
Cr3   O4    S    
C40   C73   S    
C69   C76   A    
C5    N6    T    
C48   C78   A    
Cr3   O26   S    
C2    C90   T    
C56   C59   A    
C45   H50   S    
C26   H4    S    
C88   H29   S    
C34   O4    A    
C17   O13   A    
C24   C80   A    
C5    C99   S    
C51   H39   S    
Cr3   O20   S    
C1    C15   S    
C34   C81   S    
C32   C38   A    
C44   C47   A    
C52   C55   A    
C11   C93   S    
C63   C66   A    
C10   C92   T    
C95   H33   S    
C26   C82   A    
C62   C95   S    
Cr2   O6    S    
C25   C81   A    
C33   C46   A    
C12   C94   S    
C19   O11   A    
Cr2   O25   S    
C35   C82   S    
C58   C75   A    
C73   H31   S    
Cr4   O17   S    
C68   C78   A    
C99   C105  S    
C71   C98   S    
Cr5   O16   S    
C7    N8    T    
C31   C44   A    
C13   C96   S    
C18   O25   A    
C35   O2    A    
C64   C67   A    
C10   C102  S    
C70   C93   S    
C36   O7    A    
Cr5   O10   S    
C62   H40   S    
C17   C49   S    
C31   C74   A    
C39   C43   A    
C39   H43   S    
C84   H32   S    
C20   O15   A    
Cr6   O11   S    
C31   C37   A    
Cr3   O8    S    
Cr2   O12   S    
C53   C82   A    
C68   C75   A    
C57   C74   A    
C78   H9    S    
Cr6   O23   S    
C34   O5    A    
C104  N2    T    
C50   H18   S    
C17   O10   A    
C7    C65   S    
C85   C94   S    
C27   C41   A    
C33   C76   A    
C72   H23   S    
C12   C15   T    
C21   C92   S    
C65   C68   A    
C30   C59   A    
Cr5   O22   S    
C22   C90   S    
C56   C63   A    
Cr3   O7    S    
C67   C74   A    
C84   C94   S    
C88   H46   S    
C22   O18   A    
C60   H11   S    
C83   H25   S    
C97   C103  S    
C86   C96   S    
C53   H20   S    
C1    O20   A    
Cr4   O13   S    
C16   C18   S    
C70   C97   S    
C26   C30   A    
C29   O26   A    
C27   C57   A    
C44   H49   S    
C23   C91   S    
C30   C43   A    
C63   H14   S    
C47   C77   A    
C37   H41   S    
C85   H26   S    
Cr1   O8    S    
C97   C100  S    
C49   C79   A    
C41   H5    S    
C85   C88   S    
C21   O17   A    
C87   C100  S    
C45   C48   A    
C23   O21   A    
C51   H45   S    
Cr6   O15   S    
C3    C97   S    
C29   O12   A    
Cr2   O8    S    
Cr1   O1    S    
C95   H37   S    
C51   C84   S    
C87   H28   S    
C77   H8    S    
C86   C89   S    
C50   C80   A    
C40   C100  S    
C8    N9    T    
C42   H6    S    
Cr1   O24   S    
Cr2   O3    S    
C18   O1    A    
C51   C101  S    
C98   C101  S    
C73   H35   S    
Cr5   O18   S    
C103  N1    T    
C4    N5    T    
Cr6   O16   S    
C60   C64   A    
C89   H30   S    
C52   H19   S    
C83   H21   S    
C50   C54   A    
C25   H3    S    
C19   O14   A    
Cr4   O9    S    
C70   H15   S    
C55   C58   A    
C98   C104  S    
C55   C61   A    
C28   C42   A    
Cr1   O2    S    
C105  N3    T    
C40   H38   S    
C87   H44   S    
C37   C41   A    
C52   C81   A    
C70   H1    S    
C53   C56   A    
C69   C79   A    
C86   H27   S    
C43   H7    S    
C2    C100  S    
C72   C96   S    
C61   C65   A    
C86   H24   S    
C24   H2    S    
C99   C102  S    
Cr6   O19   S    
C9    C101  S    
C46   H51   S    
C13   C16   T    
Cr1   O5    S    
C62   H48   S    
C22   O23   A    
C14   C29   S    
C38   H42   S    
C21   O22   A    
C59   C76   A    
C6    N7    T    
C23   O19   A    
C3    N4    T    
C85   H22   S    
C62   C102  S    
C54   C57   A    
