data_mof_unit_49543.cif
_audit_creation_date              2012-12-10T20:58:04-0500
_audit_creation_method            fapswitch 2.2
_symmetry_space_group_name_H-M    P1
_symmetry_Int_Tables_number       1
_space_group_crystal_system       triclinic
_cell_length_a                    18.207127
_cell_length_b                    18.255339
_cell_length_c                    18.346342
_cell_angle_alpha                 119.934382
_cell_angle_beta                  90.01588
_cell_angle_gamma                 120.072926
_cell_volume                      4310.79077123

loop_
_atom_site_label
_atom_site_type_symbol
_atom_type_description
_atom_site_fract_x
_atom_site_fract_y
_atom_site_fract_z
_atom_type_partial_charge
C1    C     C_R   0.357531 0.220055 0.361001 0.500673
C2    C     C_3   0.792654 0.942193 0.683134 0.168271
C3    C     C_3   0.692228 0.724359 0.830096 0.012492
C4    C     C_3   0.657119 0.778384 0.897753 -0.270975
C5    C     C_3   0.558478 0.729848 0.855248 -0.485950
C6    C     C_2   0.186159 0.217011 0.938298 0.199974
C7    C     C_3   0.698901 0.897555 0.696216 0.092631
C8    C     C_R   0.641023 0.780988 0.638605 0.508897
C9    C     C_3   0.799261 0.102335 0.801202 0.033676
C10   C     C_3   0.771276 0.057627 0.857129 -0.257257
C11   C     C_3   0.851651 0.062259 0.746434 -0.182699
C12   C     C_3   0.639049 0.413862 0.201545 -0.231096
C13   C     C_3   0.698330 0.411475 0.142260 -0.209172
C14   C     C_3   0.752938 0.606121 0.314544 -0.183303
C15   C     C_3   0.764446 0.479753 0.325477 -0.252976
C16   C     C_3   0.273070 0.574096 0.360179 -0.229895
C17   C     C_3   0.698024 0.499965 0.301497 0.033550
C18   C     C_3   0.799149 0.500059 0.199843 0.093204
C19   C     C_3   0.811013 0.606063 0.252548 0.158019
C20   C     C_R   0.360171 0.501342 0.641565 0.495148
C21   C     C_3   0.825539 0.482465 0.267214 -0.282909
C22   C     C_R   0.283642 0.131437 0.578963 -0.114790
C23   C     C_R   0.288685 0.090598 0.492847 -0.085880
C24   C     C_R   0.249729 0.098452 0.433351 0.062218
C25   C     C_R   0.204979 0.146781 0.460796 -0.062561
C26   C     C_R   0.199631 0.186986 0.546862 -0.105502
C27   C     C_3   0.299518 0.499945 0.302162 0.066620
C28   C     C_R   0.238965 0.179315 0.605853 -0.113267
C29   C     C_R   0.201451 0.943663 0.285423 -0.160945
C30   C     C_R   0.195418 0.892323 0.195826 0.017773
C31   C     C_R   0.240407 0.949261 0.160221 -0.035363
C32   C     C_R   0.640701 0.500046 0.359296 0.497954
C33   C     C_R   0.291446 0.056275 0.215837 -0.156328
C34   C     C_R   0.298499 0.107729 0.305782 0.017483
C35   C     C_R   0.251501 0.050777 0.340860 -0.033845
C36   C     C_R   0.291772 0.865561 0.037971 -0.069048
C37   C     C_R   0.290306 0.822210 0.949565 -0.104427
C38   C     C_3   0.197267 0.499845 0.200804 0.065417
C39   C     C_R   0.234687 0.813894 0.889088 -0.110397
C40   C     C_R   0.180473 0.848991 0.916957 -0.111138
C41   C     C_R   0.182205 0.893059 0.005465 -0.071984
C42   C     C_R   0.237712 0.901261 0.066344 0.062078
C43   C     C_R   0.930431 0.781513 0.698739 -0.119161
C44   C     C_R   0.641794 0.501004 0.640989 0.493680
C45   C     C_R   0.883677 0.691835 0.697276 0.273180
C46   C     C_R   0.832672 0.685884 0.754504 0.069631
C47   C     C_R   0.830113 0.771245 0.813860 0.244313
C48   C     C_R   0.880374 0.861834 0.816903 -0.100084
C49   C     C_3   0.151569 0.389451 0.178019 -0.233027
C50   C     C_R   0.929627 0.866564 0.759139 -0.189297
C51   C     C_R   0.836218 0.589196 0.809231 -0.137331
C52   C     C_R   0.798252 0.501492 0.809911 0.011140
C53   C     C_R   0.707130 0.416955 0.759371 -0.041445
C54   C     C_R   0.658419 0.419441 0.704263 -0.160082
C55   C     C_R   0.697554 0.504975 0.700372 0.029172
C56   C     C_R   0.357793 0.499925 0.359402 0.497459
C57   C     C_R   0.786817 0.592260 0.754904 0.032558
C58   C     C_R   0.641448 0.230290 0.690126 -0.094153
C59   C     C_R   0.591384 0.141588 0.689509 -0.125508
C60   C     C_3   0.213618 0.574378 0.301025 -0.230680
C61   C     C_R   0.559126 0.146623 0.759862 -0.111248
C62   C     C_R   0.576608 0.240322 0.830840 -0.100673
C63   C     C_R   0.625813 0.328940 0.831255 -0.049883
C64   C     C_R   0.659280 0.324587 0.761254 0.064150
C65   C     C_R   0.400294 0.810308 0.730858 -0.106337
C66   C     C_R   0.376697 0.741059 0.754008 -0.076553
C67   C     C_R   0.297205 0.640278 0.700397 0.060715
C68   C     C_3   0.350038 0.536151 0.246199 -0.236142
C69   C     C_R   0.241366 0.609729 0.623799 -0.084682
C70   C     C_R   0.264742 0.679576 0.601363 -0.112653
C71   C     C_3   0.652901 0.939962 0.674299 -0.213295
C72   C     C_R   0.344320 0.779608 0.654607 -0.100529
C73   C     C_R   0.218147 0.562171 0.776319 -0.170538
C74   C     C_R   0.197032 0.500127 0.807096 0.017646
C75   C     C_R   0.233562 0.442137 0.786443 -0.031455
C76   C     C_R   0.287346 0.445288 0.733101 -0.169039
C77   C     C_R   0.306076 0.504945 0.700137 0.014818
C78   C     C_R   0.273271 0.566851 0.724448 -0.034500
C79   C     C_R   0.289443 0.425520 0.897513 -0.103990
C80   C     C_3   0.289847 0.536047 0.186589 -0.236292
C81   C     C_R   0.277934 0.370723 0.934023 -0.149890
C82   C     C_3   0.712769 0.059764 0.734439 -0.237125
C83   C     C_R   0.198351 0.271948 0.896574 0.052908
C84   C     C_R   0.131352 0.227427 0.820308 -0.070104
C85   C     C_R   0.143274 0.281723 0.783080 -0.097520
C86   C     C_R   0.221771 0.381900 0.822603 0.052194
C87   C     C_R   0.856926 0.499286 0.142677 0.508093
C88   C     C_R   0.139115 0.500116 0.862079 0.502290
C89   C     C_R   0.856746 0.218948 0.861388 0.492974
C90   C     C_R   0.139220 0.779987 0.141153 0.492694
C91   C     C_R   0.855685 0.500181 0.862566 0.499550
C92   C     C_3   0.211777 0.389463 0.237548 -0.232858
C93   C     C_3   0.713197 0.937696 0.795681 -0.287874
C94   C     C_R   0.139476 0.499771 0.142983 0.497948
C95   C     C_3   0.827291 0.865952 0.553326 0.009208
C96   C     C_3   0.927967 0.949377 0.582854 -0.285646
C97   C     C_3   0.975579 0.902436 0.530642 -0.482427
C98   C     C_3   0.855440 0.694921 0.184713 -0.001829
C99   C     C_3   0.824351 0.678066 0.096941 -0.255279
C100  C     C_3   0.902099 0.750733 0.081684 -0.472229
C101  C     C_3   0.965033 0.624735 0.673875 0.000850
C102  C     C_3   0.948763 0.519786 0.634793 -0.250838
C103  C     C_3   0.028087 0.532268 0.680559 -0.486844
H1    H     H_    0.369407 0.483959 0.203389 0.123804
H2    H     H_    0.732438 0.083765 0.896205 0.123013
H3    H     H_    0.826640 0.915288 0.703177 0.104156
H4    H     H_    0.413151 0.615531 0.291227 0.109604
H5    H     H_    0.875043 0.095935 0.707655 0.142860
H6    H     H_    0.912902 0.089000 0.792520 0.102121
H7    H     H_    0.746655 0.909666 0.814094 0.103807
H8    H     H_    0.832254 0.087001 0.905649 0.122686
H9    H     H_    0.592326 0.428144 0.181749 0.139890
H10   H     H_    0.597306 0.336787 0.190384 0.126008
H11   H     H_    0.688264 0.335047 0.105990 0.106192
H12   H     H_    0.148230 0.550366 0.313541 0.123128
H13   H     H_    0.676647 0.419050 0.091108 0.168444
H14   H     H_    0.706521 0.624107 0.301235 0.142485
H15   H     H_    0.324004 0.615304 0.202711 0.108121
H16   H     H_    0.807056 0.539404 0.397112 0.151252
H17   H     H_    0.726375 0.402938 0.314909 0.122328
H18   H     H_    0.819394 0.408249 0.230867 0.112675
H19   H     H_    0.896976 0.545680 0.311037 0.126582
H20   H     H_    0.797753 0.668303 0.385222 0.073653
H21   H     H_    0.882792 0.669481 0.296822 0.087199
H22   H     H_    0.234838 0.210300 0.672375 0.113939
H23   H     H_    0.174204 0.361832 0.276257 0.107234
H24   H     H_    0.313942 0.125466 0.624698 0.108240
H25   H     H_    0.322763 0.052778 0.472409 0.101144
H26   H     H_    0.280294 0.483696 0.115489 0.128468
H27   H     H_    0.173710 0.152376 0.415341 0.088664
H28   H     H_    0.164776 0.223792 0.567743 0.102055
H29   H     H_    0.164959 0.900142 0.312281 0.135419
H30   H     H_    0.327381 0.099505 0.188589 0.142146
H31   H     H_    0.335074 0.871706 0.084319 0.091244
H32   H     H_    0.332289 0.795061 0.927998 0.098844
H33   H     H_    0.233562 0.780280 0.820661 0.110245
H34   H     H_    0.085021 0.362064 0.188166 0.106682
H35   H     H_    0.137441 0.842499 0.870109 0.100067
H36   H     H_    0.140227 0.920425 0.026548 0.108489
H37   H     H_    0.967292 0.936348 0.761208 0.152993
H38   H     H_    0.228228 0.334236 0.194410 0.137163
H39   H     H_    0.968405 0.785605 0.653843 0.115753
H40   H     H_    0.881025 0.928709 0.864135 0.135158
H41   H     H_    0.905129 0.655568 0.850695 0.124093
H42   H     H_    0.589198 0.353257 0.663641 0.145293
H43   H     H_    0.665687 0.225462 0.635073 0.097432
H44   H     H_    0.577570 0.068892 0.634498 0.096191
H45   H     H_    0.586639 0.911470 0.685091 0.118089
H46   H     H_    0.520625 0.077902 0.759346 0.093134
H47   H     H_    0.551521 0.244129 0.885218 0.094953
H48   H     H_    0.139282 0.334081 0.106634 0.148227
H49   H     H_    0.637999 0.400888 0.885947 0.099575
H50   H     H_    0.362547 0.833361 0.636859 0.094658
H51   H     H_    0.461878 0.887764 0.772061 0.088811
H52   H     H_    0.420343 0.765626 0.813305 0.086676
H53   H     H_    0.180084 0.532065 0.581644 0.093277
H54   H     H_    0.221222 0.656188 0.542691 0.089750
H55   H     H_    0.192586 0.608786 0.793670 0.140859
H56   H     H_    0.639523 0.911486 0.602937 0.155541
H57   H     H_    0.315503 0.401333 0.718133 0.145702
H58   H     H_    0.350714 0.502393 0.928109 0.103062
H59   H     H_    0.330909 0.405887 0.992072 0.078428
H60   H     H_    0.235752 0.548901 0.400250 0.123801
H61   H     H_    0.069728 0.151155 0.790005 0.121614
H62   H     H_    0.090814 0.246730 0.724668 0.092268
H63   H     H_    0.334501 0.654377 0.407613 0.130261
H64   H     H_    0.247117 0.654695 0.319815 0.129880
H65   H     H_    0.798147 0.822703 0.480045 0.150377
H66   H     H_    0.816609 0.808126 0.565816 0.158441
H67   H     H_    0.731063 0.089507 0.692373 0.124073
H68   H     H_    0.936863 0.007876 0.572364 0.169343
H69   H     H_    0.959639 0.988912 0.654856 0.136550
H70   H     H_    0.967904 0.844070 0.540642 0.142133
H71   H     H_    0.048439 0.964493 0.554452 0.158378
H72   H     H_    0.947127 0.864858 0.458323 0.139191
H73   H     H_    0.913124 0.688574 0.184769 0.142324
H74   H     H_    0.878695 0.774034 0.241619 0.128091
H75   H     H_    0.795407 0.596628 0.040615 0.179885
H76   H     H_    0.771023 0.691411 0.097829 0.168756
H77   H     H_    0.932604 0.832806 0.137239 0.145288
H78   H     H_    0.673713 0.087003 0.771641 0.142319
H79   H     H_    0.876724 0.737545 0.018275 0.168763
H80   H     H_    0.954429 0.735506 0.076857 0.156022
H81   H     H_    0.986936 0.668212 0.748134 0.119246
H82   H     H_    0.020228 0.669408 0.655645 0.129099
H83   H     H_    0.887117 0.470292 0.643832 0.182007
H84   H     H_    0.938358 0.480580 0.562172 0.160828
H85   H     H_    0.091214 0.585879 0.676514 0.137806
H86   H     H_    0.017317 0.455880 0.647494 0.143092
H87   H     H_    0.034735 0.563881 0.751824 0.187119
H88   H     H_    0.651042 0.641591 0.805361 0.145891
H89   H     H_    0.646996 0.906443 0.806350 0.121435
H90   H     H_    0.682570 0.729080 0.772747 0.129550
H91   H     H_    0.663646 0.772220 0.954371 0.174984
H92   H     H_    0.698068 0.861808 0.924182 0.160741
H93   H     H_    0.550403 0.735959 0.798892 0.150770
H94   H     H_    0.535017 0.771036 0.905718 0.136169
H95   H     H_    0.515955 0.646893 0.830223 0.152645
H96   H     H_    0.238687 0.253131 0.997398 0.093782
O1    O     O_3   0.500000 0.500000 0.500000 -0.434462
O2    O     O_R   0.113800 0.731630 0.056520 -0.535530
O3    O     O_R   0.819390 0.439310 0.886160 -0.538674
O4    O     O_R   0.383400 0.268380 0.323710 -0.554327
O5    O     O_R   0.115110 0.560720 0.179280 -0.552081
O6    O     O_R   0.941380 0.560750 0.885620 -0.559488
O7    O     O_R   0.115110 0.439270 0.057830 -0.541104
O8    O     O_R   0.942690 0.268390 0.886930 -0.548537
O9    O     O_R   0.114340 0.731630 0.178520 -0.559473
O10   O     O_R   0.820160 0.439310 0.057830 -0.547821
O11   O     O_R   0.113800 0.560730 0.885620 -0.553281
O12   O     O_R   0.383400 0.560740 0.616060 -0.532785
O13   O     O_R   0.555060 0.731630 0.615290 -0.552788
O14   O     O_R   0.383950 0.439280 0.616600 -0.549780
O15   O     O_R   0.677590 0.560710 0.444390 -0.546739
O16   O     O_R   0.556370 0.439260 0.616600 -0.558416
O17   O     O_R   0.382640 0.439290 0.322940 -0.550916
O18   O     O_R   0.678360 0.560700 0.616060 -0.535197
O19   O     O_R   0.382640 0.560750 0.444390 -0.545646
O20   O     O_3   0.780914 0.910533 0.593189 -0.585832
O21   O     O_3   0.782051 0.620652 0.191862 -0.586562
O22   O     O_3   0.885207 0.608053 0.637842 -0.566988
O23   O     O_R   0.555060 0.439270 0.322940 -0.550827
O24   O     O_3   0.782875 0.769597 0.872686 -0.584507
O25   O     O_2   0.117400 0.131292 0.907734 -0.544444
O26   O     O_R   0.383950 0.268380 0.445700 -0.529252
O27   O     O_R   0.677590 0.731610 0.615290 -0.561380
O28   O     O_3   0.997750 0.500010 0.002220 -0.431368
O29   O     O_R   0.942690 0.560750 0.179280 -0.570456
O30   O     O_R   0.114340 0.439270 0.886160 -0.532491
O31   O     O_R   0.820160 0.268410 0.886930 -0.541513
Zn1   Zn    Zn3+2 0.456040 0.586770 0.543190 0.920560
Zn2   Zn    Zn3+2 0.456820 0.413240 0.543960 0.925330
Zn3   Zn    Zn3+2 0.631110 0.586750 0.543190 0.922631
Zn4   Zn    Zn3+2 0.456040 0.413240 0.369660 0.916084
Zn5   Zn    Zn3+2 0.041710 0.413240 0.959030 0.930524
Zn6   Zn    Zn3+2 0.866640 0.413270 0.959030 0.920812
Zn7   Zn    Zn3+2 0.040930 0.586780 0.958260 0.914350
Zn8   Zn    Zn3+2 0.041710 0.586770 0.132560 0.899243

loop_
_geom_bond_atom_site_label_1
_geom_bond_atom_site_label_2
_ccdc_geom_bond_type
C68   C80   S    
C4    H92   S    
C24   C25   A    
C82   H67   S    
C101  C102  S    
C97   H72   S    
C31   C42   S    
C49   H34   S    
C11   H6    S    
C18   C21   S    
O17   Zn4   S    
C41   C42   A    
C102  C103  S    
C36   C42   A    
C2    C7    S    
C94   O7    A    
C13   H13   S    
C30   C90   S    
C95   H65   S    
C56   O19   A    
O8    Zn5   S    
C7    C8    S    
C38   C49   S    
C77   C78   A    
C52   C53   A    
C4    H91   S    
O28   Zn6   S    
C82   H78   S    
C102  H83   S    
O27   Zn3   S    
O12   Zn1   S    
C20   C77   S    
C36   C37   A    
O1    Zn4   S    
C34   C35   A    
C98   O21   S    
C7    C71   S    
C6    H96   S    
C53   C64   S    
C50   H37   S    
C29   H29   S    
C2    C11   S    
C101  O22   S    
C44   O16   A    
C18   C87   S    
C15   H17   S    
C18   C19   S    
C16   C60   S    
C20   O12   A    
C21   H19   S    
C100  H80   S    
C3    O24   S    
C27   C68   S    
C65   H51   S    
C91   O6    A    
C46   C47   A    
O16   Zn2   S    
C81   H59   S    
C76   H57   S    
C66   H52   S    
C47   C48   A    
C16   H63   S    
C96   H68   S    
C40   H35   S    
C12   C17   S    
C103  H85   S    
C95   O20   S    
C73   C78   A    
C31   C33   A    
O31   Zn6   S    
C103  H86   S    
C68   H4    S    
C89   O31   A    
C100  H79   S    
C9    C10   S    
C13   H11   S    
C84   H61   S    
C93   H7    S    
C71   C82   S    
C32   O15   A    
C11   H5    S    
C16   C27   S    
C48   C50   A    
C71   H45   S    
C1    O4    A    
C88   O11   A    
C14   H20   S    
C56   O17   A    
C87   O10   A    
C14   C17   S    
C69   C70   A    
C67   C78   S    
C79   H58   S    
C101  H82   S    
C25   H27   S    
C81   C83   A    
O1    Zn3   S    
C1    C34   S    
C6    O25   D    
C39   H33   S    
C16   H60   S    
C58   C64   A    
C7    C93   S    
C80   H15   S    
C19   H21   S    
C59   C61   A    
C69   H53   S    
C97   H70   S    
C74   C75   A    
C49   H48   S    
C51   C52   A    
C24   C35   S    
O11   Zn7   S    
C27   C92   S    
C66   C67   A    
C84   C85   A    
O4    Zn4   S    
O5    Zn8   S    
O18   Zn3   S    
C39   C40   A    
C79   C81   A    
O13   Zn1   S    
C8    O27   A    
C27   C56   S    
C5    H94   S    
C10   C93   S    
C25   C26   A    
C53   C54   A    
O28   Zn8   S    
C73   H55   S    
C2    H3    S    
C6    C83   S    
C48   H40   S    
C92   H23   S    
O7    Zn5   S    
C67   C69   A    
O30   Zn5   S    
C75   C76   A    
C95   H66   S    
C65   C72   A    
C99   H76   S    
C29   C30   A    
C3    H88   S    
C98   H73   S    
C75   C86   S    
C83   C84   A    
C30   C31   A    
C23   C24   A    
C14   H14   S    
C60   H12   S    
C96   C97   S    
C38   C94   S    
C62   C63   A    
C37   H32   S    
C33   C34   A    
C10   H8    S    
C103  H87   S    
C3    H90   S    
C72   H50   S    
C98   H74   S    
O6    Zn7   S    
C92   H38   S    
C9    C11   S    
C85   C86   A    
O14   Zn2   S    
C99   H75   S    
C5    H93   S    
C38   C60   S    
C13   C18   S    
C40   C41   A    
O1    Zn1   S    
C65   C66   A    
C54   H42   S    
C46   C57   S    
C2    O20   S    
C90   O9    A    
O15   Zn3   S    
C94   O5    A    
C49   C92   S    
O9    Zn8   S    
C3    C4    S    
C100  H77   S    
C73   C74   A    
C12   H9    S    
O28   Zn5   S    
C28   H22   S    
C12   H10   S    
C93   H89   S    
C1    O26   A    
C15   C17   S    
C47   O24   S    
C54   C55   A    
O23   Zn4   S    
C101  H81   S    
C97   H71   S    
C62   H47   S    
C70   C72   A    
C14   C19   S    
C33   H30   S    
C44   O18   A    
C68   H1    S    
C4    C5    S    
C43   H39   S    
C36   H31   S    
C60   H64   S    
C32   O23   A    
C58   H43   S    
C43   C50   A    
O2    Zn7   S    
C5    H95   S    
C19   O21   S    
C9    C89   S    
O26   Zn2   S    
C71   H56   S    
C29   C35   A    
C26   C28   A    
C102  H84   S    
C99   C100  S    
C70   H54   S    
C45   O22   S    
C9    C82   S    
C90   O2    A    
C55   C57   A    
O29   Zn8   S    
C58   C59   A    
O10   Zn6   S    
C85   H62   S    
C43   C45   A    
C20   O14   A    
C76   C77   A    
C44   C55   S    
C22   H24   S    
C89   O8    A    
C38   C80   S    
C98   C99   S    
C15   H16   S    
C88   O30   A    
C21   H18   S    
C61   C62   A    
C80   H26   S    
C63   H49   S    
C41   H36   S    
C91   O3    A    
O3    Zn6   S    
C63   C64   A    
C45   C46   A    
C51   C57   A    
C15   C21   S    
C12   C13   S    
C37   C39   A    
C87   O29   A    
C96   H69   S    
C95   C96   S    
C17   C32   S    
C51   H41   S    
C22   C23   A    
C10   H2    S    
C22   C28   A    
O19   Zn1   S    
O1    Zn2   S    
C52   C91   S    
C74   C88   S    
C8    O13   A    
C61   H46   S    
C79   C86   A    
C26   H28   S    
C59   H44   S    
C23   H25   S    
O28   Zn7   S    
