data_mof_unit_67525.cif
_audit_creation_date              2012-12-10T16:47:28-0500
_audit_creation_method            fapswitch 2.2
_symmetry_space_group_name_H-M    P1
_symmetry_Int_Tables_number       1
_space_group_crystal_system       triclinic
_cell_length_a                    10.691033
_cell_length_b                    8.711187
_cell_length_c                    7.510955
_cell_angle_alpha                 102.736763
_cell_angle_beta                  96.543247
_cell_angle_gamma                 93.664884
_cell_volume                      674.982392313

loop_
_atom_site_label
_atom_site_type_symbol
_atom_type_description
_atom_site_fract_x
_atom_site_fract_y
_atom_site_fract_z
_atom_type_partial_charge
C1    C     C_R   0.495993 0.199811 0.453351 0.912495
C2    C     C_R   0.509723 0.800306 0.546656 0.842121
C3    C     C_R   0.259039 0.495368 0.497544 0.809510
C4    C     C_R   0.740513 0.508327 0.503076 0.884835
C5    C     C_3   0.049601 0.434074 0.634875 -0.522798
C6    C     C_3   0.947973 0.574635 0.368989 -0.441008
C7    C     C_3   0.943644 0.359620 0.475005 0.409796
C8    C     C_3   0.053271 0.651200 0.528747 0.401208
C9    C     C_3   0.877081 0.512005 0.508609 -0.201973
C10   C     C_3   0.122076 0.498669 0.493743 -0.242721
C11   C     C_3   0.981524 0.588060 0.666268 0.450281
C12   C     C_3   0.015095 0.420880 0.336394 0.454054
C13   C     C_2   0.493205 0.031808 0.427223 -0.350775
C14   C     C_2   0.513791 0.968432 0.572264 -0.407594
Cu1   Cu    Cu3+1 0.514140 0.517380 0.684380 0.948527
Cu2   Cu    Cu3+1 0.485860 0.482620 0.315620 0.954828
H1    H     H_    0.094929 0.378130 0.741885 0.170347
H2    H     H_    0.902427 0.631932 0.263666 0.177076
H3    H     H_    0.474225 0.959830 0.287357 0.179558
H4    H     H_    0.534456 0.040548 0.711867 0.182229
N1    N     N_2   0.464560 0.456420 0.038510 -0.223701
N2    N     N_2   0.535440 0.543580 0.961490 -0.222956
O1    O     O_R   0.509190 0.286130 0.619780 -0.586360
O2    O     O_R   0.490810 0.713870 0.380220 -0.588377
O3    O     O_R   0.485310 0.256770 0.308360 -0.581032
O4    O     O_R   0.514690 0.743230 0.691640 -0.589511
O5    O     O_R   0.328790 0.514640 0.655680 -0.609377
O6    O     O_R   0.671210 0.485360 0.344320 -0.598713
O7    O     O_R   0.304910 0.485280 0.344260 -0.561051
O8    O     O_R   0.695090 0.514720 0.655740 -0.562530
O9    O     O_3   0.867221 0.215490 0.435458 -0.601921
C15   C     C_3   0.929698 0.101387 0.507121 0.096524
H5    H     H_    0.965064 0.145646 0.655034 0.154539
H6    H     H_    0.009784 0.065798 0.430255 0.194479
C16   C     C_3   0.834567 0.960135 0.489728 -0.751337
H7    H     H_    0.807034 0.898680 0.343080 0.223222
H8    H     H_    0.872028 0.876799 0.569355 0.256544
H9    H     H_    0.750154 0.002646 0.549217 0.245821
O10   O     O_3   0.089096 0.813985 0.552868 -0.608049
C17   C     C_3   0.214501 0.855361 0.634013 0.089978
H10   H     H_    0.275185 0.825398 0.524661 0.155488
H11   H     H_    0.241637 0.795186 0.745981 0.156440
C18   C     C_3   0.233033 0.032931 0.715211 -0.812282
H12   H     H_    0.160457 0.069019 0.806532 0.246936
H13   H     H_    0.327174 0.065484 0.798803 0.213313
H14   H     H_    0.225943 0.098138 0.603496 0.230244
O11   O     O_3   0.962417 0.683889 0.837086 -0.578401
C19   C     C_3   0.065265 0.679969 0.972319 0.066879
H15   H     H_    0.156308 0.657821 0.917574 0.145518
H16   H     H_    0.043367 0.584392 0.041873 0.183712
C20   C     C_3   0.086825 0.835755 0.113975 -0.767426
H17   H     H_    0.161732 0.827946 0.225609 0.228714
H18   H     H_    0.118531 0.931883 0.049834 0.246603
H19   H     H_    0.998090 0.862299 0.172360 0.255781
O12   O     O_3   0.031329 0.325115 0.163784 -0.596342
C21   C     C_3   0.914011 0.289527 0.046489 0.064079
H20   H     H_    0.923118 0.335058 0.921606 0.157453
H21   H     H_    0.831950 0.343280 0.106461 0.176246
C22   C     C_3   0.880108 0.111711 0.987583 -0.743339
H22   H     H_    0.864997 0.062421 0.107878 0.275361
H23   H     H_    0.791233 0.085990 0.889944 0.204165
H24   H     H_    0.956285 0.052864 0.919033 0.253051
H25   H     H_    0.398490 0.377263 0.947815 0.226732
H26   H     H_    0.601452 0.622834 0.052195 0.224892

loop_
_geom_bond_atom_site_label_1
_geom_bond_atom_site_label_2
_ccdc_geom_bond_type
Cu2   O6    S    
O12   C21   S    
C8    C10   S    
C1    O1    A    
Cu2   N1    S    
Cu2   O3    S    
C8    O10   S    
C14   H4    S    
C18   H13   S    
Cu1   O5    S    
O11   C19   S    
C21   C22   S    
C18   H12   S    
C20   H19   S    
Cu1   O4    S    
C15   H5    S    
C6    C9    S    
C19   H16   S    
Cu2   O7    S    
C5    C10   S    
C2    O4    A    
C3    C10   S    
C13   C14   D    
C1    O3    A    
C9    C11   S    
C10   C12   S    
C8    C11   S    
C2    C14   S    
C6    C12   S    
C3    O5    A    
C19   H15   S    
C4    O6    A    
C7    O9    S    
C21   H21   S    
C5    C11   S    
C5    C7    S    
C19   C20   S    
C2    O2    A    
C7    C12   S    
C6    H2    S    
C18   H14   S    
N1    H25   S    
C12   O12   S    
C5    H1    S    
Cu1   Cu2   S    
Cu1   O1    S    
N2    H26   S    
C20   H17   S    
C15   C16   S    
C7    C9    S    
C22   H22   S    
C16   H9    S    
C1    C13   S    
C21   H20   S    
Cu1   O8    S    
Cu2   O2    S    
Cu1   N2    S    
C22   H23   S    
O10   C17   S    
C3    O7    A    
C13   H3    S    
C17   H10   S    
C22   H24   S    
C6    C8    S    
C16   H8    S    
C4    C9    S    
N1    N2    D    
C11   O11   S    
C17   C18   S    
C4    O8    A    
O9    C15   S    
C17   H11   S    
C20   H18   S    
C16   H7    S    
C15   H6    S    
