data_mof_unit_53346.cif
_audit_creation_date              2012-12-10T18:58:47-0500
_audit_creation_method            fapswitch 2.2
_symmetry_space_group_name_H-M    P1
_symmetry_Int_Tables_number       1
_space_group_crystal_system       triclinic
_cell_length_a                    12.948303
_cell_length_b                    10.83948
_cell_length_c                    9.613111
_cell_angle_alpha                 88.749796
_cell_angle_beta                  95.715706
_cell_angle_gamma                 91.824369
_cell_volume                      1341.60337265

loop_
_atom_site_label
_atom_site_type_symbol
_atom_type_description
_atom_site_fract_x
_atom_site_fract_y
_atom_site_fract_z
_atom_type_partial_charge
C1    C     C_R   0.502377 0.262315 0.501180 0.826342
C2    C     C_R   0.025818 0.558253 0.544908 0.147736
C3    C     C_R   0.973593 0.473033 0.449950 0.131289
C4    C     C_R   0.866672 0.453655 0.446682 -0.246570
C5    C     C_R   0.861127 0.600629 0.631715 -0.152532
C6    C     C_R   0.967799 0.620995 0.636175 -0.167258
C7    C     C_R   0.539321 0.060954 0.624104 0.116126
C8    C     C_R   0.513407 0.129063 0.500989 -0.127348
C9    C     C_R   0.505377 0.066898 0.372704 -0.200166
C10   C     C_R   0.506636 0.938348 0.370896 -0.213338
C11   C     C_R   0.515394 0.870556 0.497356 -0.086203
C12   C     C_R   0.301131 0.503086 0.474118 0.837726
C13   C     C_R   0.539216 0.933652 0.621792 0.072766
C14   C     C_3   0.494431 0.917999 0.758182 -0.462711
C15   C     C_3   0.493586 0.058049 0.761223 -0.048634
C16   C     C_R   0.549694 0.592786 0.077871 0.218708
C17   C     C_R   0.440893 0.418284 0.071865 -0.091065
C18   C     C_R   0.438922 0.416238 0.923764 0.066065
C19   C     C_R   0.554397 0.588610 0.932518 0.170342
C20   C     C_3   0.669310 0.619445 0.949411 -0.254501
C21   C     C_3   0.660337 0.634382 0.104944 -0.517425
C22   C     C_R   0.503053 0.737394 0.499019 0.776482
C23   C     C_R   0.698913 0.503033 0.525472 0.787334
C24   C     C_R   0.810883 0.516633 0.537859 -0.053573
C25   C     C_R   0.188483 0.504295 0.459568 -0.037111
C26   C     C_R   0.028356 0.408373 0.358699 -0.184574
C27   C     C_R   0.135202 0.423000 0.364550 -0.226551
C28   C     C_R   0.134126 0.578206 0.545646 0.114258
Cu1   Cu    Cu3+1 0.499990 0.499980 0.640670 0.990667
Cu2   Cu    Cu3+1 0.500010 0.500020 0.359330 0.950156
H1    H     H_    0.826508 0.389689 0.372972 0.147792
H2    H     H_    0.549660 0.874551 0.839387 0.198094
H3    H     H_    0.413982 0.093626 0.751613 0.199710
H4    H     H_    0.394843 0.353142 0.128338 0.189176
H5    H     H_    0.689209 0.706965 0.894362 0.118237
H6    H     H_    0.707698 0.570083 0.174447 0.229055
H7    H     H_    0.667604 0.732229 0.137804 0.180878
H8    H     H_    0.817264 0.653525 0.698437 0.147320
H9    H     H_    0.988806 0.343809 0.285399 0.154899
H10   H     H_    0.003549 0.686087 0.711352 0.159274
H11   H     H_    0.176948 0.367493 0.297612 0.163938
H12   H     H_    0.492260 0.116476 0.273771 0.180618
H13   H     H_    0.494230 0.892607 0.271287 0.167050
H14   H     H_    0.415191 0.874355 0.747319 0.185586
N1    N     N_R   0.500660 0.500930 0.148010 -0.193061
N2    N     N_R   0.500660 0.500890 0.852110 -0.195319
O1    O     O_R   0.500000 0.319640 0.618810 -0.542729
O2    O     O_R   0.500010 0.319680 0.381230 -0.593334
O3    O     O_R   0.348990 0.499960 0.599490 -0.525087
O4    O     O_R   0.349000 0.500000 0.361910 -0.596688
O5    O     O_R   0.499990 0.680320 0.618770 -0.597255
O6    O     O_R   0.500000 0.680360 0.381190 -0.583262
O7    O     O_R   0.651000 0.500000 0.638090 -0.563289
O8    O     O_R   0.651010 0.500040 0.400510 -0.588349
C29   C     C_3   0.567025 0.112986 0.879976 -0.766475
H15   H     H_    0.646350 0.076328 0.881407 0.224846
H16   H     H_    0.571940 0.214472 0.866402 0.275141
H17   H     H_    0.536506 0.090658 0.981764 0.241222
C30   C     C_2   0.369388 0.314621 0.860453 0.806022
O9    O     O_2   0.333026 0.316937 0.739260 -0.565605
O10   O     O_R   0.339893 0.215696 0.945848 -0.818632
H18   H     H_    0.287474 0.156269 0.895705 0.328141
C31   C     C_2   0.740695 0.515170 0.928498 0.920101
O11   O     O_2   0.834582 0.534906 0.943415 -0.614085
O12   O     O_R   0.701135 0.395991 0.900167 -0.755840
H19   H     H_    0.757700 0.335154 0.890237 0.319992
C32   C     C_3   0.189484 0.680239 0.632759 -0.870997
H20   H     H_    0.269357 0.701569 0.605642 0.231503
H21   H     H_    0.147653 0.767741 0.613299 0.220428
H22   H     H_    0.192688 0.654478 0.745490 0.244542

loop_
_geom_bond_atom_site_label_1
_geom_bond_atom_site_label_2
_ccdc_geom_bond_type
C16   N1    A    
C8    C9    A    
Cu1   N2    S    
C12   O4    A    
C29   H15   S    
C31   O12   S    
C1    O2    A    
C23   O7    A    
C16   C21   S    
C25   C27   A    
C1    C8    S    
Cu2   O8    S    
C9    C10   A    
C27   H11   S    
C11   C22   S    
C19   C20   S    
C7    C13   A    
C12   C25   S    
C23   C24   S    
C32   H22   S    
C20   C31   S    
C7    C15   S    
C12   O3    A    
Cu2   O4    S    
C19   N2    A    
C30   O9    D    
C21   H6    S    
C2    C6    A    
C5    H8    S    
C25   C28   A    
C11   C13   A    
C9    H12   S    
Cu1   Cu2   S    
C5    C24   A    
Cu1   O7    S    
Cu1   O1    S    
C16   C19   A    
C5    C6    A    
C18   N2    A    
C22   O6    A    
C17   N1    A    
C17   C18   A    
C2    C3    A    
C29   H16   S    
C26   C27   A    
O10   H18   S    
C4    C24   A    
C6    H10   S    
C26   H9    S    
C30   O10   S    
C4    H1    S    
C2    C28   A    
C17   H4    S    
Cu1   O5    S    
C32   H20   S    
C18   C30   S    
C7    C8    A    
C28   C32   S    
C21   H7    S    
C20   C21   S    
C23   O8    A    
C14   H14   S    
O12   H19   S    
C10   C11   A    
C29   H17   S    
Cu2   O2    S    
Cu2   O6    S    
C14   C15   S    
C1    O1    A    
Cu1   O3    S    
Cu2   N1    S    
C10   H13   S    
C13   C14   S    
C20   H5    S    
C15   H3    S    
C3    C26   A    
C3    C4    A    
C31   O11   D    
C14   H2    S    
C22   O5    A    
C32   H21   S    
C15   C29   S    
