data_mof_unit_47931.cif
_audit_creation_date              2013-03-05T16:11:32-0500
_audit_creation_method            fapswitch 2.2
_symmetry_space_group_name_H-M    P1
_symmetry_Int_Tables_number       1
_space_group_crystal_system       triclinic
_cell_length_a                    10.604406
_cell_length_b                    9.914441
_cell_length_c                    15.765464
_cell_angle_alpha                 89.807039
_cell_angle_beta                  91.653556
_cell_angle_gamma                 89.929071
_cell_volume                      1656.82866361

loop_
_atom_site_label
_atom_site_type_symbol
_atom_site_description
_atom_site_fract_x
_atom_site_fract_y
_atom_site_fract_z
_atom_type_partial_charge
O1    O     O_R   0.316750 0.614620 0.499990 -0.601812
O2    O     O_R   0.316750 0.385380 0.499990 -0.604985
C1    C     C_R   0.262975 0.499960 0.514929 0.890284
O3    O     O_R   0.499990 0.614720 0.377140 -0.568178
O4    O     O_R   0.499990 0.385280 0.377140 -0.574316
C2    C     C_R   0.499738 0.500186 0.338595 0.972291
Zn1   Zn    Zn3+2 0.499980 0.653120 0.500000 1.009060
Zn2   Zn    Zn3+2 0.499980 0.346880 0.500000 1.003098
O5    O     O_R   0.683220 0.614710 0.500000 -0.648200
O6    O     O_R   0.683220 0.385290 0.500000 -0.647066
O7    O     O_R   0.499980 0.614620 0.622860 -0.647048
O8    O     O_R   0.499980 0.385380 0.622860 -0.656754
C3    C     C_R   0.740944 0.499988 0.502271 0.879815
C4    C     C_R   0.500269 0.499802 0.661457 0.832920
C5    C     C_3   0.415672 0.624854 0.048276 -0.235368
C6    C     C_3   0.438422 0.358289 0.049270 -0.248164
C7    C     C_3   0.424414 0.369088 0.948591 -0.195373
C8    C     C_3   0.433235 0.632787 0.949354 -0.264099
H1    H     H_    0.475016 0.283488 0.919415 0.243103
H2    H     H_    0.506532 0.710589 0.937316 0.256989
C9    C     C_1   0.497949 0.499347 0.749919 -0.091221
C10   C     C_3   0.498918 0.498479 0.082999 -0.145747
C11   C     C_3   0.492383 0.498896 0.916570 -0.024638
C12   C     C_3   0.631346 0.492130 0.950326 -0.460313
C13   C     C_3   0.641096 0.512063 0.049345 0.473945
C14   C     C_1   0.495345 0.499072 0.824924 0.000183
C15   C     C_1   0.500333 0.499720 0.174998 -0.032251
C16   C     C_1   0.500074 0.500397 0.250104 -0.005463
H3    H     H_    0.691237 0.564629 0.915842 0.233457
H4    H     H_    0.669390 0.391881 0.932325 0.227359
C17   C     C_R   0.066444 0.376245 0.544526 -0.028729
C18   C     C_R   0.066206 0.622976 0.546270 -0.018176
C19   C     C_R   0.938010 0.377588 0.527501 -0.101190
C20   C     C_R   0.937323 0.622107 0.530445 -0.110232
H5    H     H_    0.886975 0.283243 0.524839 0.218072
H6    H     H_    0.885504 0.716346 0.530833 0.194991
C21   C     C_R   0.874933 0.500050 0.516334 -0.111510
C22   C     C_R   0.132223 0.499725 0.539662 -0.247128
C23   C     C_R   0.579219 0.071303 0.554404 -0.038620
C24   C     C_R   0.572504 0.927292 0.558157 -0.056646
N1    N     N_R   0.499970 0.857200 0.499980 -0.211991
N2    N     N_R   0.499970 0.142800 0.499980 -0.209586
C25   C     C_R   0.427142 0.928585 0.442327 0.275143
C26   C     C_R   0.425188 0.072237 0.443420 0.281650
C27   C     C_2   0.318956 0.683259 0.897780 0.479904
H7    H     H_    0.237736 0.619804 0.885516 0.027927
O9    O     O_2   0.318239 0.796950 0.867704 -0.452894
C28   C     C_2   0.290947 0.355777 0.911760 0.519956
H8    H     H_    0.213260 0.410299 0.938179 0.057455
O10   O     O_2   0.268771 0.280090 0.852215 -0.509822
N3    N     N_R   0.351672 0.858397 0.380414 0.255235
O11   O     O_R   0.390773 0.849109 0.303215 -0.321965
O12   O     O_R   0.233541 0.835383 0.394897 -0.289254
N4    N     N_R   0.348861 0.143228 0.381908 0.250707
O13   O     O_R   0.230360 0.163981 0.396340 -0.301803
O14   O     O_R   0.387831 0.154805 0.304745 -0.347208
C29   C     C_2   0.277356 0.612403 0.072182 0.444508
H9    H     H_    0.205034 0.581343 0.026876 0.066390
O15   O     O_2   0.245046 0.634289 0.144718 -0.490469
C30   C     C_2   0.313848 0.322813 0.090830 0.386251
H10   H     H_    0.282677 0.376369 0.146179 0.143987
O16   O     O_2   0.252480 0.224640 0.067628 -0.434461
C31   C     C_2   0.522367 0.239464 0.077478 0.620396
H11   H     H_    0.537782 0.220626 0.144914 0.118559
O17   O     O_2   0.571840 0.163178 0.027606 -0.475586
C32   C     C_2   0.456734 0.759471 0.087718 0.661956
H12   H     H_    0.500174 0.762836 0.150728 0.130555
O18   O     O_2   0.432420 0.866532 0.052163 -0.452256
N5    N     N_R   0.695728 0.645250 0.071698 0.190871
O19   O     O_R   0.727800 0.670761 0.150366 -0.313818
O20   O     O_R   0.723008 0.734700 0.014416 -0.340877
N6    N     N_R   0.729472 0.409592 0.086013 0.213639
O21   O     O_R   0.735366 0.388177 0.167538 -0.344975
O22   O     O_R   0.826194 0.371545 0.042902 -0.304279
C33   C     C_2   0.127622 0.247895 0.572261 0.571921
H13   H     H_    0.218249 0.248694 0.605995 0.068609
O23   O     O_2   0.075769 0.139684 0.559829 -0.445192
C34   C     C_2   0.127700 0.750361 0.574611 0.541335
H14   H     H_    0.219162 0.748517 0.607253 0.067858
O24   O     O_2   0.075167 0.858904 0.563963 -0.459412
C35   C     C_2   0.680113 0.142238 0.604004 0.524157
H15   H     H_    0.667372 0.241964 0.628258 0.105331
O25   O     O_2   0.783065 0.089442 0.616830 -0.528969
C36   C     C_2   0.638944 0.853422 0.627877 0.606611
H16   H     H_    0.691681 0.762924 0.616001 0.072355
O26   O     O_2   0.633954 0.893473 0.700880 -0.520784

loop_
_geom_bond_atom_site_label_1
_geom_bond_atom_site_label_2
_geom_bond_distance
_ccdc_geom_bond_type
C5    C8    1.577672 S    
C32   O18   1.222428 D    
C9    C14   1.183598 T    
C31   O17   1.221594 D    
C20   C21   1.395323 A    
C5    C29   1.529927 S    
C24   C36   1.479726 S    
C7    C28   1.520300 S    
C33   H13   1.084928 S    
C35   H15   1.071096 S    
C27   H7    1.080530 S    
Zn1   O7    1.972934 S    
C7    C11   1.565109 S    
C4    C9    1.395556 S    
C36   O26   1.221330 D    
O4    C2    1.289326 A    
O7    C4    1.288935 A    
C34   O24   1.220040 D    
C29   O15   1.223244 D    
C8    H2    1.115426 S    
C30   O16   1.222656 D    
C6    C30   1.532231 S    
C11   C14   1.446095 S    
N5    O20   1.302333 A    
O5    C3    1.290895 A    
C12   H3    1.110860 S    
C19   H5    1.081569 S    
C5    C10   1.616658 S    
C2    C16   1.395200 S    
C1    C22   1.451124 S    
C6    C7    1.593129 S    
C10   C13   1.618334 S    
C11   C12   1.553547 S    
C17   C19   1.380589 A    
C6    C31   1.532685 S    
C18   C22   1.413183 A    
C3    C21   1.431737 S    
C28   O10   1.221515 D    
C32   H12   1.083496 S    
N1    C25   1.370146 A    
N2    C26   1.370472 A    
O3    Zn1   1.975267 S    
C35   O25   1.221449 D    
C23   N2    1.377579 A    
C27   O9    1.221307 D    
N4    O14   1.300789 A    
N3    O11   1.300571 A    
C36   H16   1.076467 S    
C23   C35   1.485961 S    
O3    C2    1.289696 A    
C23   C24   1.430765 A    
C34   H14   1.084879 S    
C5    C32   1.532636 S    
C19   C21   1.393668 A    
C8    C11   1.563321 S    
C30   H10   1.082567 S    
O1    C1    1.296338 A    
C18   C20   1.382256 A    
C25   C26   1.424519 A    
C17   C33   1.486343 S    
Zn2   O8    1.975457 S    
C13   N6    1.485619 S    
C12   C13   1.574656 S    
C33   O23   1.220020 D    
N6    O22   1.302787 A    
C24   N1    1.371380 A    
O8    C4    1.289099 A    
C10   C15   1.450148 S    
C13   N5    1.482136 S    
C8    C27   1.522839 S    
Zn1   O5    1.979654 S    
N4    O13   1.299766 A    
C28   H8    1.079153 S    
C6    C10   1.616679 S    
O1    Zn1   1.980641 S    
O2    Zn2   1.979714 S    
Zn2   N2    2.023340 S    
N6    O21   1.301695 A    
O6    C3    1.292229 A    
O4    Zn2   1.972750 S    
C17   C22   1.412720 A    
O2    C1    1.295803 A    
C25   N3    1.427716 S    
C29   H9    1.078731 S    
C7    H1    1.111540 S    
C20   H6    1.083478 S    
Zn1   N1    2.023338 S    
N5    O19   1.302232 A    
C12   H4    1.112951 S    
C18   C34   1.486258 S    
C31   H11   1.086490 S    
C26   N4    1.428165 S    
Zn2   O6    1.980579 S    
C15   C16   1.184200 T    
N3    O12   1.300131 A    
