data_mof_unit_15888.cif
_audit_creation_date              2012-10-26T21:24:53-0400
_audit_creation_method            fapswitch 2.2
_symmetry_space_group_name_H-M    P1
_symmetry_Int_Tables_number       1
_space_group_crystal_system       triclinic
_cell_length_a                    9.567414
_cell_length_b                    10.907864
_cell_length_c                    15.646057
_cell_angle_alpha                 88.783834
_cell_angle_beta                  73.200774
_cell_angle_gamma                 91.733636
_cell_volume                      1561.65802718

loop_
_atom_site_label
_atom_site_type_symbol
_atom_type_description
_atom_site_fract_x
_atom_site_fract_y
_atom_site_fract_z
_atom_type_partial_charge
C1    C     C_R   0.997154 0.262728 0.502200 0.545427
C2    C     C_R   0.207339 0.449235 0.044125 0.050773
C3    C     C_R   0.305058 0.508050 0.084618 0.039051
C4    C     C_R   0.916818 0.500885 0.671713 0.540508
C5    C     C_R   0.060335 0.421504 0.096135 0.009995
C6    C     C_R   0.020203 0.441730 0.188255 -0.161322
C7    C     C_R   0.264732 0.513147 0.177924 -0.084730
C8    C     C_R   0.116015 0.069197 0.512419 -0.059719
C9    C     C_R   0.991410 0.130044 0.509984 -0.018400
C10   C     C_R   0.862836 0.060100 0.516784 -0.140286
C11   C     C_R   0.866293 0.931881 0.515221 -0.136599
C12   C     C_R   0.655556 0.528527 0.899724 0.033252
C13   C     C_R   0.998415 0.871754 0.506513 -0.030365
C14   C     C_R   0.120297 0.943272 0.510635 -0.033009
C15   C     C_3   0.279640 0.950628 0.456881 0.210305
C16   C     C_R   0.001291 0.738055 0.500294 0.533094
C17   C     C_3   0.273360 0.090746 0.461404 -0.027547
C18   C     C_R   0.611975 0.529338 0.424011 0.134475
C19   C     C_R   0.538391 0.458164 0.572414 -0.007611
C20   C     C_R   0.389842 0.458222 0.572427 -0.019214
C21   C     C_R   0.464305 0.530110 0.424000 0.238479
C22   C     C_3   0.493885 0.652680 0.377327 0.088694
C23   C     C_R   0.741853 0.604149 0.939070 0.036378
C24   C     C_3   0.652619 0.647467 0.373549 -0.174318
C25   C     C_R   0.082152 0.495862 0.327976 0.543970
C26   C     C_R   0.867277 0.518186 0.768087 0.010575
C27   C     C_R   0.123073 0.484011 0.230011 -0.026740
C28   C     C_R   0.890487 0.629231 0.895220 -0.070614
C29   C     C_R   0.952996 0.586464 0.810004 -0.097976
C30   C     C_R   0.722567 0.484266 0.814439 -0.100034
C31   C     C_2   0.943597 0.371408 0.059819 0.215171
C32   C     C_2   0.310409 0.901611 0.364023 0.244229
C33   C     C_2   0.297225 0.160516 0.373417 0.285838
C34   C     C_R   0.505160 0.503173 0.945939 -0.005842
C35   C     C_R   0.446776 0.549595 0.032410 0.070613
C36   C     C_R   0.528535 0.640514 0.062837 0.242719
C37   C     C_R   0.677217 0.661070 0.018789 -0.110026
C38   C     C_R   0.409705 0.435703 0.908617 -0.148616
C39   C     C_R   0.263098 0.413490 0.955425 -0.108041
Cu1   Cu    Cu3+1 0.140670 0.499980 0.500000 0.970140
Cu2   Cu    Cu3+1 0.859330 0.500020 0.500000 0.948491
H1    H     H_    0.741029 0.726572 0.044682 0.109875
H2    H     H_    0.687692 0.720288 0.412349 0.133356
H3    H     H_    0.908787 0.420104 0.228207 0.132294
H4    H     H_    0.197991 0.360772 0.922392 0.179765
H5    H     H_    0.956802 0.686420 0.925331 0.117978
H6    H     H_    0.065113 0.613535 0.774818 0.121341
H7    H     H_    0.663551 0.427382 0.780226 0.104616
H8    H     H_    0.443368 0.400656 0.842276 0.100992
H9    H     H_    0.847926 0.324312 0.104667 0.129099
H10   H     H_    0.323931 0.832710 0.540412 0.324486
H11   H     H_    0.225862 0.851733 0.343917 0.075218
H12   H     H_    0.761686 0.103954 0.519389 0.158062
H13   H     H_    0.229828 0.139324 0.330079 0.097928
H14   H     H_    0.374001 0.676054 0.300555 0.354780
H15   H     H_    0.527951 0.781246 0.137908 0.367980
H16   H     H_    0.766493 0.880689 0.517435 0.159353
H17   H     H_    0.336937 0.131137 0.504046 0.178658
H18   H     H_    0.564074 0.425560 0.631613 0.115897
H19   H     H_    0.305708 0.425674 0.631550 0.124297
H20   H     H_    0.346521 0.532928 0.210459 0.214429
H21   H     H_    0.436455 0.725228 0.419542 0.164991
H22   H     H_    0.727728 0.635317 0.305488 0.166786
N1    N     N_R   0.648210 0.500930 0.499430 -0.247138
N2    N     N_R   0.352300 0.500890 0.499430 -0.254925
O1    O     O_R   0.118810 0.319640 0.500000 -0.482704
O2    O     O_3   0.372859 0.906317 0.504506 -0.707444
O3    O     O_2   0.430507 0.919971 0.310067 -0.461199
O4    O     O_2   0.392145 0.241842 0.350761 -0.475220
O5    O     O_3   0.475054 0.649935 0.292637 -0.670717
O6    O     O_3   0.457554 0.717580 0.129112 -0.688068
O7    O     O_R   0.881230 0.319680 0.499990 -0.499725
O8    O     O_R   0.055580 0.499970 0.629840 -0.513692
O9    O     O_R   0.818000 0.500010 0.629830 -0.512541
O10   O     O_R   0.118770 0.680320 0.500010 -0.526780
O11   O     O_R   0.881190 0.680360 0.500000 -0.506655
O12   O     O_R   0.182000 0.499990 0.370170 -0.484345
O13   O     O_R   0.944420 0.500030 0.370160 -0.506607
O14   O     O_2   0.947848 0.386683 0.981670 -0.525590

loop_
_geom_bond_atom_site_label_1
_geom_bond_atom_site_label_2
_ccdc_geom_bond_type
C16   O10   A    
C19   C20   A    
C15   C32   S    
C38   H8    S    
C12   C23   A    
C28   H5    S    
C29   H6    S    
C25   O12   A    
C30   H7    S    
C28   C29   A    
C3    C7    A    
C38   C39   A    
C18   C21   A    
C7    C27   A    
Cu1   O8    S    
C34   C35   A    
C37   H1    S    
C10   H12   S    
C7    H20   S    
Cu2   O9    S    
C2    C39   A    
C32   H11   S    
C35   C36   A    
C8    C9    A    
C18   C24   S    
C20   H19   S    
C9    C10   A    
C4    O9    A    
C36   O6    S    
C33   O4    D    
C17   H17   S    
C39   H4    S    
C21   N2    A    
Cu1   O1    S    
C21   C22   S    
C17   C33   S    
C1    O7    A    
C25   O13   A    
C20   N2    A    
C1    C9    S    
Cu2   O13   S    
C19   H18   S    
C23   C37   A    
C34   C38   A    
C22   H21   S    
C6    C27   A    
C3    C35   A    
C19   N1    A    
H15   O6    S    
C15   O2    S    
C1    O1    A    
H10   O2    S    
C23   C28   A    
C4    O8    A    
Cu2   O7    S    
Cu1   Cu2   S    
C26   C30   A    
C24   H22   S    
Cu1   N2    S    
C22   C24   S    
C2    C5    A    
C31   H9    S    
C12   C34   A    
C33   H13   S    
C15   C17   S    
C36   C37   A    
C8    C14   A    
C12   C30   A    
C16   O11   A    
C4    C26   S    
C31   O14   D    
C25   C27   S    
C8    C17   S    
Cu1   O10   S    
C32   O3    D    
C2    C3    A    
C11   H16   S    
Cu2   O11   S    
C11   C13   A    
C18   N1    A    
C5    C6    A    
Cu1   O12   S    
H14   O5    S    
C10   C11   A    
C26   C29   A    
C13   C16   S    
C24   H2    S    
C14   C15   S    
C6    H3    S    
Cu2   N1    S    
C13   C14   A    
C22   O5    S    
C5    C31   S    
