data_mof_unit_35368.cif
_audit_creation_date              2012-12-10T16:52:07-0500
_audit_creation_method            fapswitch 2.2
_symmetry_space_group_name_H-M    P1
_symmetry_Int_Tables_number       1
_space_group_crystal_system       triclinic
_cell_length_a                    7.959228
_cell_length_b                    8.551639
_cell_length_c                    14.885152
_cell_angle_alpha                 93.987392
_cell_angle_beta                  85.375131
_cell_angle_gamma                 92.815853
_cell_volume                      1006.44094648

loop_
_atom_site_label
_atom_site_type_symbol
_atom_type_description
_atom_site_fract_x
_atom_site_fract_y
_atom_site_fract_z
_atom_type_partial_charge
C1    C     C_R   0.544315 0.793668 0.497946 0.940865
C2    C     C_R   0.616326 0.599285 0.813019 -0.178356
C3    C     C_R   0.499175 0.499136 0.231783 -0.046039
C4    C     C_R   0.500900 0.501096 0.768198 -0.051755
C5    C     C_R   0.617761 0.595384 0.185415 -0.217513
C6    C     C_R   0.382245 0.404968 0.814586 -0.235996
C7    C     C_R   0.618966 0.596869 0.092455 0.111385
C8    C     C_R   0.381119 0.403455 0.907527 0.112284
C9    C     C_R   0.500276 0.499684 0.046639 0.057283
C10   C     C_R   0.499859 0.500607 0.953329 0.059986
C11   C     C_R   0.382307 0.401197 0.094196 0.087622
C12   C     C_R   0.455684 0.206346 0.502247 0.931256
C13   C     C_R   0.617899 0.599015 0.905755 0.091285
C14   C     C_R   0.735815 0.693997 0.044763 -0.190329
C15   C     C_R   0.264323 0.306278 0.955207 -0.199355
C16   C     C_R   0.735108 0.695262 0.951491 -0.193091
C17   C     C_R   0.265131 0.304918 0.048460 -0.181820
C18   C     C_2   0.567739 0.957040 0.497106 -0.356821
C19   C     C_2   0.432240 0.043012 0.503518 -0.327767
C20   C     C_R   0.500803 0.501199 0.672524 0.872512
C21   C     C_R   0.499223 0.498909 0.327470 0.868371
C22   C     C_R   0.383918 0.400845 0.186918 -0.167955
H1    H     H_    0.297956 0.322210 0.223718 0.214114
H2    H     H_    0.303374 0.993989 0.509591 0.212477
H3    H     H_    0.849871 0.165294 0.362988 0.346943
H4    H     H_    0.109780 0.766365 0.733045 0.353862
H5    H     H_    0.702434 0.677754 0.776163 0.205479
H6    H     H_    0.707162 0.669904 0.221980 0.164278
H7    H     H_    0.292768 0.330499 0.778041 0.167831
H8    H     H_    0.827148 0.768794 0.079552 0.159670
H9    H     H_    0.172988 0.231480 0.920419 0.158085
H10   H     H_    0.826105 0.770874 0.915133 0.155118
H11   H     H_    0.174217 0.229219 0.084805 0.170367
H12   H     H_    0.696588 0.006044 0.491234 0.190794
N1    N     N_2   0.950330 0.457950 0.475660 0.097663
N2    N     N_2   0.049670 0.542050 0.524340 0.127447
O1    O     O_R   0.389250 0.738570 0.505970 -0.596406
O2    O     O_2   0.158217 0.266949 0.374006 -0.346464
O3    O     O_3   0.855390 0.262005 0.329734 -0.518520
O4    O     O_2   0.842644 0.733674 0.625550 -0.329458
O5    O     O_2   0.938563 0.500330 0.693020 -0.330091
O6    O     O_3   0.145694 0.738932 0.668836 -0.531018
O7    O     O_R   0.610750 0.261430 0.494030 -0.631959
O8    O     O_R   0.678390 0.711620 0.490370 -0.589782
O9    O     O_R   0.321610 0.288380 0.509630 -0.586602
O10   O     O_R   0.355420 0.513510 0.639950 -0.571939
O11   O     O_R   0.644580 0.486490 0.360050 -0.565315
O12   O     O_R   0.644560 0.486560 0.624350 -0.551978
O13   O     O_R   0.355440 0.513440 0.375650 -0.557987
O14   O     O_2   0.062176 0.499884 0.306987 -0.290863
S1    S     S_3+6 0.015332 0.373338 0.370768 0.116961
S2    S     S_3+6 0.984997 0.626929 0.629152 0.114990
Zn1   Zn    Zn3+2 0.306940 0.517990 0.510420 1.137050
Zn2   Zn    Zn3+2 0.693060 0.482010 0.489580 1.119202

loop_
_geom_bond_atom_site_label_1
_geom_bond_atom_site_label_2
_ccdc_geom_bond_type
O3    S1    S    
C15   H9    S    
C2    H5    S    
O2    S1    D    
C16   H10   S    
C5    H6    S    
C9    C11   A    
C9    C10   A    
O7    Zn2   S    
C2    C4    A    
N1    N2    D    
N2    S2    S    
C1    O1    A    
C1    O8    A    
O1    Zn1   S    
C21   O13   A    
C19   H2    S    
O9    Zn1   S    
O4    S2    D    
H3    O3    S    
N1    Zn2   S    
O12   Zn2   S    
C18   H12   S    
H4    O6    S    
C1    C18   S    
C20   O12   A    
C17   H11   S    
C14   H8    S    
O11   Zn2   S    
O13   Zn1   S    
O10   Zn1   S    
C4    C6    A    
O14   S1    D    
C8    C15   A    
C5    C7    A    
N1    S1    S    
C14   C16   A    
C3    C21   S    
C4    C20   S    
O8    Zn2   S    
C6    H7    S    
C12   C19   S    
C11   C22   A    
C8    C10   A    
C18   C19   D    
C13   C16   A    
C7    C9    A    
C2    C13   A    
C22   H1    S    
C11   C17   A    
C3    C22   A    
C6    C8    A    
N2    Zn1   S    
O5    S2    D    
C3    C5    A    
C15   C17   A    
C12   O7    A    
C7    C14   A    
C20   O10   A    
O6    S2    S    
C12   O9    A    
C21   O11   A    
C10   C13   A    
