data_mof_unit_14104.cif
_audit_creation_date              2012-12-11T17:47:27-0500
_audit_creation_method            fapswitch 2.2
_symmetry_space_group_name_H-M    P1
_symmetry_Int_Tables_number       1
_space_group_crystal_system       triclinic
_cell_length_a                    14.80561
_cell_length_b                    14.843333
_cell_length_c                    15.005597
_cell_angle_alpha                 109.922868
_cell_angle_beta                  108.753713
_cell_angle_gamma                 108.843069
_cell_volume                      2565.94655896

loop_
_atom_site_label
_atom_site_type_symbol
_atom_type_description
_atom_site_fract_x
_atom_site_fract_y
_atom_site_fract_z
_atom_type_partial_charge
C1    C     C_R   0.915238 0.197963 0.002051 -0.095253
C2    C     C_R   0.839087 0.957419 0.919403 -0.145560
C3    C     C_R   0.182375 0.066406 0.772829 -0.124125
C4    C     C_R   0.621402 0.785378 0.006122 -0.120896
C5    C     C_R   0.085209 0.016568 0.773740 -0.227014
C6    C     C_R   0.718667 0.836481 0.006233 -0.209954
C7    C     C_R   0.705952 0.230949 0.228043 -0.104015
C8    C     C_R   0.417353 0.846510 0.865374 -0.120873
C9    C     C_R   0.811011 0.319423 0.302538 -0.136177
C10   C     C_R   0.349262 0.740510 0.775988 -0.132642
C11   C     C_R   0.899897 0.301118 0.340225 0.080986
C12   C     C_R   0.018144 0.738118 0.926858 -0.097481
C13   C     C_R   0.238506 0.704743 0.713489 0.101767
C14   C     C_R   0.880961 0.192852 0.304421 -0.135447
C15   C     C_R   0.197417 0.777695 0.737832 -0.191272
C16   C     C_R   0.295449 0.803569 0.203343 -0.134896
C17   C     C_R   0.684725 0.239802 0.776264 -0.134284
C18   C     C_R   0.775351 0.104800 0.232451 -0.124623
C19   C     C_R   0.264523 0.881606 0.829853 -0.106865
C20   C     C_R   0.688066 0.123648 0.193364 -0.112624
C21   C     C_R   0.374588 0.916445 0.893258 -0.102902
C22   C     C_R   0.047794 0.397459 0.524622 -0.206537
C23   C     C_R   0.297968 0.866563 0.296139 0.057505
C24   C     C_R   0.149245 0.585831 0.518734 -0.205519
C25   C     C_R   0.108701 0.498500 0.620789 0.051534
C26   C     C_R   0.063674 0.490611 0.423085 0.066290
C27   C     C_R   0.167036 0.593852 0.618364 0.020587
C28   C     C_R   0.009734 0.394891 0.426460 0.039101
C29   C     C_R   0.084635 0.040242 0.872520 -0.069446
C30   C     C_R   0.731437 0.788936 0.915898 -0.054249
C31   C     C_R   0.280261 0.161955 0.968813 -0.234243
C32   C     C_R   0.549014 0.635460 0.827073 -0.233373
C33   C     C_R   0.116030 0.043297 0.319463 0.557691
C34   C     C_R   0.677433 0.209795 0.674690 0.070444
C35   C     C_R   0.767730 0.930806 0.562765 0.518763
C36   C     C_R   0.213293 0.039742 0.337521 -0.203475
C37   C     C_R   0.691942 0.967901 0.561300 -0.225629
C38   C     C_R   0.283271 0.057370 0.438518 0.046806
C39   C     C_R   0.677704 0.028651 0.509174 0.052482
C40   C     C_R   0.225004 0.407320 0.973719 -0.119478
C41   C     C_R   0.789690 0.591010 0.098005 -0.143788
C42   C     C_R   0.254739 0.080359 0.521345 -0.157988
C43   C     C_R   0.740474 0.052520 0.459099 -0.183581
C44   C     C_R   0.157746 0.084442 0.502943 -0.174560
C45   C     C_R   0.326076 0.498691 0.049594 0.055212
C46   C     C_R   0.818986 0.018850 0.464202 -0.177095
C47   C     C_R   0.088333 0.065273 0.402072 -0.223229
C48   C     C_R   0.832269 0.957453 0.515375 -0.220150
C49   C     C_R   0.483379 0.135027 0.553344 -0.216621
C50   C     C_R   0.491214 0.974646 0.396533 -0.218217
C51   C     C_R   0.580961 0.131761 0.571692 0.053726
C52   C     C_R   0.391724 0.970220 0.381761 0.048090
C53   C     C_R   0.584901 0.051025 0.491860 0.046797
C54   C     C_R   0.386561 0.053384 0.457747 0.062529
C55   C     C_R   0.279950 0.138520 0.870225 -0.192148
C56   C     C_R   0.701126 0.499742 0.072517 0.035307
C57   C     C_R   0.535898 0.686040 0.915754 -0.198453
C58   C     C_R   0.824840 0.855954 0.909195 0.129912
C59   C     C_R   0.983645 0.977516 0.871935 0.113005
C60   C     C_R   0.183411 0.113573 0.970704 0.490951
C61   C     C_R   0.646303 0.686174 0.826359 0.511306
C62   C     C_R   0.896362 0.820280 0.887296 0.130882
C63   C     C_R   0.925060 0.023294 0.911384 0.116391
C64   C     C_R   0.051348 0.589846 0.314335 -0.127419
C65   C     C_R   0.012647 0.409809 0.705579 -0.125567
C66   C     C_3   0.511929 0.401738 0.066511 -0.170994
C67   C     C_R   0.029679 0.495480 0.323384 0.052693
C68   C     C_3   0.528296 0.595896 0.094310 -0.153990
C69   C     C_3   0.436563 0.418122 0.982537 -0.168339
C70   C     C_3   0.603939 0.579850 0.178578 -0.146601
C71   C     C_3   0.429528 0.498538 0.073281 0.166440
C72   C     C_3   0.609193 0.499231 0.086790 0.163323
C73   C     C_3   0.503272 0.482076 0.157961 -0.103091
C74   C     C_3   0.534614 0.515118 0.003230 -0.128364
C75   C     C_R   0.315092 0.591054 0.065665 -0.135606
C76   C     C_R   0.700149 0.408762 0.006714 -0.131856
C77   C     C_R   0.966352 0.405779 0.220275 -0.106955
C78   C     C_R   0.079668 0.500962 0.706349 0.071751
C79   C     C_R   0.103703 0.590960 0.796862 -0.152080
C80   C     C_R   0.207921 0.804128 0.299115 -0.121418
C81   C     C_R   0.781025 0.248887 0.687248 -0.098897
C82   C     C_R   0.004758 0.199204 0.908397 -0.133302
C83   C     C_R   0.925338 0.741812 0.018141 -0.053483
C84   C     C_R   0.952041 0.137511 0.944432 0.117535
C85   C     C_R   0.937091 0.761081 0.936280 0.077156
C86   C     C_R   0.957846 0.871090 0.847760 -0.089408
Cl1   Cl    Cl    0.190098 0.142012 0.097164 -0.626467
Cl2   Cl    Cl    0.654610 0.622895 0.708661 -0.615915
Cl3   Cl    Cl    0.028998 0.021290 0.193749 -0.696367
Cl4   Cl    Cl    0.775195 0.843896 0.616470 -0.676644
H1    H     H_    0.857197 0.168575 0.027923 0.091033
H2    H     H_    0.503117 0.874584 0.913148 0.129440
H3    H     H_    0.823081 0.402141 0.331382 0.124462
H4    H     H_    0.382439 0.686674 0.754042 0.135845
H5    H     H_    0.947727 0.177017 0.334060 0.139872
H6    H     H_    0.112355 0.751896 0.688913 0.131347
H7    H     H_    0.760934 0.022064 0.208774 0.111095
H8    H     H_    0.230779 0.934379 0.852619 0.146053
H9    H     H_    0.008399 0.322006 0.523962 0.115571
H10   H     H_    0.194866 0.658191 0.516929 0.132862
H11   H     H_    0.010927 0.957849 0.697618 0.179618
H12   H     H_    0.049382 0.741748 0.871938 0.097546
H13   H     H_    0.783173 0.915278 0.075047 0.176719
H14   H     H_    0.487301 0.468085 0.220751 0.149079
H15   H     H_    0.549449 0.523252 0.937976 0.141454
H16   H     H_    0.346550 0.830534 0.169822 0.094249
H17   H     H_    0.618798 0.220281 0.795187 0.097569
H18   H     H_    0.013222 0.067792 0.388249 0.122969
H19   H     H_    0.890760 0.928578 0.515848 0.136549
H20   H     H_    0.234437 0.023771 0.273147 0.176611
H21   H     H_    0.640580 0.945120 0.596070 0.157861
H22   H     H_    0.306866 0.094055 0.599751 0.113430
H23   H     H_    0.182717 0.046083 0.696664 0.121708
H24   H     H_    0.727977 0.096527 0.415788 0.141714
H25   H     H_    0.136071 0.102513 0.566741 0.129152
H26   H     H_    0.867344 0.037881 0.425921 0.128827
H27   H     H_    0.482922 0.200217 0.614155 0.137709
H28   H     H_    0.495053 0.909505 0.339190 0.133963
H29   H     H_    0.002963 0.838333 0.816205 0.101844
H30   H     H_    0.785157 0.986004 0.937479 0.107804
H31   H     H_    0.367411 0.353523 0.900700 0.122779
H32   H     H_    0.675184 0.645752 0.258749 0.134775
H33   H     H_    0.513060 0.324793 0.057078 0.102114
H34   H     H_    0.611220 0.824393 0.074826 0.109026
H35   H     H_    0.535578 0.676571 0.107612 0.110397
H36   H     H_    0.206289 0.322561 0.939100 0.119646
H37   H     H_    0.817466 0.675170 0.154509 0.106403
H38   H     H_    0.097531 0.674401 0.378282 0.096498
H39   H     H_    0.990681 0.325408 0.657744 0.088927
H40   H     H_    0.378550 0.675676 0.116501 0.095251
H41   H     H_    0.645576 0.324260 0.978657 0.087751
H42   H     H_    0.939106 0.320655 0.196129 0.128384
H43   H     H_    0.168224 0.673322 0.836282 0.122879
H44   H     H_    0.180406 0.831185 0.356669 0.102410
H45   H     H_    0.355930 0.215471 0.044273 0.157278
H46   H     H_    0.805198 0.243308 0.625904 0.113112
H47   H     H_    0.022978 0.171130 0.843436 0.110381
H48   H     H_    0.870575 0.752592 0.048534 0.121155
H49   H     H_    0.355583 0.174026 0.869030 0.130569
H50   H     H_    0.459353 0.647577 0.914528 0.139416
H51   H     H_    0.482309 0.557840 0.757778 0.160469
H52   H     H_    0.606444 0.055146 0.137375 0.101333
H53   H     H_    0.426685 0.997660 0.963624 0.104654
H54   H     H_    0.638133 0.245611 0.198672 0.112668
N1    N     N_R   0.947560 0.293820 0.002910 -0.046179
N2    N     N_R   0.789450 0.443190 0.997090 -0.035840
N3    N     N_R   0.945970 0.443180 0.152110 -0.046557
N4    N     N_R   0.054030 0.556820 0.847890 -0.040981
N5    N     N_R   0.151530 0.706170 0.208880 -0.039375
N6    N     N_R   0.848470 0.293830 0.791120 -0.048326
N7    N     N_R   0.004980 0.293810 0.946140 -0.041902
N8    N     N_R   0.995020 0.706190 0.053860 -0.050481
N9    N     N_R   0.052440 0.706180 0.997090 -0.047303
N10   N     N_R   0.208960 0.706170 0.152110 -0.037490
N11   N     N_R   0.791040 0.293830 0.847890 -0.044069
N12   N     N_R   0.154330 0.443160 0.946140 -0.044904
N13   N     N_R   0.845670 0.556840 0.053860 -0.041965
N14   N     N_R   0.002190 0.556820 0.208880 -0.041458
N15   N     N_R   0.997810 0.443180 0.791120 -0.039265
N16   N     N_R   0.210550 0.556810 0.002910 -0.042431
Ni1   Ni    Ni4+2 0.869690 0.369690 0.000000 0.216412
Ni2   Ni    Ni4+2 0.130310 0.630310 0.000000 0.218974
Ni3   Ni    Ni4+2 0.001390 0.369680 0.869810 0.218134
Ni4   Ni    Ni4+2 0.998610 0.630320 0.130190 0.223266

loop_
_geom_bond_atom_site_label_1
_geom_bond_atom_site_label_2
_ccdc_geom_bond_type
C75   N16   A    
C58   C62   A    
C56   C76   A    
C45   C71   S    
C16   N10   A    
C14   C18   A    
C1    N1    A    
C67   C77   A    
C24   C27   A    
C12   N9    A    
C65   N15   A    
C80   H44   S    
N2    N13   A    
N11   Ni1   S    
C1    C84   A    
C15   C19   A    
N6    Ni3   S    
C62   C86   A    
C34   C51   S    
C12   C85   A    
C45   C75   A    
C26   C67   S    
C19   C21   A    
C24   C26   A    
C32   C61   A    
C38   C42   A    
C82   H47   S    
C17   H17   S    
C43   H24   S    
C11   C14   A    
C66   C69   S    
C24   H10   S    
C46   C48   A    
C10   H4    S    
C68   C74   S    
C81   N6    A    
C33   C36   A    
C55   H49   S    
C4    H34   S    
C69   C71   S    
C42   H22   S    
C3    C55   A    
C19   H8    S    
C73   H14   S    
C49   H27   S    
C29   C59   S    
C44   H25   S    
C49   C51   A    
C22   C25   A    
C4    C57   A    
C50   C52   A    
C86   H29   S    
C8    H2    S    
C34   C81   A    
C23   C80   A    
C44   C47   A    
C77   N3    A    
C82   N7    A    
C75   H40   S    
C16   H16   S    
N7    Ni3   S    
C48   H19   S    
C76   N2    A    
C1    H1    S    
C22   C28   A    
C40   C45   A    
C42   C44   A    
C32   C57   A    
C35   C48   A    
C7    H54   S    
N2    Ni1   S    
C60   Cl1   S    
C52   C54   A    
C5    C29   A    
C80   N5    A    
C79   H43   S    
C62   C85   S    
C66   C72   S    
C50   C53   A    
C25   C78   S    
C64   C67   A    
C20   H52   S    
N12   N16   A    
N12   Ni3   S    
C31   H45   S    
N3    Ni1   S    
C15   H6    S    
C71   C73   S    
C2    H30   S    
C78   C79   A    
C39   C43   A    
C64   H38   S    
C66   C73   S    
C6    C30   A    
C57   H50   S    
C51   C53   A    
C77   H42   S    
N16   Ni2   S    
C31   C60   A    
C56   C72   S    
N5    N10   A    
C41   C56   A    
C12   H12   S    
C61   Cl2   S    
C33   Cl3   S    
C70   H32   S    
C38   C54   S    
C29   C60   A    
C69   H31   S    
C40   H36   S    
C70   C73   S    
C8    C21   A    
C69   C74   S    
N5    Ni4   S    
N1    N7    A    
C6    H13   S    
C9    C11   A    
N13   Ni4   S    
C21   H53   S    
C32   H51   S    
N8    Ni4   S    
C41   N13   A    
C72   C74   S    
C18   H7    S    
C7    C20   A    
C16   C23   A    
C82   C84   A    
N6    N11   A    
C13   C15   A    
C3    H23   S    
C33   C47   A    
N15   Ni3   S    
C4    C6    A    
C17   C34   A    
C41   H37   S    
C17   N11   A    
C9    H3    S    
C14   H5    S    
C2    C63   A    
C35   C37   A    
C81   H46   S    
C83   N8    A    
C7    C9    A    
C22   H9    S    
C83   C85   A    
C50   H28   S    
C26   C28   A    
N10   Ni2   S    
C40   N12   A    
C3    C5    A    
C10   C13   A    
C65   H39   S    
C2    C58   A    
C79   N4    A    
N14   Ni4   S    
C25   C27   A    
C63   C84   S    
C59   C63   A    
C5    H11   S    
C46   H26   S    
N9    Ni2   S    
C65   C78   A    
N4    Ni2   S    
C36   C38   A    
C59   C86   A    
C37   C39   A    
C74   H15   S    
C36   H20   S    
C23   C52   S    
C39   C53   S    
N1    Ni1   S    
C11   C28   S    
C68   C71   S    
C30   C58   S    
C76   H41   S    
C18   C20   A    
C43   C46   A    
C37   H21   S    
C35   Cl4   S    
N8    N9    A    
C8    C10   A    
C47   H18   S    
C30   C61   A    
C64   N14   A    
C68   C70   S    
C66   H33   S    
C13   C27   S    
C70   C72   S    
C31   C55   A    
N3    N14   A    
C68   H35   S    
N4    N15   A    
C83   H48   S    
C49   C54   A    
