data_mof_unit_15641.cif
_audit_creation_date              2012-10-26T20:31:59-0400
_audit_creation_method            fapswitch 2.2
_symmetry_space_group_name_H-M    P1
_symmetry_Int_Tables_number       1
_space_group_crystal_system       triclinic
_cell_length_a                    10.678869
_cell_length_b                    10.809182
_cell_length_c                    9.630349
_cell_angle_alpha                 90.213092
_cell_angle_beta                  90.423165
_cell_angle_gamma                 93.607584
_cell_volume                      1109.38682745

loop_
_atom_site_label
_atom_site_type_symbol
_atom_type_description
_atom_site_fract_x
_atom_site_fract_y
_atom_site_fract_z
_atom_type_partial_charge
C1    C     C_R   0.493396 0.262251 0.499647 0.588109
C2    C     C_R   0.454274 0.935755 0.620891 -0.010063
C3    C     C_3   0.522906 0.933023 0.755287 -0.275280
C4    C     C_R   0.259607 0.498120 0.499083 0.577520
C5    C     C_3   0.527188 0.073551 0.756404 -0.216206
C6    C     C_R   0.602600 0.545037 0.075577 0.106894
C7    C     C_R   0.407801 0.439143 0.076254 0.051149
C8    C     C_R   0.408446 0.433142 0.929159 0.311591
C9    C     C_R   0.602542 0.548420 0.928589 0.175964
C10   C     C_3   0.656839 0.680850 0.938359 0.080117
C11   C     C_3   0.664357 0.669109 0.094946 -0.196201
C12   C     C_3   0.956311 0.472806 0.366431 -0.144299
C13   C     C_R   0.485911 0.736355 0.499332 0.540215
C14   C     C_R   0.740588 0.498826 0.499684 0.568431
C15   C     C_3   0.044857 0.518563 0.625307 -0.025227
C16   C     C_3   0.955052 0.408271 0.580583 0.266206
C17   C     C_3   0.877815 0.496043 0.496503 0.024141
C18   C     C_3   0.967463 0.606865 0.538080 -0.154258
C19   C     C_3   0.047398 0.583579 0.409129 -0.146070
C20   C     C_3   0.035066 0.384281 0.452107 -0.127546
C21   C     C_3   0.122939 0.495758 0.496152 -0.012250
C22   C     C_R   0.458240 0.062687 0.621840 0.060324
C23   C     C_R   0.467832 0.128661 0.498838 -0.003316
C24   C     C_R   0.436277 0.063738 0.375665 -0.133826
C25   C     C_R   0.421792 0.933173 0.374731 0.195767
C26   C     C_R   0.454263 0.867411 0.497337 0.003428
Cu1   Cu    Cu3+1 0.499990 0.499980 0.640670 1.092729
Cu2   Cu    Cu3+1 0.500010 0.500020 0.359330 1.016313
H1    H     H_    0.617076 0.898267 0.744600 0.201990
H2    H     H_    0.086294 0.656580 0.338205 0.210012
H3    H     H_    0.918469 0.454429 0.260139 0.171982
H4    H     H_    0.065747 0.292966 0.417486 0.144457
H5    H     H_    0.422134 0.114151 0.280345 0.163624
H6    H     H_    0.461288 0.890681 0.836366 0.205116
H7    H     H_    0.043458 0.162647 0.658493 0.357501
H8    H     H_    0.127183 0.377751 0.994870 0.363828
H9    H     H_    0.736940 0.730610 0.658363 0.333487
H10   H     H_    0.474914 0.967909 0.083717 0.340389
H11   H     H_    0.470208 0.111477 0.840440 0.204896
H12   H     H_    0.623367 0.117506 0.746908 0.223261
H13   H     H_    0.332960 0.392012 0.134628 0.148390
H14   H     H_    0.588661 0.746996 0.905624 0.124103
H15   H     H_    0.760006 0.662340 0.139518 0.170884
H16   H     H_    0.606461 0.733014 0.152035 0.202162
H17   H     H_    0.083076 0.543992 0.729208 0.236010
H18   H     H_    0.946645 0.702302 0.565575 0.211033
N1    N     N_R   0.500800 0.500930 0.147930 -0.261776
N2    N     N_R   0.500800 0.500890 0.852020 -0.272157
O1    O     O_R   0.500000 0.319640 0.618810 -0.446022
O2    O     O_2   0.802696 0.202652 0.595398 -0.328334
O3    O     O_3   0.006764 0.198158 0.742779 -0.383152
O4    O     O_2   0.285989 0.288728 0.718765 -0.248638
O5    O     O_2   0.282257 0.213792 0.954228 -0.301420
O6    O     O_3   0.148350 0.396242 0.896794 -0.484590
O7    O     O_2   0.888593 0.793332 0.961928 -0.194857
O8    O     O_2   0.871766 0.590459 0.848397 -0.256545
O9    O     O_3   0.798535 0.782566 0.713404 -0.533058
O10   O     O_2   0.305149 0.732828 0.242255 -0.240456
O11   O     O_2   0.238864 0.937891 0.185356 -0.220518
O12   O     O_R   0.500010 0.319680 0.381230 -0.521612
O13   O     O_3   0.452378 0.878017 0.092454 -0.562506
O14   O     O_R   0.316850 0.499950 0.618770 -0.450859
O15   O     O_R   0.316860 0.499990 0.381190 -0.493503
O16   O     O_R   0.499990 0.680320 0.618770 -0.542922
O17   O     O_R   0.500000 0.680360 0.381190 -0.461610
O18   O     O_R   0.683140 0.500010 0.618810 -0.458725
O19   O     O_R   0.683150 0.500050 0.381230 -0.521729
O20   O     O_2   0.821346 0.331934 0.804905 -0.205126
S1    S     S_3+6 0.891338 0.283177 0.683777 0.076621
S2    S     S_3+6 0.283412 0.329197 0.867236 0.037655
S3    S     S_3+6 0.809616 0.710018 0.866150 0.020558
S4    S     S_3+6 0.350025 0.865955 0.223481 0.027800

loop_
_geom_bond_atom_site_label_1
_geom_bond_atom_site_label_2
_ccdc_geom_bond_type
Cu1   N2    S    
C15   C18   S    
Cu2   N1    S    
C10   H14   S    
C6    C9    A    
C7    C8    A    
C13   O17   A    
C4    O15   A    
C19   C21   S    
O2    S1    D    
C14   O19   A    
C15   C16   S    
C4    O14   A    
C18   C19   S    
C3    H1    S    
C5    C22   S    
C16   C17   S    
C12   C17   S    
C2    C22   A    
C23   C24   A    
C11   H15   S    
C9    C10   S    
O11   S4    D    
H10   O13   S    
C10   S3    S    
C14   C17   S    
O5    S2    D    
C18   H18   S    
Cu2   O12   S    
C6    N1    A    
Cu2   O19   S    
O4    S2    D    
C24   C25   A    
Cu1   O16   S    
C1    O12   A    
C6    C11   S    
O20   S1    D    
C3    H6    S    
C25   C26   A    
C7    N1    A    
C8    N2    A    
Cu1   O14   S    
O6    S2    S    
C16   C20   S    
O8    S3    D    
C12   C20   S    
C17   C18   S    
C14   O18   A    
C11   H16   S    
C2    C26   A    
C25   S4    S    
O9    S3    S    
O13   S4    S    
C1    C23   S    
C5    H11   S    
C12   H3    S    
H7    O3    S    
C13   C26   S    
C15   H17   S    
C20   H4    S    
C16   S1    S    
C3    C5    S    
C8    S2    S    
C24   H5    S    
C2    C3    S    
Cu1   O18   S    
C4    C21   S    
O10   S4    D    
C13   O16   A    
C12   C19   S    
Cu2   O17   S    
C7    H13   S    
O7    S3    D    
H8    O6    S    
C10   C11   S    
Cu2   O15   S    
C15   C21   S    
C20   C21   S    
C9    N2    A    
C5    H12   S    
Cu1   Cu2   S    
C22   C23   A    
O3    S1    S    
C19   H2    S    
C1    O1    A    
H9    O9    S    
Cu1   O1    S    
