data_mof_unit_27005.cif
_audit_creation_date              2013-03-05T16:14:28-0500
_audit_creation_method            fapswitch 2.2
_symmetry_space_group_name_H-M    P1
_symmetry_Int_Tables_number       1
_space_group_crystal_system       triclinic
_cell_length_a                    8.224003
_cell_length_b                    17.47114
_cell_length_c                    26.90111
_cell_angle_alpha                 99.446393
_cell_angle_beta                  92.696114
_cell_angle_gamma                 81.449963
_cell_volume                      3769.42082912

loop_
_atom_site_label
_atom_site_type_symbol
_atom_site_description
_atom_site_fract_x
_atom_site_fract_y
_atom_site_fract_z
_atom_type_partial_charge
P1    P     P_3+3 0.071770 0.565500 0.613330 0.467220
O1    O     O_2   0.906370 0.542040 0.619810 -0.410458
O2    O     O_3   0.138370 0.541980 0.559630 -0.344639
O3    O     O_3   0.686580 0.398330 0.583860 -0.390816
O4    O     O_2   0.849873 0.432301 0.670365 -0.405574
O5    O     O_3   0.067372 0.667897 0.623243 -0.608066
O6    O     O_3   0.670290 0.319807 0.666667 -0.561107
H1    H     H_    0.903426 0.278972 0.639656 0.168246
C1    C     C_3   0.784234 0.184286 0.654110 -0.972804
H2    H     H_    0.872738 0.139747 0.631122 0.255660
H3    H     H_    0.824821 0.189050 0.694323 0.277884
P2    P     P_3+3 0.664870 0.318630 0.453960 0.542543
P3    P     P_3+3 0.146286 0.256530 0.550258 0.456096
O7    O     O_2   0.844570 0.306830 0.467970 -0.326018
O8    O     O_3   0.101900 0.357890 0.557750 -0.382059
O9    O     O_2   0.985903 0.223755 0.531444 -0.365965
O10   O     O_3   0.658301 0.293117 0.388339 -0.525352
O11   O     O_3   0.180045 0.229154 0.609929 -0.541629
C2    C     C_3   0.299819 0.270632 0.635837 0.340880
H4    H     H_    0.258124 0.334796 0.640665 0.112885
H5    H     H_    0.417700 0.255943 0.615564 0.079809
C3    C     C_3   0.327746 0.247361 0.687906 -0.812514
H6    H     H_    0.212799 0.264051 0.709590 0.257626
H7    H     H_    0.365813 0.183082 0.684570 0.245434
C4    C     C_3   0.235346 0.295540 0.405498 0.389071
H8    H     H_    0.341507 0.325244 0.419814 0.097121
H9    H     H_    0.152434 0.295160 0.436758 0.118113
C5    C     C_3   0.297246 0.211642 0.381422 -0.789894
H10   H     H_    0.374727 0.211998 0.348748 0.266880
H11   H     H_    0.371838 0.179129 0.408440 0.199863
H12   H     H_    0.191729 0.180098 0.368293 0.296168
Ba1   Ba    Ba6+2 0.860160 0.462360 0.521850 1.589192
C6    C     C_3   0.910167 0.711536 0.627789 0.845398
H13   H     H_    0.817110 0.678405 0.607511 0.024307
C7    C     C_3   0.871379 0.734170 0.683669 -1.033663
H14   H     H_    0.865704 0.680938 0.700683 0.233487
H15   H     H_    0.753372 0.774168 0.688262 0.265120
H16   H     H_    0.965689 0.767065 0.704150 0.256341
C8    C     C_3   0.699741 0.352810 0.364898 0.240976
H17   H     H_    0.825352 0.364766 0.376630 0.111701
H18   H     H_    0.610141 0.406896 0.374548 0.068931
C9    C     C_3   0.691796 0.325708 0.307653 -0.111294
H19   H     H_    0.721987 0.371928 0.287517 0.067556
H20   H     H_    0.563764 0.315541 0.296423 0.119628
P4    P     P_3+3 0.117940 0.434440 0.386660 0.474536
O12   O     O_2   0.283330 0.457940 0.380160 -0.381045
O13   O     O_3   0.051340 0.457960 0.440360 -0.379184
O14   O     O_3   0.503130 0.601610 0.416130 -0.381118
O15   O     O_3   0.148067 0.332666 0.368513 -0.558690
P5    P     P_3+3 0.053327 0.743588 0.444223 0.478792
O16   O     O_3   0.616890 0.595000 0.528820 -0.397430
O17   O     O_3   0.087820 0.642040 0.442240 -0.389834
O18   O     O_2   0.191882 0.779214 0.476640 -0.351198
O19   O     O_3   0.078812 0.766287 0.384433 -0.555921
Ba2   Ba    Ba6+2 0.329680 0.537570 0.478140 1.584568
P6    P     P_3+3 0.680400 0.411398 0.649523 0.444946
C10   C     C_3   0.777594 0.262966 0.636408 0.488576
H21   H     H_    0.733404 0.256378 0.596445 0.091351
H22   H     H_    0.661095 0.164921 0.649749 0.254219
O20   O     O_3   0.572820 0.404940 0.471170 -0.392600
C11   C     C_3   0.491515 0.656174 0.637159 0.321822
H23   H     H_    0.377262 0.635218 0.620717 0.127170
H24   H     H_    0.594859 0.607287 0.630473 0.069355
C12   C     C_3   0.473792 0.681122 0.694638 -0.478224
H25   H     H_    0.479346 0.628808 0.713017 0.136933
H26   H     H_    0.576814 0.710304 0.711854 0.207159
P7    P     P_3+3 0.529857 0.693025 0.549268 0.476394
O21   O     O_2   0.345130 0.693150 0.532000 -0.292931
O22   O     O_3   0.525564 0.719347 0.615150 -0.568986
H27   H     H_    0.425843 0.277631 0.708522 0.286870
C13   C     C_3   0.018407 0.709935 0.347744 0.322578
H28   H     H_    0.077779 0.650015 0.352074 0.120319
H29   H     H_    0.883140 0.713070 0.350471 0.052315
C14   C     C_3   0.060805 0.724019 0.295521 -0.341087
H30   H     H_    0.186196 0.740832 0.295964 0.211645
H31   H     H_    0.063756 0.667747 0.269282 0.164144
P8    P     P_3+3 0.513490 0.589794 0.350793 0.451015
C15   C     C_3   0.517162 0.738741 0.374703 0.455904
H32   H     H_    0.635377 0.724820 0.395208 0.009558
O23   O     O_2   0.348890 0.563104 0.330429 -0.399375
O24   O     O_3   0.503069 0.681844 0.331975 -0.520279
H33   H     H_    0.412816 0.742671 0.400214 0.156566
H34   H     H_    0.523542 0.863849 0.391542 0.231486
C16   C     C_3   0.512974 0.818129 0.358125 -0.946311
H35   H     H_    0.395112 0.833698 0.337742 0.269469
H36   H     H_    0.616824 0.816387 0.332821 0.272080
C17   C     C_R   0.955407 0.428701 0.167822 0.572735
O25   O     O_2   0.957397 0.366840 0.183612 -0.540577
N1    N     N_R   0.911969 0.499061 0.199546 -0.162367
C18   C     C_R   0.893027 0.568802 0.180246 0.499871
C19   C     C_2   0.729064 0.525382 0.270796 -0.198191
C20   C     C_3   0.693619 0.519311 0.324492 0.118749
C21   C     C_1   0.986033 0.481404 0.338900 0.202886
C22   C     C_2   0.018348 0.472643 0.289217 0.072703
C23   C     C_2   0.882240 0.500101 0.252847 0.101219
C24   C     C_R   0.990631 0.499055 0.098473 -0.066968
C25   C     C_R   0.998526 0.427880 0.117310 -0.101488
C26   C     C_R   0.047183 0.357455 0.084955 -0.053758
C27   C     C_R   0.933456 0.569766 0.129830 -0.041773
C28   C     C_2   0.848031 0.523439 0.356974 -0.458373
H37   H     H_    0.047388 0.301495 0.097353 0.184760
C29   C     C_2   0.357724 0.482069 0.639727 -0.451540
C30   C     C_R   0.170366 0.430236 0.969637 -0.112265
C31   C     C_R   0.049184 0.568979 0.975970 0.058966
C32   C     C_R   0.130120 0.499394 0.947318 0.071253
C33   C     C_R   0.276015 0.366087 0.942875 0.299273
C34   C     C_R   0.312198 0.366146 0.892547 -0.172103
C35   C     C_R   0.260101 0.431269 0.868562 -0.097369
C36   C     C_R   0.172658 0.499152 0.896230 -0.095641
C37   C     C_R   0.128710 0.566622 0.872923 -0.098558
C38   C     C_R   0.170586 0.563358 0.821636 0.522970
N2    N     N_R   0.256142 0.496012 0.794920 -0.166127
C39   C     C_R   0.300819 0.430520 0.817957 0.564950
C40   C     C_2   0.459731 0.477287 0.728307 -0.184701
C41   C     C_3   0.505104 0.484791 0.675257 0.152709
C42   C     C_1   0.212516 0.515714 0.656646 0.269074
C43   C     C_2   0.171175 0.515832 0.703858 -0.210664
C44   C     C_2   0.300438 0.494781 0.742700 0.130267
O26   O     O_2   0.375349 0.371069 0.794238 -0.597037
C45   C     C_R   0.105128 0.428464 0.017837 0.053976
C46   C     C_R   0.037610 0.499404 0.047951 0.091509
C47   C     C_R   0.015167 0.570467 0.027821 0.062291
C48   C     C_R   0.097135 0.357734 0.036101 -0.091063
H38   H     H_    0.557031 0.464901 0.755779 0.159457
H39   H     H_    0.390290 0.315947 0.872854 0.210027
H40   H     H_    0.124695 0.301446 0.012466 0.164182
O27   O     O_2   0.840661 0.630190 0.206970 -0.608631
C49   C     C_R   0.919452 0.640141 0.110292 -0.088599
H41   H     H_    0.628583 0.542998 0.245535 0.169027
H42   H     H_    0.877927 0.695688 0.133630 0.161277
C50   C     C_R   0.004160 0.634988 0.951725 -0.298013
C51   C     C_R   0.043610 0.634975 0.901622 0.234064
O28   O     O_2   0.132274 0.620698 0.800799 -0.590639
C52   C     C_R   0.958511 0.640587 0.060448 -0.204795
H43   H     H_    0.934896 0.688135 0.970685 0.134629
H44   H     H_    0.043733 0.531558 0.714785 0.172643
H45   H     H_    0.947530 0.697452 0.048999 0.133526
H46   H     H_    0.850795 0.568209 0.390050 0.162199
H47   H     H_    0.372398 0.456390 0.600334 0.169420
C53   C     C_2   0.447634 0.272270 0.510065 -0.551348
C54   C     C_3   0.318352 0.218415 0.506897 0.213688
C55   C     C_2   0.399077 0.138096 0.514065 -0.241775
C56   C     C_2   0.552737 0.112873 0.496660 -0.042860
C57   C     C_2   0.642682 0.169243 0.475657 0.214965
C58   C     C_1   0.581153 0.245833 0.483407 0.193194
C59   C     C_R   0.785559 0.861200 0.473667 -0.244769
C60   C     C_R   0.854051 0.782844 0.472343 0.304323
C61   C     C_R   0.621660 0.759680 0.516870 0.261010
C62   C     C_R   0.551318 0.837745 0.518108 -0.165853
C63   C     C_R   0.632874 0.889185 0.496652 0.108575
C64   C     C_2   0.635050 0.031403 0.497444 -0.036794
C65   C     C_2   0.551808 0.970626 0.497341 -0.173489
C66   C     C_R   0.771293 0.732341 0.493493 -0.433679
H48   H     H_    0.418558 0.979993 0.498028 0.142002
H49   H     H_    0.849395 0.898899 0.455818 0.149827
H50   H     H_    0.768370 0.021544 0.496561 0.147744
H51   H     H_    0.329651 0.100841 0.530540 0.168464
H52   H     H_    0.435134 0.858675 0.536554 0.159151
H53   H     H_    0.442790 0.324442 0.538408 0.175392
H54   H     H_    0.825973 0.671993 0.493224 0.167056
N3    N     N_R   0.909896 0.782928 0.605771 0.204273
O29   O     O_R   0.032654 0.790089 0.578653 -0.378698
O30   O     O_R   0.788812 0.840885 0.613889 -0.425865
N4    N     N_R   0.804763 0.253798 0.291176 0.300963
O31   O     O_R   0.904794 0.220050 0.322684 -0.304714
O32   O     O_R   0.808108 0.223918 0.243593 -0.314234
N5    N     N_2   0.320731 0.731003 0.708208 -0.082816
H55   H     H_    0.219407 0.702238 0.704033 0.223506
C67   C     C_3   0.297332 0.808754 0.694600 -0.608989
H56   H     H_    0.263442 0.805778 0.653964 0.279800
H57   H     H_    0.410906 0.836492 0.702890 0.237421
H58   H     H_    0.196257 0.845948 0.716935 0.204066
N6    N     N_2   0.940110 0.782836 0.276919 -0.088910
H59   H     H_    0.939083 0.777870 0.238158 0.216066
C68   C     C_3   0.941011 0.863025 0.301521 -0.697308
H60   H     H_    0.849669 0.902692 0.282454 0.240094
H61   H     H_    0.064615 0.880713 0.299450 0.239400
H62   H     H_    0.905302 0.869971 0.341461 0.265257
N7    N     N_2   0.164789 0.424819 0.269126 -0.076109
H63   H     H_    0.225260 0.383190 0.289049 0.216214
C69   C     C_3   0.268993 0.457779 0.238758 -0.772223
H64   H     H_    0.278581 0.422321 0.200576 0.242228
H65   H     H_    0.395083 0.455021 0.255634 0.233355
H66   H     H_    0.221090 0.519732 0.235501 0.231099
N8    N     N_R   0.367212 0.305859 0.967714 0.227517
O33   O     O_R   0.443697 0.324821 0.010421 -0.377889
O34   O     O_R   0.396427 0.234141 0.944148 -0.379484
N9    N     N_2   0.996454 0.704991 0.880716 -0.078417
H67   H     H_    0.880149 0.732793 0.890520 0.164498
C70   C     C_3   0.116866 0.758547 0.888967 -0.758704
H68   H     H_    0.129703 0.781236 0.929821 0.219472
H69   H     H_    0.076647 0.808697 0.868599 0.245505
H70   H     H_    0.238251 0.728834 0.874492 0.257306
N10   N     N_R   0.750201 0.137443 0.434255 0.254036
O35   O     O_R   0.703255 0.085861 0.397943 -0.381150
O36   O     O_R   0.902163 0.150481 0.436301 -0.338602

loop_
_geom_bond_atom_site_label_1
_geom_bond_atom_site_label_2
_geom_bond_distance
_ccdc_geom_bond_type
P5    C60   1.827720 S    
C35   C39   1.414665 A    
O14   Ba2   2.716679 S    
N10   O36   1.300309 A    
C17   O25   1.222117 D    
P8    C20   1.865927 S    
C21   C22   1.354446 D    
O3    Ba1   2.717235 S    
C67   H56   1.110097 S    
O4    P6    1.549481 D    
C31   C32   1.419579 A    
C30   C45   1.433057 A    
P4    C21   1.857689 S    
C51   N9    1.423843 S    
C52   H45   1.077592 S    
Ba2   O21   2.880356 S    
N8    O33   1.301679 A    
C62   C63   1.405929 A    
O8    Ba1   2.745088 S    
C8    H18   1.110719 S    
C69   H64   1.108704 S    
C35   C36   1.408796 A    
C4    C5    1.524703 S    
P5    O19   1.747569 S    
C14   H31   1.110010 S    
C24   C46   1.431556 A    
C3    H7    1.110082 S    
N9    C70   1.446392 S    
C5    H10   1.110984 S    
C7    H15   1.107575 S    
C16   H36   1.110788 S    
O11   C2    1.401087 S    
C12   N5    1.445635 S    
C50   H43   1.077672 S    
C53   H53   1.085219 S    
C9    N4    1.465224 S    
N8    O34   1.301421 A    
C57   N10   1.440297 S    
C33   C34   1.399994 A    
C56   C57   1.508297 S    
C24   C27   1.407605 A    
C42   C43   1.329736 D    
O1    Ba1   2.808153 S    
P1    O1    1.503397 D    
O10   C8    1.394006 S    
C11   H24   1.110082 S    
C37   C38   1.427744 A    
C47   C52   1.415655 A    
C29   C41   1.509334 S    
C70   H70   1.110764 S    
C6    C7    1.526533 S    
C59   C63   1.410454 A    
O2    Ba2   2.742248 S    
O19   C13   1.403755 S    
C2    H4    1.110493 S    
C31   C50   1.410564 A    
O12   Ba2   2.808486 S    
P1    O2    1.538945 S    
P5    O17   1.746898 S    
C18   O27   1.221180 D    
C37   C51   1.418330 A    
P1    C42   1.833204 S    
P3    C54   1.851106 S    
C8    C9    1.536315 S    
C62   H52   1.083556 S    
Ba1   Ba2   4.523507 S    
C1    C10   1.519681 S    
C11   H23   1.105710 S    
C19   C20   1.510579 S    
C45   C48   1.413931 A    
C29   H47   1.085684 S    
C40   H38   1.085664 S    
C69   H65   1.109847 S    
N10   O35   1.301724 A    
C39   O26   1.221309 D    
Ba2   O20   2.813862 S    
P2    Ba1   3.411525 S    
C67   H57   1.111994 S    
C22   C23   1.526994 S    
C9    H20   1.113360 S    
O6    P6    1.750911 S    
N2    C39   1.383693 Am   
N3    O30   1.308691 A    
C25   C26   1.402304 A    
C68   H62   1.109785 S    
P4    O13   1.538945 S    
C53   C54   1.511815 S    
C26   C48   1.396220 A    
P5    O18   1.544532 D    
C14   H30   1.112476 S    
C59   H49   1.081809 S    
P7    O21   1.567393 D    
C2    C3    1.519525 S    
C16   H35   1.111177 S    
C34   H39   1.083655 S    
C14   N6    1.452722 S    
C68   H61   1.111892 S    
O7    Ba1   2.879969 S    
N5    H55   1.027967 S    
C13   H29   1.110917 S    
C15   H32   1.109903 S    
C38   O28   1.221030 D    
C48   H40   1.079243 S    
C17   C25   1.417659 A    
C4    H8    1.103351 S    
P4    O12   1.503727 D    
C19   C23   1.355333 D    
P1    Ba1   3.377237 S    
P1    O5    1.760109 S    
N5    C67   1.447466 S    
N9    H67   1.031459 S    
P7    O22   1.757050 S    
C7    H14   1.109622 S    
C12   H26   1.098316 S    
O14   P8    1.740379 S    
N1    C23   1.462567 S    
C11   C12   1.543768 S    
C6    N3    1.465656 S    
Ba1   O16   2.814617 S    
C49   C52   1.394946 A    
H1    C10   1.107371 S    
C15   H33   1.111098 S    
H34   C16   1.109644 S    
P4    O15   1.748375 S    
C64   C65   1.345792 D    
C24   C25   1.409612 A    
C7    H16   1.106262 S    
P2    C58   1.833451 S    
C6    H13   1.098684 S    
C30   C32   1.424950 A    
O16   P7    1.763871 S    
C64   H50   1.085044 S    
C61   C62   1.395797 A    
C1    H3    1.110541 S    
C21   C28   1.323129 D    
C46   C47   1.418403 A    
C40   C44   1.359903 D    
N6    C68   1.448836 S    
C28   H46   1.085798 S    
P3    O11   1.747333 S    
C65   H48   1.084245 S    
P3    O8    1.734195 S    
Ba1   O13   2.741631 S    
C63   C65   1.476427 S    
C70   H68   1.111145 S    
C9    H19   1.105902 S    
Ba1   O20   2.898644 S    
C34   C35   1.401580 A    
C50   C51   1.401035 A    
C18   C27   1.414861 A    
C8    H17   1.105546 S    
C45   C46   1.417320 A    
C20   C28   1.511124 S    
O13   Ba2   2.910519 S    
C59   C60   1.396146 A    
C1    H2    1.110725 S    
P8    O23   1.544030 D    
C11   O22   1.403253 S    
C32   C36   1.433204 A    
N4    O31   1.302702 A    
C70   H69   1.109790 S    
C56   C64   1.485491 S    
C69   H66   1.111541 S    
C38   N2    1.385569 Am   
C2    H5    1.110380 S    
C55   C56   1.353770 D    
C5    H12   1.109491 S    
C33   N8    1.437084 S    
P2    O7    1.500368 D    
C57   C58   1.344268 D    
C49   H42   1.083619 S    
C53   C58   1.322083 D    
C13   C14   1.529966 S    
O17   Ba2   2.745688 S    
C40   C41   1.522867 S    
C27   C49   1.401988 A    
C19   H41   1.086073 S    
C4    H9    1.108723 S    
C26   H37   1.083338 S    
O5    C6    1.399600 S    
C12   H25   1.102575 S    
C66   H54   1.082014 S    
C5    H11   1.103279 S    
C13   H28   1.109319 S    
C68   H60   1.110548 S    
N3    O29   1.305313 A    
C43   C44   1.504181 S    
P2    O10   1.748621 S    
N2    C44   1.463716 S    
C15   O24   1.403370 S    
C10   H21   1.111817 S    
N4    O32   1.300554 A    
C67   H58   1.110156 S    
P6    C41   1.858657 S    
C3    H27   1.107520 S    
C30   C33   1.426097 A    
O16   Ba2   2.897811 S    
C22   N7    1.433336 S    
O2    Ba1   2.909713 S    
C60   C66   1.394713 A    
C4    O15   1.389980 S    
C29   C42   1.316568 D    
N6    H59   1.031765 S    
N7    H63   1.029013 S    
P2    O20   1.589234 S    
C15   C16   1.520291 S    
C31   C47   1.430783 A    
P4    Ba2   3.377751 S    
P8    O24   1.752751 S    
C61   C66   1.391905 A    
P3    O9    1.546102 D    
C36   C37   1.416979 A    
P7    C61   1.828173 S    
C17   N1    1.385928 Am   
C3    H6    1.110414 S    
C55   H51   1.084014 S    
C1    H22   1.109713 S    
N1    C18   1.386401 Am   
C54   C55   1.498937 S    
C43   H44   1.084994 S    
O6    C10   1.403271 S    
O3    P6    1.745707 S    
N7    C69   1.449265 S    
