data_mof_unit_11542.cif
_audit_creation_date              2012-12-11T16:24:02-0500
_audit_creation_method            fapswitch 2.2
_symmetry_space_group_name_H-M    P1
_symmetry_Int_Tables_number       1
_space_group_crystal_system       triclinic
_cell_length_a                    14.727896
_cell_length_b                    14.719143
_cell_length_c                    33.148875
_cell_angle_alpha                 95.767379
_cell_angle_beta                  96.238536
_cell_angle_gamma                 61.127372
_cell_volume                      6246.02663848

loop_
_atom_site_label
_atom_site_type_symbol
_atom_type_description
_atom_site_fract_x
_atom_site_fract_y
_atom_site_fract_z
_atom_type_partial_charge
C1    C     C_R   0.388865 0.703407 0.446798 0.545695
C2    C     C_R   0.316447 0.344843 0.310557 -0.003883
C3    C     C_R   0.403172 0.264051 0.329107 -0.126513
C4    C     C_R   0.424540 0.268619 0.370939 0.069089
C5    C     C_R   0.386559 0.254740 0.168342 -0.134817
C6    C     C_R   0.384436 0.236451 0.126295 0.053834
C7    C     C_R   0.212665 0.389474 0.120456 0.143124
C8    C     C_R   0.215198 0.404727 0.163268 0.152223
C9    C     C_R   0.300806 0.333816 0.186933 -0.004102
C10   C     C_1   0.302688 0.340460 0.230510 -0.005435
C11   C     C_1   0.306650 0.343374 0.266985 0.013038
C12   C     C_R   0.403236 0.384307 0.434760 0.559252
C13   C     C_R   0.293328 0.298470 0.101887 0.013669
C14   C     C_R   0.771472 0.367481 0.413654 0.003022
C15   C     C_R   0.804677 0.430882 0.397490 0.071627
C16   C     C_R   0.814326 0.424310 0.355401 0.104791
C17   C     C_R   0.806734 0.343550 0.331156 -0.009480
C18   C     C_R   0.801441 0.265188 0.349808 -0.126117
C19   C     C_R   0.785024 0.275996 0.391041 0.069681
C20   C     C_R   0.819104 0.324397 0.205124 0.335726
C21   C     C_R   0.809959 0.336324 0.286867 0.363250
C22   C     C_R   0.812929 0.403497 0.138980 0.134890
C23   C     C_R   0.706040 0.407508 0.449032 0.565648
C24   C     C_R   0.844261 0.386842 0.098991 0.105466
C25   C     C_R   0.908335 0.200752 0.102494 0.093034
C26   C     C_R   0.872704 0.219002 0.141176 -0.106884
C27   C     C_R   0.831296 0.317707 0.160935 -0.016068
C28   C     C_R   0.901374 0.284163 0.081719 -0.002051
C29   C     C_R   0.364267 0.765791 0.410531 -0.043483
C30   C     C_R   0.274181 0.787251 0.384417 0.106384
C31   C     C_R   0.272382 0.804622 0.343470 0.110890
C32   C     C_R   0.357131 0.808336 0.329135 -0.003349
C33   C     C_R   0.437643 0.806442 0.356741 0.134443
C34   C     C_R   0.392576 0.703277 0.561063 0.558144
C35   C     C_R   0.439168 0.788959 0.397835 0.132326
C36   C     C_R   0.353846 0.827841 0.204651 0.351203
C37   C     C_R   0.359490 0.817415 0.285712 0.325028
C38   C     C_R   0.273993 0.816815 0.135656 0.144216
C39   C     C_R   0.253440 0.844216 0.094958 0.149928
C40   C     C_R   0.381961 0.904820 0.104802 -0.145117
C41   C     C_R   0.405705 0.874123 0.144707 0.107992
C42   C     C_R   0.347921 0.835052 0.160791 0.043031
C43   C     C_R   0.301021 0.897554 0.080536 -0.034764
C44   C     C_R   0.371499 0.367515 0.584858 -0.024511
C45   C     C_R   0.407244 0.388324 0.548897 0.548249
C46   C     C_R   0.294701 0.450232 0.606749 -0.121702
C47   C     C_R   0.278242 0.438369 0.646112 0.112461
C48   C     C_R   0.336588 0.340447 0.663243 0.078026
C49   C     C_R   0.407126 0.254351 0.639777 0.094893
C50   C     C_R   0.424546 0.269027 0.600869 -0.115684
C51   C     C_R   0.321144 0.334547 0.787635 0.330037
C52   C     C_R   0.330699 0.331349 0.706422 0.363838
C53   C     C_R   0.217892 0.395339 0.848091 -0.093913
C54   C     C_R   0.204390 0.385607 0.888265 0.115553
C55   C     C_R   0.391813 0.268853 0.898228 0.116575
C56   C     C_R   0.704499 0.411534 0.562262 0.572983
C57   C     C_R   0.401914 0.277848 0.857249 -0.083901
C58   C     C_R   0.314224 0.335959 0.831663 -0.024011
C59   C     C_R   0.290376 0.311731 0.911852 0.023422
C60   C     C_R   0.762521 0.376306 0.602331 -0.020041
C61   C     C_R   0.816580 0.427413 0.622676 0.099164
C62   C     C_R   0.834592 0.426440 0.665337 0.101176
C63   C     C_R   0.802291 0.371310 0.687086 0.024831
C64   C     C_R   0.764094 0.307289 0.666546 0.126424
C65   C     C_R   0.749016 0.305368 0.623877 0.062062
C66   C     C_R   0.903010 0.238053 0.818843 -0.111454
C67   C     C_R   0.361130 0.358960 0.394704 -0.003835
C68   C     C_R   0.929035 0.210413 0.859451 0.100554
C69   C     C_R   0.831616 0.394916 0.880874 0.084712
C70   C     C_R   0.804546 0.420499 0.839920 0.136764
C71   C     C_R   0.845838 0.341657 0.809136 -0.017780
C72   C     C_1   0.827815 0.362702 0.766827 0.006398
C73   C     C_1   0.816016 0.371199 0.730716 0.063877
C74   C     C_R   0.901181 0.290800 0.890727 -0.003959
C75   C     C_R   0.374503 0.755313 0.602538 -0.006165
C76   C     C_R   0.274924 0.796575 0.617747 0.064477
C77   C     C_R   0.265023 0.807329 0.659468 -0.141455
C78   C     C_R   0.262843 0.430968 0.376868 0.087127
C79   C     C_R   0.352280 0.777632 0.686571 -0.015624
C80   C     C_R   0.449663 0.748441 0.672495 0.118200
C81   C     C_R   0.459731 0.743335 0.630387 0.070984
C82   C     C_R   0.351099 0.907790 0.823052 0.118062
C83   C     C_R   0.339268 0.943637 0.863749 0.097757
C84   C     C_R   0.274687 0.823829 0.874784 0.083978
C85   C     C_R   0.289472 0.786056 0.833889 0.116288
C86   C     C_R   0.323768 0.831507 0.807885 -0.021729
C87   C     C_1   0.330591 0.803090 0.765227 0.017538
C88   C     C_1   0.339016 0.788013 0.729243 0.021172
C89   C     C_R   0.242020 0.425189 0.334307 0.108960
C90   C     C_R   0.294029 0.907179 0.889502 -0.017819
C91   C     C_R   0.962305 0.264531 0.045645 0.559239
C92   C     C_R   0.273677 0.260536 0.060016 0.556502
C93   C     C_R   0.260199 0.957895 0.043567 0.543744
C94   C     C_R   0.959748 0.268986 0.931178 0.576955
C95   C     C_R   0.271592 0.266579 0.946182 0.526424
C96   C     C_R   0.257098 0.963515 0.929171 0.575064
Cr1   Cr    Cr6+3 0.576280 0.580550 0.506370 1.072208
Cr2   Cr    Cr6+3 0.346780 0.572400 0.496520 1.108676
Cr3   Cr    Cr6+3 0.576960 0.347070 0.497150 1.124358
Cr4   Cr    Cr6+3 0.087320 0.083240 0.984860 1.020272
Cr5   Cr    Cr6+3 0.087720 0.316210 0.996740 1.074348
Cr6   Cr    Cr6+3 0.317350 0.090340 0.995890 1.041961
H1    H     H_    0.806899 0.196987 0.332060 0.162936
H2    H     H_    0.883127 0.153082 0.156883 0.161537
H3    H     H_    0.454896 0.204635 0.186879 0.141477
H4    H     H_    0.422486 0.941451 0.093920 0.176066
H5    H     H_    0.253519 0.526961 0.594851 0.157910
H6    H     H_    0.482465 0.204030 0.583735 0.166890
H7    H     H_    0.455751 0.197578 0.310814 0.138211
H8    H     H_    0.152707 0.447380 0.828937 0.150345
H9    H     H_    0.477183 0.238128 0.844779 0.145148
H10   H     H_    0.927416 0.179277 0.794111 0.135107
H11   H     H_    0.188908 0.836872 0.670808 0.147477
N1    N     N_R   0.749171 0.412592 0.224390 -0.220058
N2    N     N_R   0.237721 0.379190 0.723102 -0.162295
N3    N     N_R   0.418869 0.283926 0.730902 -0.223010
N4    N     N_R   0.414207 0.285021 0.770811 -0.236093
N5    N     N_R   0.744569 0.418492 0.264501 -0.184435
N6    N     N_R   0.877703 0.246965 0.267650 -0.207953
N7    N     N_R   0.882383 0.241364 0.227581 -0.227024
N8    N     N_R   0.428838 0.743005 0.223295 -0.204168
N9    N     N_R   0.431294 0.737741 0.263293 -0.227223
N10   N     N_R   0.285790 0.902735 0.267020 -0.238773
N11   N     N_R   0.283019 0.907801 0.227108 -0.245461
N12   N     N_R   0.233111 0.380364 0.762921 -0.217543
O1    O     O_R   0.679450 0.499830 0.463150 -0.503802
O2    O     O_R   0.356040 0.477400 0.534170 -0.497866
O3    O     O_R   0.495910 0.323070 0.537100 -0.485420
O4    O     O_R   0.663920 0.359620 0.542290 -0.467017
O5    O     O_3   0.500010 0.500010 0.500010 -0.277696
O6    O     O_R   0.170070 0.978950 0.027680 -0.527939
O7    O     O_R   0.001760 0.175230 0.026640 -0.511330
O8    O     O_R   0.984760 0.333570 0.037150 -0.463456
O9    O     O_R   0.183410 0.309240 0.041890 -0.471220
O10   O     O_R   0.340240 0.172500 0.045430 -0.478877
O11   O     O_R   0.309670 0.000990 0.032050 -0.489496
O12   O     O_R   0.480650 0.664000 0.464630 -0.504017
O13   O     O_R   0.168330 0.982130 0.939200 -0.469857
O14   O     O_R   0.000140 0.178170 0.944610 -0.494368
O15   O     O_R   0.983010 0.336750 0.948660 -0.464081
O16   O     O_R   0.181800 0.312190 0.959860 -0.483286
O17   O     O_R   0.338500 0.175680 0.956950 -0.514884
O18   O     O_R   0.308050 0.003930 0.950020 -0.504855
O19   O     O_3   0.164130 0.163270 0.992500 -0.255501
O20   O     O_R   0.323930 0.675950 0.455370 -0.463269
O21   O     O_R   0.354700 0.475360 0.451930 -0.477954
O22   O     O_R   0.494470 0.320860 0.448390 -0.460771
O23   O     O_R   0.662580 0.357570 0.460050 -0.465182
O24   O     O_R   0.680900 0.502040 0.551870 -0.462915
O25   O     O_R   0.481990 0.666040 0.546870 -0.478964
O26   O     O_R   0.325370 0.678160 0.544080 -0.477876
I1    I     I_    0.524678 0.112386 0.104341 -0.412363
I2    I     I_    0.799608 0.144723 0.418184 -0.182169
I3    I     I_    0.795745 0.522149 0.065465 -0.285851
I4    I     I_    0.841611 0.534880 0.329101 -0.232873
N13   N     N_2   0.767258 0.506687 0.156741 -0.484839
H12   H     H_    0.699166 0.530860 0.170424 0.291808
C97   C     C_3   0.839840 0.536270 0.179130 -0.247040
H13   H     H_    0.798068 0.619675 0.189339 0.170760
H14   H     H_    0.901401 0.524838 0.159451 0.171159
H15   H     H_    0.876529 0.489439 0.206231 0.178172
N14   N     N_2   0.955518 0.095972 0.086739 -0.529111
H16   H     H_    0.030924 0.065249 0.079044 0.285306
C98   C     C_3   0.888348 0.068299 0.059294 -0.272469
H17   H     H_    0.817391 0.085722 0.074332 0.174880
H18   H     H_    0.929539 0.983841 0.050828 0.130896
H19   H     H_    0.865443 0.111915 0.031244 0.159679
I5    I     I_    0.132349 0.808297 0.405419 -0.151717
N15   N     N_2   0.509851 0.804714 0.426816 -0.492930
H20   H     H_    0.485764 0.830204 0.455822 0.261187
C99   C     C_3   0.619275 0.732539 0.424485 -0.188889
H21   H     H_    0.651402 0.695627 0.453955 0.177252
H22   H     H_    0.660623 0.775406 0.418484 0.198379
H23   H     H_    0.633362 0.670536 0.400037 0.181393
N16   N     N_2   0.185957 0.815831 0.069398 -0.497006
H24   H     H_    0.116906 0.876446 0.059084 0.266582
C100  C     C_3   0.236364 0.732962 0.039095 -0.266210
H25   H     H_    0.178909 0.711204 0.022986 0.147343
H26   H     H_    0.299670 0.663419 0.053816 0.161509
H27   H     H_    0.268916 0.758267 0.016548 0.179848
N17   N     N_2   0.185697 0.814922 0.316796 -0.475764
H28   H     H_    0.153117 0.878580 0.299274 0.284043
C101  C     C_3   0.200348 0.720149 0.294145 -0.266795
H29   H     H_    0.258062 0.697699 0.271133 0.142780
H30   H     H_    0.125379 0.732368 0.278178 0.169662
H31   H     H_    0.227463 0.656119 0.315021 0.192723
N18   N     N_2   0.516557 0.824213 0.343798 -0.495165
H32   H     H_    0.550335 0.780755 0.318024 0.281398
C102  C     C_3   0.487449 0.932641 0.342123 -0.260790
H33   H     H_    0.555719 0.939519 0.334988 0.176175
H34   H     H_    0.461058 0.974294 0.371913 0.205306
H35   H     H_    0.424185 0.969280 0.318073 0.148554
N19   N     N_2   0.218554 0.772233 0.151144 -0.504947
H36   H     H_    0.258772 0.721887 0.173963 0.247916
C103  C     C_3   0.113065 0.845925 0.160511 -0.285089
H37   H     H_    0.074371 0.803990 0.170301 0.131891
H38   H     H_    0.067507 0.888952 0.133389 0.183762
H39   H     H_    0.112982 0.902157 0.185511 0.170887
N20   N     N_2   0.484685 0.887430 0.169132 -0.495876
H40   H     H_    0.546319 0.876375 0.153413 0.273881
C104  C     C_3   0.449007 0.978103 0.197232 -0.268274
H41   H     H_    0.483861 0.027105 0.191227 0.143671
H42   H     H_    0.473918 0.952571 0.228779 0.172127
H43   H     H_    0.362965 0.026695 0.194627 0.166974
N21   N     N_2   0.105930 0.448136 0.905331 -0.482621
H44   H     H_    0.109621 0.487939 0.932372 0.262089
C105  C     C_3   0.012975 0.504643 0.879335 -0.269494
H45   H     H_    0.944177 0.538700 0.897654 0.189368
H46   H     H_    0.003630 0.451385 0.855052 0.167116
H47   H     H_    0.016018 0.569247 0.865941 0.148967
N22   N     N_2   0.209493 0.527634 0.669421 -0.474447
H48   H     H_    0.145311 0.579346 0.652452 0.279867
C106  C     C_3   0.260245 0.578988 0.694295 -0.289686
H49   H     H_    0.201874 0.647148 0.711597 0.153047
H50   H     H_    0.298271 0.605999 0.674829 0.140745
H51   H     H_    0.319655 0.525581 0.716407 0.158730
N23   N     N_2   0.464870 0.154192 0.655914 -0.502390
H52   H     H_    0.535502 0.108025 0.643584 0.272816
C107  C     C_3   0.406032 0.099321 0.657068 -0.244939
H53   H     H_    0.455583 0.024566 0.671711 0.192736
H54   H     H_    0.380477 0.082638 0.625706 0.152312
H55   H     H_    0.336973 0.145624 0.675007 0.181390
N24   N     N_2   0.480917 0.216632 0.925903 -0.512956
H56   H     H_    0.468651 0.241546 0.956001 0.269715
C108  C     C_3   0.582723 0.193676 0.914926 -0.315033
H57   H     H_    0.582334 0.265977 0.907701 0.154633
H58   H     H_    0.607063 0.135767 0.888744 0.153919
H59   H     H_    0.640782 0.159072 0.940797 0.147357
N25   N     N_2   0.982587 0.103549 0.869449 -0.483189
H60   H     H_    0.946464 0.086575 0.890251 0.269145
C109  C     C_3   0.025863 0.022022 0.837856 -0.291944
H61   H     H_    0.067817 0.945747 0.851775 0.182570
H62   H     H_    0.081891 0.032505 0.821527 0.161620
H63   H     H_    0.962935 0.020967 0.816392 0.139975
N26   N     N_2   0.740606 0.245283 0.689515 -0.513761
H64   H     H_    0.768159 0.169023 0.678879 0.286609
C110  C     C_3   0.634153 0.294440 0.700598 -0.275516
H65   H     H_    0.624683 0.243515 0.720399 0.185046
H66   H     H_    0.580227 0.307517 0.673000 0.170275
H67   H     H_    0.613810 0.369987 0.717667 0.152436
I6    I     I_    0.714200 0.188156 0.594138 -0.305598
I7    I     I_    0.883379 0.493917 0.588553 -0.175430
N27   N     N_2   0.739077 0.525825 0.830119 -0.485131
H68   H     H_    0.765081 0.548833 0.807467 0.277478
C111  C     C_3   0.630154 0.554205 0.823014 -0.269000
H69   H     H_    0.617683 0.510990 0.795398 0.137267
H70   H     H_    0.583958 0.638795 0.818434 0.178119
H71   H     H_    0.601980 0.537103 0.849554 0.170797
I8    I     I_    0.762461 0.515068 0.927212 -0.330649
I9    I     I_    0.548946 0.130403 0.394544 -0.316113
I10   I     I_    0.909473 0.508125 0.697780 -0.233869
N28   N     N_2   0.370956 0.019140 0.877439 -0.480016
H72   H     H_    0.317241 0.084802 0.892372 0.285617
C112  C     C_3   0.477313 0.976090 0.894486 -0.229386
H73   H     H_    0.486581 0.939838 0.923486 0.162950
H74   H     H_    0.499448 0.038265 0.900251 0.188272
H75   H     H_    0.531046 0.916684 0.872835 0.169988
I11   I     I_    0.403358 0.978258 0.783897 -0.316276
I12   I     I_    0.581376 0.707681 0.715413 -0.317574
I13   I     I_    0.599241 0.731217 0.610800 -0.218528
I14   I     I_    0.133149 0.849846 0.580661 -0.253947
N29   N     N_2   0.264212 0.706360 0.818762 -0.480346
H76   H     H_    0.220964 0.721093 0.791261 0.250171
C113  C     C_3   0.351708 0.602614 0.818907 -0.280910
H77   H     H_    0.407929 0.593997 0.797095 0.123659
H78   H     H_    0.323883 0.545133 0.809678 0.158632
H79   H     H_    0.391321 0.585846 0.849842 0.181447
I15   I     I_    0.222988 0.752332 0.913310 -0.401776
I16   I     I_    0.140224 0.538084 0.413774 -0.134921
N30   N     N_2   0.129767 0.489481 0.182156 -0.529771
H80   H     H_    0.104389 0.468819 0.205723 0.276935
C114  C     C_3   0.143571 0.579915 0.192908 -0.300706
H81   H     H_    0.208169 0.562133 0.216727 0.156289
H82   H     H_    0.071069 0.644169 0.204844 0.157138
H83   H     H_    0.160672 0.606055 0.165830 0.165519
N31   N     N_2   0.127015 0.463098 0.096315 -0.471405
H84   H     H_    0.058448 0.505387 0.110418 0.284636
C115  C     C_3   0.151511 0.526634 0.073611 -0.277622
H85   H     H_    0.173743 0.577406 0.094609 0.150498
H86   H     H_    0.082364 0.576359 0.053865 0.149555
H87   H     H_    0.216242 0.477420 0.053909 0.145900
I17   I     I_    0.099893 0.535685 0.304912 -0.337454
I18   I     I_    0.865789 0.514422 0.437755 -0.231139

loop_
_geom_bond_atom_site_label_1
_geom_bond_atom_site_label_2
_ccdc_geom_bond_type
C53   H8    S    
C66   C68   A    
C76   I14   S    
C111  H70   S    
C40   C41   A    
C103  H38   S    
C47   N22   S    
C83   N28   S    
C82   I11   S    
C104  H42   S    
C41   C42   A    
C74   C94   S    
C36   C42   S    
N24   H56   S    
C85   N29   S    
C99   H21   S    
C93   O11   A    
C49   C50   A    
C34   O25   A    
Cr4   O6    S    
C7    C8    A    
N16   C100  S    
C22   N13   S    
C106  H49   S    
C44   C45   S    
C25   C28   A    
Cr6   O17   S    
C99   H22   S    
Cr3   O23   S    
C26   C27   A    
C29   C30   A    
C84   C90   A    
C12   O22   A    
C40   H4    S    
N13   H12   S    
C36   N11   A    
C45   O2    A    
Cr1   O5    S    
C38   C42   A    
N17   C101  S    
C55   C59   A    
C69   C70   A    
C101  H30   S    
C96   O13   A    
C5    C6    A    
Cr5   O19   S    
C106  H51   S    
C16   C17   A    
C45   O3    A    
C68   C74   A    
C15   C16   A    
C108  H59   S    
C94   O15   A    
N3    N4    A    
C84   I15   S    
C18   C19   A    
C104  H41   S    
C78   I16   S    
C12   O21   A    
C102  H34   S    
C114  H83   S    
Cr6   O10   S    
C112  H74   S    
C98   H18   S    
C20   C27   S    
C97   H15   S    
C26   H2    S    
C37   N10   A    
Cr6   O18   S    
C15   I18   S    
N13   C97   S    
Cr5   O15   S    
C40   C43   A    
C31   C32   A    
C102  H35   S    
C44   C46   A    
C113  H77   S    
N19   C103  S    
C115  H87   S    
C105  H47   S    
C8    N30   S    
Cr1   O25   S    
N30   C114  S    
C70   C71   A    
C109  H63   S    
C95   O16   A    
C9    C10   S    
N29   H76   S    
C56   O4    A    
C115  H85   S    
C41   N20   S    
C34   C75   S    
C72   C73   T    
C103  H39   S    
C6    I1    S    
C100  H27   S    
C52   N3    A    
N20   H40   S    
C110  H65   S    
C31   N17   S    
C97   H14   S    
C94   O14   A    
N26   C110  S    
Cr1   O1    S    
C102  H33   S    
C67   C78   A    
Cr6   O19   S    
C16   I4    S    
C77   H11   S    
C2    C11   S    
Cr1   O12   S    
C79   C88   S    
C99   H23   S    
N25   H60   S    
C24   I3    S    
C17   C18   A    
Cr5   O9    S    
N14   C98   S    
Cr2   O26   S    
N21   C105  S    
C78   C89   A    
C38   C39   A    
C108  H58   S    
C12   C67   S    
C37   N9    A    
C107  H55   S    
Cr3   O4    S    
C63   C64   A    
C105  H45   S    
C51   N12   A    
N15   H20   S    
N10   N11   A    
C76   C77   A    
C21   N5    A    
C109  H62   S    
C7    N31   S    
Cr4   O19   S    
C101  H31   S    
C107  H53   S    
C51   C58   S    
C86   C87   S    
C8    C9    A    
N29   C113  S    
C91   O7    A    
Cr2   O21   S    
C112  H75   S    
C100  H26   S    
N23   H52   S    
N17   H28   S    
C65   I6    S    
C17   C21   S    
C79   C80   A    
C49   N23   S    
C60   C61   A    
C14   C23   S    
C2    C89   A    
C75   C76   A    
C101  H29   S    
C5    C9    A    
C112  H73   S    
C75   C81   A    
Cr4   O14   S    
C70   N27   S    
C107  H54   S    
C64   N26   S    
C47   C48   A    
C91   O8    A    
N25   C109  S    
C7    C13   A    
C25   N14   S    
N26   H64   S    
C54   N21   S    
C46   H5    S    
Cr2   O5    S    
C62   C63   A    
C1    C29   S    
C108  H57   S    
C89   I17   S    
C77   C79   A    
C5    H3    S    
C69   C74   A    
C33   N18   S    
C80   I12   S    
C32   C37   S    
C84   C85   A    
N6    N7    A    
N8    N9    A    
N1    N5    A    
Cr4   O13   S    
C66   C71   A    
C59   C95   S    
C23   O1    A    
C114  H82   S    
C34   O26   A    
C39   N16   S    
Cr2   O2    S    
N22   C106  S    
N31   C115  S    
C60   C65   A    
C82   C83   A    
Cr5   O8    S    
C22   C27   A    
C110  H66   S    
C13   C92   S    
C97   H13   S    
C19   I2    S    
C104  H43   S    
C22   C24   A    
C110  H67   S    
C92   O10   A    
C1    O20   A    
C114  H81   S    
C53   C54   A    
C3    C4    A    
C20   N7    A    
C1    O12   A    
C68   N25   S    
N28   C112  S    
N14   H16   S    
N15   C99   S    
C52   N2    A    
C44   C50   A    
C61   I7    S    
C83   C90   A    
N21   H44   S    
C46   C47   A    
C98   H17   S    
C81   I13   S    
Cr3   O5    S    
C14   C15   A    
Cr5   O16   S    
C14   C19   A    
C50   H6    S    
C98   H19   S    
C92   O9    A    
C24   C28   A    
C105  H46   S    
C80   C81   A    
C4    C67   A    
C85   C86   A    
C54   C59   A    
C39   C43   A    
C53   C58   A    
N24   C108  S    
C90   C96   S    
Cr3   O3    S    
Cr2   O20   S    
C69   I8    S    
N23   C107  S    
C63   C73   S    
C23   O23   A    
C29   C35   A    
C55   N24   S    
N2    N12   A    
C38   N19   S    
C62   I10   S    
C43   C93   S    
C64   C65   A    
C55   C57   A    
C2    C3    A    
C25   C26   A    
C106  H50   S    
Cr3   O22   S    
C71   C72   S    
C21   N6    A    
N16   H24   S    
C82   C86   A    
Cr4   O7    S    
C32   C33   A    
C96   O18   A    
C20   N1    A    
C30   C31   A    
C57   C58   A    
C57   H9    S    
C93   O6    A    
C3    H7    S    
C113  H79   S    
C35   N15   S    
N22   H48   S    
C33   C35   A    
C36   N8    A    
C28   C91   S    
C115  H86   S    
C18   H1    S    
C61   C62   A    
Cr6   O11   S    
N18   C102  S    
C10   C11   T    
C100  H25   S    
C4    I9    S    
C103  H37   S    
C56   C60   S    
C48   C52   S    
N31   H84   S    
C87   C88   T    
C113  H78   S    
N19   H36   S    
C48   C49   A    
C111  H71   S    
C95   O17   A    
C109  H61   S    
N20   C104  S    
C51   N4    A    
Cr1   O24   S    
N30   H80   S    
N18   H32   S    
N27   C111  S    
C66   H10   S    
C56   O24   A    
C111  H69   S    
N27   H68   S    
C30   I5    S    
N28   H72   S    
C6    C13   A    
