data_mof_unit_42225.cif
_audit_creation_date              2013-03-05T15:57:37-0500
_audit_creation_method            fapswitch 2.2
_symmetry_space_group_name_H-M    P1
_symmetry_Int_Tables_number       1
_space_group_crystal_system       triclinic
_cell_length_a                    15.004263
_cell_length_b                    13.834452
_cell_length_c                    11.686799
_cell_angle_alpha                 89.897315
_cell_angle_beta                  87.472719
_cell_angle_gamma                 90.340479
_cell_volume                      2423.4886522

loop_
_atom_site_label
_atom_site_type_symbol
_atom_site_description
_atom_site_fract_x
_atom_site_fract_y
_atom_site_fract_z
_atom_type_partial_charge
O1    O     O_R   0.370260 0.582280 0.500020 -0.584121
O2    O     O_R   0.629740 0.417720 0.499980 -0.583582
O3    O     O_R   0.629740 0.582280 0.499980 -0.577308
O4    O     O_R   0.370260 0.417720 0.500020 -0.576260
C1    C     C_R   0.329040 0.499863 0.503487 0.809826
C2    C     C_R   0.670914 0.500196 0.496706 0.813725
O5    O     O_R   0.500010 0.582270 0.337200 -0.576866
O6    O     O_R   0.499990 0.417730 0.662800 -0.576098
O7    O     O_R   0.499990 0.582270 0.662800 -0.576007
O8    O     O_R   0.500010 0.417730 0.337200 -0.575160
C3    C     C_R   0.500543 0.500071 0.284080 0.821922
C4    C     C_R   0.499803 0.499926 0.715903 0.821163
Cu1   Cu    Cu3+1 0.500000 0.597420 0.500000 0.933179
Cu2   Cu    Cu3+1 0.500000 0.402580 0.500000 0.934108
C5    C     C_1   0.500864 0.500167 0.162375 -0.199355
C6    C     C_1   0.500188 0.499809 0.837566 -0.197200
C7    C     C_1   0.500889 0.500066 0.059849 -0.006928
C8    C     C_1   0.500582 0.499883 0.940066 -0.006467
C9    C     C_R   0.818409 0.528102 0.397402 0.133746
C10   C     C_R   0.182072 0.473342 0.605982 0.127554
C11   C     C_R   0.767458 0.500903 0.495614 -0.065468
C12   C     C_R   0.232320 0.500069 0.506768 -0.064489
C13   C     C_R   0.807964 0.471872 0.594231 -0.290750
C14   C     C_R   0.191083 0.533242 0.410420 -0.284978
C15   C     C_R   0.901075 0.468492 0.598062 0.063501
C16   C     C_R   0.098121 0.541652 0.409637 0.047872
C17   C     C_R   0.952964 0.505267 0.502970 -0.051056
C18   C     C_R   0.046444 0.503997 0.504428 -0.053520
C19   C     C_R   0.910945 0.544323 0.406851 0.081575
C20   C     C_R   0.088539 0.462674 0.599355 0.090078
C21   C     C_R   0.942893 0.426324 0.692561 0.083160
C22   C     C_R   0.056297 0.589198 0.318432 0.137795
C23   C     C_R   0.036203 0.412620 0.684793 0.142580
C24   C     C_R   0.962293 0.598212 0.323880 0.140419
H1    H     H_    0.764820 0.447533 0.665116 0.153603
H2    H     H_    0.233894 0.555869 0.338450 0.143265
C25   C     C_R   0.436519 0.795246 0.564108 0.290308
C26   C     C_R   0.563370 0.204730 0.435756 0.289966
C27   C     C_R   0.563236 0.796474 0.435913 0.290330
C28   C     C_R   0.436952 0.203543 0.564366 0.289619
N1    N     N_R   0.500000 0.743810 0.500000 -0.178215
N2    N     N_R   0.500000 0.256190 0.500000 -0.178242
C29   C     C_R   0.574518 0.897740 0.456139 -0.028898
C30   C     C_R   0.425587 0.102287 0.544164 -0.028549
C31   C     C_R   0.425416 0.896593 0.544082 -0.032486
C32   C     C_R   0.574568 0.103420 0.455898 -0.032031
C33   C     C_R   0.500002 0.948751 0.500126 -0.062000
C34   C     C_R   0.500042 0.051259 0.500023 -0.061847
C35   C     C_R   0.656060 0.949453 0.434092 0.175672
C36   C     C_R   0.344035 0.050624 0.566266 0.175819
C37   C     C_R   0.343938 0.947301 0.566004 0.172605
C38   C     C_R   0.656071 0.052771 0.433998 0.172313
C39   C     C_3   0.777371 0.518678 0.281564 -0.908679
H3    H     H_    0.829172 0.511936 0.211505 0.251946
H4    H     H_    0.736746 0.451508 0.278615 0.221988
H5    H     H_    0.733892 0.580641 0.264118 0.226376
C40   C     C_3   0.225582 0.476864 0.720850 -0.888151
H6    H     H_    0.277760 0.534096 0.721294 0.214825
H7    H     H_    0.176385 0.496134 0.790710 0.247181
H8    H     H_    0.256690 0.407095 0.741129 0.228368
C41   C     C_3   0.888641 0.394817 0.800355 -0.401898
C42   C     C_3   0.854221 0.482749 0.869097 -0.354478
C43   C     C_3   0.790274 0.452029 0.967818 -0.855267
H9    H     H_    0.731587 0.413595 0.934588 0.259764
H10   H     H_    0.824595 0.403871 0.027760 0.253796
H11   H     H_    0.766329 0.517039 0.015203 0.249387
H12   H     H_    0.911719 0.521874 0.904218 0.219659
H13   H     H_    0.819205 0.534380 0.814200 0.224651
H14   H     H_    0.833090 0.346376 0.776864 0.193508
H15   H     H_    0.928267 0.351687 0.859492 0.210207
C44   C     C_3   0.111548 0.631281 0.216568 -0.392591
C45   C     C_3   0.142689 0.552343 0.131633 -0.349546
C46   C     C_3   0.066369 0.514966 0.061366 -0.813381
H16   H     H_    0.013075 0.481858 0.117868 0.261370
H17   H     H_    0.038017 0.575005 0.011666 0.238829
H18   H     H_    0.092034 0.459246 0.000598 0.229398
H19   H     H_    0.195122 0.583242 0.071890 0.207003
H20   H     H_    0.172458 0.490510 0.176715 0.220453
H21   H     H_    0.075694 0.686419 0.167993 0.205865
H22   H     H_    0.169706 0.672013 0.247426 0.157975
C47   C     C_3   0.076528 0.331191 0.752234 -0.892288
H23   H     H_    0.031707 0.266966 0.753597 0.226585
H24   H     H_    0.139819 0.305094 0.710911 0.246956
H25   H     H_    0.087716 0.354090 0.841281 0.229770
C48   C     C_3   0.918730 0.675424 0.252972 -0.889257
H26   H     H_    0.954905 0.745142 0.261134 0.222493
H27   H     H_    0.918792 0.653780 0.161549 0.239354
H28   H     H_    0.849705 0.691702 0.284267 0.248078
C49   C     C_3   0.393892 0.752028 0.672249 -0.786052
H29   H     H_    0.446698 0.731391 0.730617 0.237068
H30   H     H_    0.353822 0.805389 0.722579 0.202785
H31   H     H_    0.349958 0.690107 0.654834 0.243956
C50   C     C_3   0.605719 0.247868 0.327444 -0.785512
H32   H     H_    0.552757 0.268297 0.269198 0.237510
H33   H     H_    0.649443 0.309952 0.344755 0.243112
H34   H     H_    0.645889 0.194577 0.277133 0.202862
C51   C     C_3   0.605648 0.754266 0.328043 -0.799891
H35   H     H_    0.552935 0.732534 0.269836 0.239574
H36   H     H_    0.645890 0.807994 0.277466 0.204611
H37   H     H_    0.649197 0.693423 0.347307 0.244639
C52   C     C_3   0.395075 0.245764 0.672516 -0.799276
H38   H     H_    0.448147 0.266791 0.730620 0.239525
H39   H     H_    0.352239 0.307298 0.653531 0.247066
H40   H     H_    0.354359 0.192331 0.722934 0.204545
C53   C     C_3   0.744514 0.896282 0.425003 -0.875299
H41   H     H_    0.789460 0.922177 0.491289 0.235293
H42   H     H_    0.737896 0.817735 0.441652 0.241082
H43   H     H_    0.777069 0.907768 0.338864 0.233694
C54   C     C_3   0.255636 0.103879 0.575747 -0.875517
H44   H     H_    0.210615 0.078292 0.509377 0.235580
H45   H     H_    0.223140 0.092087 0.661868 0.233625
H46   H     H_    0.262310 0.182494 0.559565 0.240552
C55   C     C_3   0.255446 0.893100 0.574561 -0.872082
H47   H     H_    0.210833 0.918671 0.507912 0.233158
H48   H     H_    0.262072 0.814670 0.558014 0.241997
H49   H     H_    0.222591 0.904036 0.660497 0.234322
C56   C     C_3   0.744510 0.107056 0.425063 -0.870708
H50   H     H_    0.789226 0.081747 0.491729 0.233679
H51   H     H_    0.777279 0.095903 0.339118 0.234011
H52   H     H_    0.737837 0.185525 0.441286 0.242024

loop_
_geom_bond_atom_site_label_1
_geom_bond_atom_site_label_2
_geom_bond_distance
_ccdc_geom_bond_type
C41   H15   1.107321 S    
C15   C21   1.420164 A    
C43   H10   1.110868 S    
C16   C22   1.422672 A    
C52   H38   1.107013 S    
C17   C19   1.419724 A    
C46   H16   1.110511 S    
C21   C41   1.530680 S    
O3    C2    1.295797 A    
C47   H25   1.107923 S    
C44   H21   1.106252 S    
C51   H35   1.106363 S    
C27   N1    1.385350 A    
C10   C20   1.415798 A    
C48   H26   1.110254 S    
O5    C3    1.296464 A    
C53   H42   1.106712 S    
C50   H32   1.106534 S    
C42   H12   1.110051 S    
O1    C1    1.293607 A    
C9    C11   1.400376 A    
C14   C16   1.400788 A    
C26   N2    1.386215 A    
C56   H51   1.110103 S    
C40   H7    1.110188 S    
C31   C37   1.426722 A    
C41   H14   1.110595 S    
C32   C38   1.426603 A    
C31   C33   1.405466 A    
O7    Cu1   1.913740 S    
C45   H20   1.110182 S    
C47   H24   1.108886 S    
C28   C52   1.506804 S    
C3    C5    1.422138 S    
C1    C12   1.450044 S    
C4    C6    1.422112 S    
C21   C23   1.412911 A    
C49   H30   1.108184 S    
O3    Cu1   1.959114 S    
Cu2   N2    2.025225 S    
C55   H49   1.110097 S    
C38   C56   1.520328 S    
C9    C39   1.517254 S    
C48   H27   1.110080 S    
C43   H11   1.110274 S    
C50   H33   1.102126 S    
Cu1   Cu2   2.695503 S    
O4    Cu2   1.959116 S    
C46   H17   1.110185 S    
O2    C2    1.293993 A    
Cu1   N1    2.025225 S    
C44   H22   1.109824 S    
C51   H36   1.108182 S    
C47   H23   1.110806 S    
C22   C44   1.532364 S    
C39   H4    1.109735 S    
C53   H43   1.110140 S    
C32   C34   1.405444 A    
C45   C46   1.526589 S    
O8    Cu2   1.913740 S    
C54   H46   1.106781 S    
C29   C35   1.426981 A    
C40   H8    1.104518 S    
C35   C53   1.520940 S    
C36   C37   1.429410 A    
C39   H3    1.108237 S    
C2    C11   1.448038 S    
C19   C24   1.419265 A    
C36   C54   1.520946 S    
C24   C48   1.519164 S    
C22   C24   1.415351 A    
C45   H19   1.111592 S    
C28   N2    1.385032 A    
C33   C34   1.418144 A    
C28   C30   1.431432 A    
O6    C4    1.296400 A    
C35   C38   1.429334 A    
C42   C43   1.525814 S    
C7    C8    1.400105 S    
C14   H2    1.080306 S    
C49   H31   1.102509 S    
C10   C12   1.402710 A    
C50   H34   1.108192 S    
C13   H1    1.080664 S    
C11   C13   1.386361 A    
C46   H18   1.108257 S    
C12   C14   1.387196 A    
C56   H52   1.106712 S    
O1    Cu1   1.956641 S    
C25   C31   1.432971 A    
C9    C19   1.414297 A    
C51   H37   1.097724 S    
C48   H28   1.107593 S    
C55   H47   1.108033 S    
C52   H39   1.097922 S    
C39   H5    1.104410 S    
C30   C36   1.426851 A    
C5    C7    1.198186 T    
O6    Cu2   1.914487 S    
C20   C23   1.419533 A    
C37   C55   1.520328 S    
O4    C1    1.296876 A    
C27   C29   1.431459 A    
C25   C49   1.511701 S    
C15   C17   1.420197 A    
C53   H41   1.107903 S    
C16   C18   1.420274 A    
C42   H13   1.109232 S    
C54   H45   1.110186 S    
C49   H29   1.106448 S    
C44   C45   1.537944 S    
C56   H50   1.108009 S    
C40   H6    1.110344 S    
C23   C47   1.517672 S    
C26   C50   1.511316 S    
C18   C20   1.421375 A    
C13   C15   1.400801 A    
C25   N1    1.386344 A    
C41   C42   1.538298 S    
O2    Cu2   1.956639 S    
O7    C4    1.296211 A    
C26   C32   1.432875 A    
C27   C51   1.507137 S    
O8    C3    1.296158 A    
C43   H9    1.110971 S    
O5    Cu1   1.914487 S    
C6    C8    1.198175 T    
C17   C18   1.403673 A    
C52   H40   1.108232 S    
C10   C40   1.519158 S    
C54   H44   1.107977 S    
C29   C33   1.404393 A    
C30   C34   1.404397 A    
C55   H48   1.106760 S    
