data_mof_unit_26984.cif
_audit_creation_date              2013-03-05T16:48:40-0500
_audit_creation_method            fapswitch 2.2
_symmetry_space_group_name_H-M    P1
_symmetry_Int_Tables_number       1
_space_group_crystal_system       triclinic
_cell_length_a                    10.873147
_cell_length_b                    10.861224
_cell_length_c                    10.399139
_cell_angle_alpha                 91.33316
_cell_angle_beta                  91.49401
_cell_angle_gamma                 90.089365
_cell_volume                      1227.34076132

loop_
_atom_site_label
_atom_site_type_symbol
_atom_site_description
_atom_site_fract_x
_atom_site_fract_y
_atom_site_fract_z
_atom_type_partial_charge
O1    O     O_R   0.499990 0.319650 0.605810 -0.593637
O2    O     O_R   0.500010 0.680350 0.394190 -0.593631
O3    O     O_R   0.499990 0.319640 0.394190 -0.572076
O4    O     O_R   0.500010 0.680360 0.605810 -0.572066
C1    C     C_R   0.500267 0.261371 0.498248 0.828310
C2    C     C_R   0.499730 0.738629 0.501751 0.828420
O5    O     O_R   0.319640 0.500010 0.605810 -0.588055
O6    O     O_R   0.680360 0.499990 0.394190 -0.588052
O7    O     O_R   0.319650 0.500010 0.394190 -0.575028
O8    O     O_R   0.680350 0.499990 0.605810 -0.575018
C3    C     C_R   0.261343 0.499935 0.497965 0.824151
C4    C     C_R   0.738657 0.500058 0.502035 0.824114
Cu1   Cu    Cu3+1 0.500000 0.500000 0.625300 0.985683
Cu2   Cu    Cu3+1 0.500000 0.500000 0.374700 0.985676
H1    H     H_    0.201193 0.400607 0.896472 0.133963
H2    H     H_    0.798765 0.599201 0.103543 0.133972
C5    C     C_R   0.184773 0.531984 0.052301 -0.180752
C6    C     C_R   0.815217 0.467872 0.947674 -0.180726
H3    H     H_    0.217526 0.607742 0.996810 0.141329
H4    H     H_    0.782468 0.392091 0.003137 0.141352
C7    C     C_R   0.150414 0.552312 0.179612 -0.087124
C8    C     C_R   0.849588 0.447587 0.820361 -0.087168
H5    H     H_    0.155292 0.644594 0.221268 0.141819
H6    H     H_    0.844722 0.355316 0.778673 0.141795
C9    C     C_R   0.107673 0.454206 0.251912 0.075064
C10   C     C_R   0.892324 0.545721 0.748098 0.075083
C11   C     C_R   0.097269 0.336224 0.194269 -0.150921
C12   C     C_R   0.902711 0.663688 0.805779 -0.150886
H7    H     H_    0.060534 0.261000 0.248312 0.188423
H8    H     H_    0.939439 0.738933 0.751764 0.188471
C13   C     C_R   0.130637 0.315804 0.066069 0.182521
C14   C     C_R   0.869327 0.684065 0.933981 0.182481
C15   C     C_R   0.175234 0.414326 0.995615 -0.108717
C16   C     C_R   0.824736 0.585515 0.004398 -0.108661
C17   C     C_R   0.929855 0.476332 0.388363 -0.192720
C18   C     C_R   0.070144 0.523650 0.611638 -0.192656
H9    H     H_    0.875842 0.457693 0.300812 0.160852
H10   H     H_    0.124157 0.542285 0.699191 0.160852
C19   C     C_R   0.872115 0.498792 0.505292 -0.073667
C20   C     C_R   0.127885 0.501192 0.494709 -0.073643
C21   C     C_R   0.943275 0.522081 0.619127 0.005804
C22   C     C_R   0.056724 0.477890 0.380876 0.005802
H11   H     H_    0.598923 0.208343 0.903422 0.154594
H12   H     H_    0.400918 0.791622 0.096531 0.154593
C23   C     C_R   0.466537 0.175139 0.048641 -0.115610
C24   C     C_R   0.533362 0.824965 0.951408 -0.115585
H13   H     H_    0.388518 0.196872 0.986638 0.145696
H14   H     H_    0.611368 0.803329 0.013471 0.145686
C25   C     C_R   0.448425 0.139451 0.174862 -0.145474
C26   C     C_R   0.551515 0.860662 0.825197 -0.145586
H15   H     H_    0.355524 0.132142 0.209115 0.146568
H16   H     H_    0.644430 0.868074 0.791011 0.146568
C27   C     C_R   0.549195 0.110761 0.256067 0.007378
C28   C     C_R   0.450764 0.889233 0.743918 0.007395
C29   C     C_R   0.670334 0.118229 0.208932 0.361520
C30   C     C_R   0.329602 0.881637 0.790966 0.361613
C31   C     C_R   0.686288 0.152929 0.080844 -0.225515
C32   C     C_R   0.313604 0.846926 0.919042 -0.225477
H17   H     H_    0.777530 0.158832 0.042188 0.163236
H18   H     H_    0.222341 0.840924 0.957630 0.163212
C33   C     C_R   0.585171 0.181311 0.001576 -0.191465
C34   C     C_R   0.414703 0.818662 0.998385 -0.191447
C35   C     C_R   0.524429 0.930591 0.389332 -0.194529
C36   C     C_R   0.475556 0.069408 0.610663 -0.194671
H19   H     H_    0.543861 0.877228 0.302726 0.148058
H20   H     H_    0.456120 0.122770 0.697268 0.148081
C37   C     C_R   0.500577 0.872079 0.504609 -0.056290
C38   C     C_R   0.499411 0.127920 0.495386 -0.056370
C39   C     C_R   0.475993 0.942358 0.617143 0.064762
C40   C     C_R   0.523987 0.057641 0.382850 0.064783
N1    N     N_1   0.500010 0.499990 0.186410 -0.147161
N2    N     N_1   0.499990 0.500010 0.813590 -0.147159
C41   C     C_1   0.500051 0.500010 0.071866 0.081655
C42   C     C_1   0.499949 0.499991 0.928134 0.081669
N3    N     N_R   0.776935 0.090276 0.288200 0.104792
O9    O     O_R   0.776007 0.107523 0.412408 -0.368358
O10   O     O_R   0.879700 0.058486 0.235341 -0.392923
N4    N     N_R   0.223022 0.909482 0.711624 0.104797
O11   O     O_R   0.224026 0.892181 0.587427 -0.368428
O12   O     O_R   0.120208 0.941229 0.764409 -0.392885
C43   C     C_3   0.114818 0.190099 0.004715 -0.817754
H21   H     H_    0.146459 0.187777 0.903973 0.244569
H22   H     H_    0.168690 0.121624 0.060123 0.232796
H23   H     H_    0.016154 0.163541 0.003976 0.254108
C44   C     C_3   0.885127 0.809754 0.995378 -0.817613
H24   H     H_    0.853469 0.812041 0.096114 0.244627
H25   H     H_    0.983789 0.836322 0.996141 0.254053
H26   H     H_    0.831257 0.878241 0.939983 0.232755

loop_
_geom_bond_atom_site_label_1
_geom_bond_atom_site_label_2
_geom_bond_distance
_ccdc_geom_bond_type
C32   C34   1.396055 A    
C35   H19   1.085222 S    
C11   H7    1.083956 S    
Cu2   N1    1.958054 S    
O7    Cu2   1.976668 S    
C43   H21   1.110904 S    
C19   C21   1.414815 A    
C44   H24   1.110907 S    
O5    C3    1.273746 A    
C26   C28   1.405621 A    
C24   C34   1.393591 A    
O1    C1    1.272425 A    
C36   C38   1.399773 A    
C17   H9    1.085356 S    
N4    O12   1.301660 A    
C31   H17   1.082473 S    
C32   H18   1.082468 S    
C30   N4    1.441537 S    
C41   C42   1.494662 S    
C23   C33   1.393596 A    
O4    Cu1   1.974071 S    
N3    O10   1.301660 A    
C17   C22   1.383786 A    
C18   C20   1.399540 A    
H2    C16   1.083055 S    
C25   H15   1.083219 S    
C26   H16   1.083211 S    
C13   C15   1.403694 A    
C29   N3    1.441552 S    
C23   H13   1.081796 S    
Cu1   Cu2   2.606024 S    
C18   C21   1.383786 A    
O2    C2    1.272417 A    
C5    C15   1.397366 A    
C1    C38   1.449061 S    
C27   C40   1.483245 S    
C43   H22   1.109928 S    
C28   C30   1.420178 A    
C27   C29   1.420198 A    
C7    H5    1.083278 S    
C35   C37   1.399769 A    
C44   H25   1.110244 S    
C11   C13   1.403525 A    
C12   C14   1.403527 A    
O4    C2    1.266186 A    
N1    C41   1.191172 T    
N4    O11   1.301145 A    
H12   C34   1.082679 S    
C5    C7    1.397693 A    
C37   C39   1.413844 A    
C14   C16   1.403697 A    
C17   C19   1.399535 A    
N3    O9    1.301151 A    
C6    C16   1.397367 A    
C35   C40   1.383140 A    
C23   C25   1.396006 A    
O6    C4    1.273749 A    
C36   C39   1.383140 A    
O7    C3    1.265807 A    
O3    Cu2   1.974073 S    
O8    C4    1.265805 A    
N2    C42   1.191172 T    
C2    C37   1.449057 S    
C29   C31   1.407676 A    
C8    H6    1.083280 S    
O1    Cu1   1.964583 S    
C43   H23   1.110238 S    
H11   C33   1.082679 S    
C44   H26   1.109931 S    
C7    C9    1.403788 A    
O6    Cu2   1.966264 S    
C6    C8    1.397692 A    
C20   C22   1.414818 A    
O3    C1    1.266182 A    
O8    Cu1   1.976667 S    
C9    C22   1.481479 S    
C31   C33   1.396055 A    
Cu1   N2    1.958055 S    
C9    C11   1.405155 A    
C24   C26   1.396009 A    
C10   C12   1.405152 A    
C13   C43   1.501257 S    
C4    C19   1.450714 S    
C12   H8    1.083954 S    
C28   C39   1.483235 S    
C25   C27   1.405630 A    
C14   C44   1.501255 S    
C18   H10   1.085358 S    
C5    H3    1.081100 S    
C30   C32   1.407669 A    
C6    H4    1.081106 S    
C3    C20   1.450715 S    
O2    Cu2   1.964583 S    
C24   H14   1.081798 S    
O5    Cu1   1.966265 S    
C38   C40   1.413854 A    
C8    C10   1.403789 A    
H1    C15   1.083056 S    
C10   C21   1.481479 S    
C36   H20   1.085220 S    
