data_mof_unit_66453.cif
_audit_creation_date              2012-12-10T18:10:52-0500
_audit_creation_method            fapswitch 2.2
_symmetry_space_group_name_H-M    P1
_symmetry_Int_Tables_number       1
_space_group_crystal_system       triclinic
_cell_length_a                    21.623511
_cell_length_b                    21.623504
_cell_length_c                    35.609852
_cell_angle_alpha                 89.999506
_cell_angle_beta                  89.999807
_cell_angle_gamma                 89.999973
_cell_volume                      16650.3148858

loop_
_atom_site_label
_atom_site_type_symbol
_atom_type_description
_atom_site_fract_x
_atom_site_fract_y
_atom_site_fract_z
_atom_type_partial_charge
C1    C     C_R   0.500000 0.880082 1.000000 0.900232
C2    C     C_1   0.999999 0.500002 0.733216 0.207880
C3    C     C_R   0.944765 0.491000 0.634194 -0.287676
C4    C     C_R   0.509004 0.055236 0.365805 -0.287677
C5    C     C_R   0.055235 0.490997 0.365806 -0.287676
C6    C     C_R   0.490996 0.944767 0.365805 -0.287674
C7    C     C_R   0.944766 0.509000 0.365805 -0.287674
C8    C     C_R   0.009002 0.444764 0.134194 -0.287675
C9    C     C_R   0.555234 0.009003 0.134194 -0.287676
C10   C     C_R   0.990999 0.555234 0.134194 -0.287675
C11   C     C_R   0.444765 0.991000 0.134195 -0.287676
C12   C     C_R   0.009004 0.555235 0.865805 -0.287675
C13   C     C_1   0.499999 0.000002 0.266784 0.207880
C14   C     C_R   0.555235 0.990997 0.865805 -0.287675
C15   C     C_R   0.990994 0.444767 0.865805 -0.287675
C16   C     C_R   0.444765 0.009000 0.865805 -0.287676
C17   C     C_R   0.500000 0.999999 0.614552 -0.024917
C18   C     C_R   1.000000 0.500001 0.614552 -0.024917
C19   C     C_R   0.500000 0.000001 0.385448 -0.024916
C20   C     C_R   0.000000 0.499999 0.385448 -0.024917
C21   C     C_R   0.000000 0.499999 0.114552 -0.024917
C22   C     C_R   0.500000 0.000001 0.114552 -0.024916
C23   C     C_R   1.000000 0.500001 0.885448 -0.024916
C24   C     C_1   0.000001 0.499997 0.266784 0.207882
C25   C     C_R   0.500000 0.999999 0.885448 -0.024917
C26   C     C_R   0.500001 0.999998 0.693139 0.071437
C27   C     C_R   0.999999 0.500002 0.693139 0.071435
C28   C     C_R   0.499999 0.000002 0.306861 0.071436
C29   C     C_R   0.000001 0.499997 0.306861 0.071436
C30   C     C_R   0.000001 0.499998 0.193139 0.071436
C31   C     C_R   0.499999 0.000003 0.193139 0.071436
C32   C     C_R   0.999998 0.500002 0.806861 0.071435
C33   C     C_R   0.500001 0.999997 0.806861 0.071436
C34   C     C_2   0.519737 0.882653 0.691741 0.414371
C35   C     C_1   0.000001 0.499998 0.233216 0.207882
C36   C     C_2   0.117343 0.519739 0.691741 0.414368
C37   C     C_2   0.480265 0.117343 0.691741 0.414366
C38   C     C_2   0.882654 0.480266 0.691742 0.414374
C39   C     C_2   0.519741 0.117346 0.308258 0.414371
C40   C     C_2   0.117345 0.480261 0.308259 0.414368
C41   C     C_2   0.480258 0.882658 0.308259 0.414368
C42   C     C_2   0.882656 0.519733 0.308258 0.414372
C43   C     C_2   0.019737 0.382654 0.191741 0.414371
C44   C     C_2   0.617344 0.019739 0.191741 0.414368
C45   C     C_2   0.980265 0.617343 0.191741 0.414366
C46   C     C_1   0.499999 0.000003 0.233216 0.207881
C47   C     C_2   0.382655 0.980267 0.191742 0.414372
C48   C     C_2   0.019742 0.617345 0.808258 0.414374
C49   C     C_2   0.617345 0.980262 0.808259 0.414368
C50   C     C_2   0.980254 0.382659 0.808259 0.414367
C51   C     C_2   0.382656 0.019733 0.808258 0.414369
C52   C     C_1   0.999998 0.500002 0.766784 0.207880
C53   C     C_1   0.500001 0.999997 0.766784 0.207882
C54   C     C_R   0.474238 0.718486 0.030403 -0.210802
C55   C     C_R   0.281513 0.474240 0.030404 -0.210800
C56   C     C_R   0.525761 0.281513 0.030404 -0.210802
C57   C     C_R   0.119918 0.500000 1.000000 0.900231
C58   C     C_R   0.718487 0.525761 0.030403 -0.210801
C59   C     C_R   0.474238 0.281514 0.969597 -0.210801
C60   C     C_R   0.281513 0.525761 0.969596 -0.210802
C61   C     C_R   0.525762 0.718487 0.969596 -0.210803
C62   C     C_R   0.718487 0.474240 0.969596 -0.210803
C63   C     C_R   0.974238 0.218486 0.530403 -0.210803
C64   C     C_R   0.781513 0.974238 0.530403 -0.210803
C65   C     C_R   0.025760 0.781513 0.530404 -0.210803
C66   C     C_R   0.218487 0.025761 0.530403 -0.210802
C67   C     C_R   0.974239 0.781513 0.469597 -0.210801
C68   C     C_R   0.500000 0.119918 0.000000 0.900232
C69   C     C_R   0.781513 0.025762 0.469597 -0.210802
C70   C     C_R   0.025762 0.218487 0.469596 -0.210803
C71   C     C_R   0.218487 0.974240 0.469596 -0.210802
C72   C     C_R   0.379506 0.500000 0.000000 0.892433
C73   C     C_R   0.500000 0.379506 0.000000 0.892434
C74   C     C_R   0.620494 0.500000 1.000000 0.892433
C75   C     C_R   0.500000 0.620494 1.000000 0.892433
C76   C     C_R   0.879506 0.000000 0.500000 0.892433
C77   C     C_R   1.000000 0.879506 0.500000 0.892433
C78   C     C_R   0.120494 0.000000 0.500000 0.892433
C79   C     C_R   0.880082 0.500000 1.000000 0.900232
C80   C     C_R   1.000000 0.120494 0.500000 0.892433
C81   C     C_R   0.473763 0.782656 0.030593 0.074018
C82   C     C_R   0.217344 0.473765 0.030594 0.074020
C83   C     C_R   0.526236 0.217343 0.030593 0.074018
C84   C     C_R   0.782656 0.526235 0.030593 0.074018
C85   C     C_R   0.473764 0.217344 0.969407 0.074018
C86   C     C_R   0.217344 0.526235 0.969406 0.074019
C87   C     C_R   0.526236 0.782656 0.969407 0.074019
C88   C     C_R   0.782656 0.473765 0.969406 0.074018
C89   C     C_R   0.973763 0.282656 0.530593 0.074019
C90   C     C_R   1.000000 0.380082 0.500000 0.900232
C91   C     C_R   0.717344 0.973763 0.530593 0.074019
C92   C     C_R   0.026235 0.717343 0.530594 0.074017
C93   C     C_R   0.282656 0.026235 0.530593 0.074018
C94   C     C_R   0.973764 0.717344 0.469407 0.074017
C95   C     C_R   0.717344 0.026237 0.469407 0.074018
C96   C     C_R   0.026237 0.282656 0.469407 0.074019
C97   C     C_R   0.282656 0.973765 0.469407 0.074018
C98   C     C_R   0.500000 1.000000 0.926559 0.874996
C99   C     C_R   1.000000 0.500000 0.926559 0.874997
C100  C     C_R   0.500000 0.000000 0.073441 0.874999
C101  C     C_R   0.619918 1.000000 0.500000 0.900232
C102  C     C_R   0.000000 0.500000 0.073441 0.874998
C103  C     C_R   0.000000 0.500000 0.426559 0.874996
C104  C     C_R   0.500000 0.000000 0.426559 0.874997
C105  C     C_R   1.000000 0.500000 0.573441 0.874999
C106  C     C_R   0.500000 1.000000 0.573441 0.874999
C107  C     C_R   0.500000 0.686842 1.000000 -0.077634
C108  C     C_R   0.313158 0.500000 0.000000 -0.077636
C109  C     C_R   0.500000 0.313158 0.000000 -0.077634
C110  C     C_R   0.686842 0.500000 1.000000 -0.077635
C111  C     C_R   1.000000 0.186842 0.500000 -0.077634
C112  C     C_R   1.000000 0.619918 0.500000 0.900232
C113  C     C_R   0.813158 0.000000 0.500000 -0.077634
C114  C     C_R   1.000000 0.813158 0.500000 -0.077635
C115  C     C_R   0.186842 0.000000 0.500000 -0.077635
C116  C     C_R   0.500000 0.814136 1.000000 -0.039343
C117  C     C_R   0.185864 0.500000 0.000000 -0.039345
C118  C     C_R   0.500000 0.185864 0.000000 -0.039342
C119  C     C_R   0.814136 0.500000 1.000000 -0.039342
C120  C     C_R   1.000000 0.314136 0.500000 -0.039343
C121  C     C_R   0.685864 1.000000 0.500000 -0.039343
C122  C     C_R   1.000000 0.685864 0.500000 -0.039342
C123  C     C_R   0.380082 0.000000 0.500000 0.900232
C124  C     C_R   0.314136 0.000000 0.500000 -0.039342
C125  C     C_R   0.509341 0.943774 0.673377 -0.012797
C126  C     C_R   0.056224 0.509343 0.673377 -0.012798
C127  C     C_R   0.490660 0.056223 0.673377 -0.012796
C128  C     C_R   0.943774 0.490661 0.673377 -0.012797
C129  C     C_R   0.509343 0.056226 0.326623 -0.012796
C130  C     C_R   0.056225 0.490657 0.326623 -0.012797
C131  C     C_R   0.490656 0.943777 0.326623 -0.012797
C132  C     C_R   0.943776 0.509338 0.326623 -0.012797
C133  C     C_R   0.009342 0.443774 0.173377 -0.012797
C134  C     C_1   0.500001 0.999998 0.733216 0.207882
C135  C     C_R   0.556224 0.009343 0.173377 -0.012797
C136  C     C_R   0.990660 0.556223 0.173377 -0.012796
C137  C     C_R   0.443775 0.990662 0.173377 -0.012796
C138  C     C_R   0.009343 0.556226 0.826623 -0.012796
C139  C     C_R   0.556225 0.990657 0.826623 -0.012796
C140  C     C_R   0.990654 0.443778 0.826623 -0.012796
C141  C     C_R   0.443776 0.009338 0.826623 -0.012796
C142  C     C_R   0.509002 0.944764 0.634194 -0.287676
C143  C     C_R   0.055234 0.509003 0.634194 -0.287674
C144  C     C_R   0.490999 0.055234 0.634194 -0.287675
H1    H     H_    0.454158 0.693261 0.053710 0.157353
H2    H     H_    0.806738 0.954158 0.553711 0.157353
H3    H     H_    0.045839 0.806738 0.553711 0.157353
H4    H     H_    0.193261 0.045839 0.553711 0.157353
H5    H     H_    0.954160 0.806739 0.446289 0.157353
H6    H     H_    0.806739 0.045842 0.446290 0.157353
H7    H     H_    0.045841 0.193262 0.446289 0.157353
H8    H     H_    0.193262 0.954161 0.446289 0.157353
H9    H     H_    0.516227 0.902050 0.618865 0.157212
H10   H     H_    0.097949 0.516228 0.618864 0.157212
H11   H     H_    0.483774 0.097948 0.618865 0.157212
H12   H     H_    0.306738 0.454161 0.053712 0.157353
H13   H     H_    0.902050 0.483774 0.618865 0.157212
H14   H     H_    0.516231 0.097950 0.381135 0.157212
H15   H     H_    0.097950 0.483773 0.381136 0.157212
H16   H     H_    0.483769 0.902052 0.381136 0.157212
H17   H     H_    0.902051 0.516225 0.381135 0.157212
H18   H     H_    0.016227 0.402050 0.118864 0.157212
H19   H     H_    0.597949 0.016227 0.118864 0.157213
H20   H     H_    0.983773 0.597948 0.118864 0.157212
H21   H     H_    0.402050 0.983775 0.118865 0.157212
H22   H     H_    0.016233 0.597949 0.881135 0.157211
H23   H     H_    0.545840 0.306738 0.053711 0.157353
H24   H     H_    0.597950 0.983773 0.881136 0.157212
H25   H     H_    0.983766 0.402053 0.881136 0.157212
H26   H     H_    0.402051 0.016225 0.881135 0.157212
H27   H     H_    0.525982 0.841754 0.674459 0.064404
H28   H     H_    0.158244 0.525984 0.674459 0.064404
H29   H     H_    0.474019 0.158243 0.674459 0.064405
H30   H     H_    0.841755 0.474019 0.674459 0.064403
H31   H     H_    0.525989 0.158245 0.325540 0.064403
H32   H     H_    0.158245 0.474017 0.325541 0.064405
H33   H     H_    0.474010 0.841758 0.325541 0.064405
H34   H     H_    0.693261 0.545839 0.053711 0.157353
H35   H     H_    0.841756 0.525981 0.325540 0.064404
H36   H     H_    0.025983 0.341754 0.174459 0.064404
H37   H     H_    0.658244 0.025983 0.174459 0.064404
H38   H     H_    0.974018 0.658243 0.174459 0.064405
H39   H     H_    0.341755 0.974019 0.174460 0.064404
H40   H     H_    0.025993 0.658244 0.825540 0.064403
H41   H     H_    0.658245 0.974017 0.825541 0.064405
H42   H     H_    0.974006 0.341759 0.825541 0.064404
H43   H     H_    0.341756 0.025980 0.825540 0.064405
H44   H     H_    0.427671 0.785771 0.081034 0.189503
H45   H     H_    0.454159 0.306739 0.946290 0.157353
H46   H     H_    0.483749 0.838550 0.075583 0.175480
H47   H     H_    0.214227 0.427680 0.081038 0.189504
H48   H     H_    0.161444 0.483754 0.075583 0.175479
H49   H     H_    0.572327 0.214226 0.081034 0.189504
H50   H     H_    0.516249 0.161447 0.075584 0.175481
H51   H     H_    0.785772 0.572324 0.081035 0.189504
H52   H     H_    0.838552 0.516247 0.075583 0.175480
H53   H     H_    0.427673 0.214229 0.918966 0.189504
H54   H     H_    0.483750 0.161449 0.924417 0.175481
H55   H     H_    0.214228 0.572325 0.918964 0.189504
H56   H     H_    0.306739 0.545839 0.946288 0.157353
H57   H     H_    0.161449 0.516247 0.924416 0.175480
H58   H     H_    0.572327 0.785774 0.918965 0.189504
H59   H     H_    0.516251 0.838554 0.924416 0.175480
H60   H     H_    0.785773 0.427675 0.918965 0.189504
H61   H     H_    0.838552 0.483753 0.924416 0.175481
H62   H     H_    0.927671 0.285771 0.581034 0.189504
H63   H     H_    0.983749 0.338550 0.575583 0.175480
H64   H     H_    0.714227 0.927672 0.581035 0.189504
H65   H     H_    0.661447 0.983749 0.575583 0.175480
H66   H     H_    0.072324 0.714226 0.581035 0.189504
H67   H     H_    0.545841 0.693262 0.946289 0.157353
H68   H     H_    0.016247 0.661447 0.575584 0.175481
H69   H     H_    0.285772 0.072324 0.581035 0.189504
H70   H     H_    0.338552 0.016248 0.575583 0.175480
H71   H     H_    0.927676 0.714229 0.418965 0.189504
H72   H     H_    0.983752 0.661449 0.424417 0.175480
H73   H     H_    0.714228 0.072329 0.418966 0.189504
H74   H     H_    0.661449 0.016251 0.424416 0.175481
H75   H     H_    0.072327 0.285774 0.418965 0.189504
H76   H     H_    0.016251 0.338554 0.424416 0.175480
H77   H     H_    0.285773 0.927675 0.418965 0.189504
H78   H     H_    0.693262 0.454161 0.946289 0.157353
H79   H     H_    0.338552 0.983753 0.424416 0.175481
H80   H     H_    0.954158 0.193261 0.553710 0.157353
N1    N     N_3   0.447518 0.816200 0.061651 -0.439871
N2    N     N_3   0.683799 0.947518 0.561651 -0.439870
N3    N     N_3   0.052479 0.683798 0.561652 -0.439871
N4    N     N_3   0.316200 0.052479 0.561651 -0.439871
N5    N     N_3   0.947520 0.683800 0.438349 -0.439871
N6    N     N_3   0.683800 0.052482 0.438349 -0.439872
N7    N     N_3   0.052482 0.316202 0.438349 -0.439870
N8    N     N_3   0.316201 0.947521 0.438348 -0.439872
N9    N     N_3   0.183799 0.447522 0.061653 -0.439869
N10   N     N_3   0.552481 0.183798 0.061651 -0.439871
N11   N     N_3   0.816200 0.552479 0.061651 -0.439871
N12   N     N_3   0.447519 0.183800 0.938349 -0.439871
N13   N     N_3   0.183799 0.552479 0.938348 -0.439873
N14   N     N_3   0.552482 0.816202 0.938349 -0.439870
N15   N     N_3   0.816201 0.447521 0.938348 -0.439872
N16   N     N_3   0.947518 0.316200 0.561651 -0.439871
O1    O     O_R   0.448380 0.908480 0.999900 -0.609175
O2    O     O_R   0.591520 0.948380 0.499900 -0.609175
O3    O     O_R   0.051620 0.591520 0.499900 -0.609175
O4    O     O_R   0.408480 0.051620 0.499900 -0.609175
O5    O     O_R   0.948380 0.591520 0.500100 -0.609175
O6    O     O_R   0.591520 0.051620 0.500100 -0.609175
O7    O     O_R   0.051620 0.408480 0.500100 -0.609175
O8    O     O_R   0.408480 0.948380 0.500100 -0.609175
O9    O     O_R   0.448380 0.000100 0.944450 -0.623600
O10   O     O_R   0.999900 0.448380 0.944450 -0.623600
O11   O     O_R   0.551620 0.999900 0.944450 -0.623600
O12   O     O_R   0.091520 0.448380 0.999900 -0.609176
O13   O     O_R   0.000100 0.551620 0.944450 -0.623600
O14   O     O_R   0.448380 0.999900 0.055550 -0.623601
O15   O     O_R   0.999900 0.551620 0.055550 -0.623601
O16   O     O_R   0.551620 0.000100 0.055550 -0.623601
O17   O     O_R   0.000100 0.448380 0.055550 -0.623601
O18   O     O_R   0.948380 0.500100 0.444450 -0.623600
O19   O     O_R   0.499900 0.948380 0.444450 -0.623600
O20   O     O_R   0.051620 0.499900 0.444450 -0.623600
O21   O     O_R   0.500100 0.051620 0.444450 -0.623601
O22   O     O_R   0.948380 0.499900 0.555550 -0.623601
O23   O     O_R   0.551620 0.091520 0.999900 -0.609175
O24   O     O_R   0.499900 0.051620 0.555550 -0.623601
O25   O     O_R   0.051620 0.500100 0.555550 -0.623601
O26   O     O_R   0.500100 0.948380 0.555550 -0.623601
O27   O     O_R   0.408370 0.500100 0.031180 -0.625321
O28   O     O_R   0.499900 0.408370 0.031180 -0.625321
O29   O     O_R   0.591630 0.499900 0.031180 -0.625321
O30   O     O_R   0.500100 0.591630 0.031180 -0.625321
O31   O     O_R   0.408370 0.499900 0.968820 -0.625321
O32   O     O_R   0.499900 0.591630 0.968820 -0.625321
O33   O     O_R   0.591630 0.500100 0.968820 -0.625321
O34   O     O_R   0.908480 0.551620 0.999900 -0.609175
O35   O     O_R   0.500100 0.408370 0.968820 -0.625321
O36   O     O_R   0.908370 0.000100 0.531180 -0.625321
O37   O     O_R   0.999900 0.908370 0.531180 -0.625321
O38   O     O_R   0.091630 0.999900 0.531180 -0.625321
O39   O     O_R   0.000100 0.091630 0.531180 -0.625321
O40   O     O_R   0.908370 0.999900 0.468820 -0.625321
O41   O     O_R   0.999900 0.091630 0.468820 -0.625321
O42   O     O_R   0.091630 0.000100 0.468820 -0.625321
O43   O     O_R   0.000100 0.908370 0.468820 -0.625321
O44   O     O_2   0.521662 0.876564 0.725788 -0.556016
O45   O     O_R   0.448380 0.091520 0.000100 -0.609175
O46   O     O_2   0.123432 0.521665 0.725788 -0.556018
O47   O     O_2   0.478341 0.123432 0.725788 -0.556020
O48   O     O_2   0.876565 0.478344 0.725788 -0.556013
O49   O     O_2   0.521666 0.123435 0.274212 -0.556013
O50   O     O_2   0.123434 0.478335 0.274212 -0.556016
O51   O     O_2   0.478332 0.876570 0.274212 -0.556019
O52   O     O_2   0.876567 0.521655 0.274212 -0.556020
O53   O     O_2   0.021663 0.376564 0.225788 -0.556015
O54   O     O_2   0.623432 0.021666 0.225788 -0.556015
O55   O     O_2   0.978341 0.623432 0.225788 -0.556020
O56   O     O_R   0.091520 0.551620 0.000100 -0.609176
O57   O     O_2   0.376565 0.978345 0.225788 -0.556017
O58   O     O_2   0.021664 0.623435 0.774212 -0.556015
O59   O     O_2   0.623434 0.978335 0.774212 -0.556017
O60   O     O_2   0.978327 0.376570 0.774212 -0.556016
O61   O     O_2   0.376567 0.021655 0.774212 -0.556019
O62   O     O_R   0.551620 0.908480 0.000100 -0.609175
O63   O     O_R   0.908480 0.448380 0.000100 -0.609175
O64   O     O_R   0.948380 0.408480 0.499900 -0.609175
Zn1   Zn    Zn3+2 0.431030 0.000000 0.000000 0.978911
Zn2   Zn    Zn3+2 0.500000 0.500000 0.958310 0.963677
Zn3   Zn    Zn3+2 0.000000 0.000000 0.541690 0.963677
Zn4   Zn    Zn3+2 1.000000 0.000000 0.458310 0.963677
Zn5   Zn    Zn3+2 0.000000 0.431030 0.000000 0.978911
Zn6   Zn    Zn3+2 0.568970 0.000000 0.000000 0.978910
Zn7   Zn    Zn3+2 1.000000 0.568970 0.000000 0.978910
Zn8   Zn    Zn3+2 0.931030 0.500000 0.500000 0.978911
Zn9   Zn    Zn3+2 0.500000 0.931030 0.500000 0.978911
Zn10  Zn    Zn3+2 0.068970 0.500000 0.500000 0.978910
Zn11  Zn    Zn3+2 0.500000 0.068970 0.500000 0.978911
Zn12  Zn    Zn3+2 0.500000 0.500000 0.041690 0.963677

loop_
_geom_bond_atom_site_label_1
_geom_bond_atom_site_label_2
_ccdc_geom_bond_type
O40   Zn4   S    
O1    Zn1   S    
C75   C107  S    
C34   O44   D    
C67   H5    S    
H46   N1    S    
C78   C115  S    
C36   O46   D    
C41   C131  S    
H48   N9    S    
C12   C23   A    
C54   C107  A    
O32   Zn2   S    
C97   C124  A    
C98   O11   A    
C50   C140  S    
C29   C132  A    
O13   Zn7   S    
C126  C143  A    
O14   Zn1   S    
O25   Zn10  S    
O31   Zn2   S    
C43   C133  S    
C32   C52   S    
H59   N14   S    
C50   O60   D    
C67   C94   A    
C31   C137  A    
C66   H4    S    
C44   C135  S    
C80   O41   A    
C87   N14   S    
C44   O54   D    
C45   O55   D    
H50   N10   S    
H60   N15   S    
C100  O14   A    
C101  O6    A    
H53   N12   S    
C45   H38   S    
C41   O51   D    
C10   C21   A    
C43   H36   S    
C22   C100  S    
C66   C115  A    
O21   Zn11  S    
C84   N11   S    
C78   O38   A    
C47   H39   S    
C48   H40   S    
C60   C86   A    
C143  H10   S    
C88   N15   S    
C62   C88   A    
C17   C142  A    
C104  O19   A    
C27   C128  A    
O39   Zn3   S    
C71   H8    S    
C89   C120  A    
C90   O7    A    
C106  O24   A    
C88   C119  A    
C7    C132  A    
C2    C52   T    
H63   N16   S    
C54   H1    S    
C94   C122  A    
C5    C130  A    
C79   O34   A    
C30   C136  A    
C43   O53   D    
C59   H45   S    
H65   N2    S    
C14   H24   S    
H49   N10   S    
H79   N8    S    
C56   C83   A    
C40   H32   S    
C16   C25   A    
O64   Zn8   S    
C64   H2    S    
C58   C110  A    
C36   C126  S    
O22   Zn8   S    
C69   C95   A    
C74   C110  S    
C98   O9    A    
C6    H16   S    
H52   N11   S    
C48   C138  S    
H69   N4    S    
C8    H18   S    
O35   Zn2   S    
C33   C139  A    
C84   C119  A    
C59   C109  A    
C86   C117  A    
C63   C111  A    
C61   C107  A    
O4    Zn11  S    
C60   H56   S    
C68   O45   A    
O28   Zn12  S    
O16   Zn6   S    
C82   N9    S    
C11   H21   S    
C64   C91   A    
C100  O16   A    
C44   H37   S    
C54   C81   A    
C34   H27   S    
O38   Zn3   S    
C39   O49   D    
C103  O20   A    
C95   N6    S    
C37   O47   D    
C38   O48   D    
C123  C124  S    
O29   Zn12  S    
C6    C19   A    
C71   C97   A    
C69   C113  A    
O2    Zn9   S    
C17   C144  A    
C69   H6    S    
C41   H33   S    
C18   C143  A    
C102  O15   A    
C92   C122  A    
C34   C125  S    
C27   C126  A    
C38   H30   S    
C75   O32   A    
C105  O25   A    
C49   O59   D    
C61   C87   A    
C68   C118  S    
H68   N3    S    
C72   C108  S    
C92   N3    S    
C31   C46   S    
C80   O39   A    
O63   Zn5   S    
C89   N16   S    
O62   Zn6   S    
C76   C113  S    
C51   C141  S    
C112  O5    A    
C36   H28   S    
O26   Zn9   S    
C39   H31   S    
C51   O61   D    
C3    C128  A    
O9    Zn1   S    
C39   C129  S    
C33   C141  A    
C57   O12   A    
C90   C120  S    
C70   C96   A    
C59   C85   A    
C32   C138  A    
C26   C134  S    
C73   O28   A    
O42   Zn4   S    
H73   N6    S    
O15   Zn7   S    
C19   C104  S    
O56   Zn7   S    
C63   C89   A    
H72   N5    S    
C58   H34   S    
C101  O2    A    
C66   C93   A    
C21   C102  S    
C9    C135  A    
C49   C139  S    
C91   N2    S    
C103  O18   A    
C12   C138  A    
C1    O62   A    
C65   H3    S    
C50   H42   S    
C56   C109  A    
O43   Zn4   S    
H76   N7    S    
C70   H7    S    
H75   N7    S    
O33   Zn2   S    
H58   N14   S    
C75   O30   A    
C55   C108  A    
C16   C141  A    
C17   C106  S    
C56   H23   S    
C26   C127  A    
C62   H78   S    
C90   O64   A    
C49   H41   S    
C91   C121  A    
O20   Zn10  S    
C3    H13   S    
C20   C103  S    
O45   Zn1   S    
C67   C114  A    
C32   C140  A    
C123  O8    A    
C48   O58   D    
C97   N8    S    
H66   N3    S    
C96   N7    S    
C9    H19   S    
C24   C29   S    
H74   N6    S    
O10   Zn5   S    
C105  O22   A    
C79   C119  S    
C72   O31   A    
C13   C28   S    
C40   O50   D    
C2    C27   S    
C60   C108  A    
C95   C121  A    
O12   Zn5   S    
H51   N11   S    
H55   N13   S    
C106  O26   A    
C31   C135  A    
C5    C20   A    
C76   O40   A    
C101  C121  S    
C26   C125  A    
C7    H17   S    
C42   H35   S    
C77   O43   A    
C38   C128  S    
C87   C116  A    
O19   Zn9   S    
O11   Zn6   S    
C104  O21   A    
O27   Zn12  S    
C79   O63   A    
O37   Zn3   S    
C57   C117  S    
C15   C140  A    
C40   C130  S    
C53   C134  T    
C6    C131  A    
O6    Zn11  S    
C73   C109  S    
C4    C129  A    
H47   N9    S    
O30   Zn12  S    
C74   O33   A    
C11   C137  A    
C57   O56   A    
H54   N12   S    
C80   C111  S    
C127  C144  A    
C14   C25   A    
C85   C118  A    
C18   C105  S    
C51   H43   S    
C70   C111  A    
C16   H26   S    
C7    C20   A    
C42   C132  S    
C82   C117  A    
C65   C92   A    
C23   C99   S    
C85   N12   S    
C65   C114  A    
C93   C124  A    
O5    Zn8   S    
C15   H25   S    
C81   N1    S    
C30   C35   S    
C83   C118  A    
C47   O57   D    
C10   C136  A    
O36   Zn3   S    
O24   Zn11  S    
C12   H22   S    
C13   C46   T    
C9    C22   A    
C86   N13   S    
C81   C116  A    
C3    C18   A    
C28   C129  A    
C61   H67   S    
C77   O37   A    
H61   N15   S    
O17   Zn5   S    
C78   O42   A    
H77   N8    S    
C4    C19   A    
C112  O3    A    
C4    H14   S    
C5    H15   S    
C1    C116  S    
H70   N4    S    
H64   N2    S    
C15   C23   A    
O7    Zn10  S    
C76   O36   A    
O8    Zn9   S    
C99   O10   A    
C123  O4    A    
C74   O29   A    
C33   C53   S    
C55   H12   S    
C42   O52   D    
C24   C35   T    
H44   N1    S    
C72   O27   A    
C112  C122  S    
C58   C84   A    
C29   C130  A    
C62   C110  A    
C83   N10   S    
C125  C142  A    
C30   C133  A    
C47   C137  S    
C8    C21   A    
C71   C115  A    
C55   C82   A    
C1    O1    A    
O34   Zn7   S    
C45   C136  S    
C10   H20   S    
C64   C113  A    
C8    C133  A    
H71   N5    S    
C63   H80   S    
C96   C120  A    
H57   N13   S    
C11   C22   A    
C102  O17   A    
C28   C131  A    
C144  H11   S    
O41   Zn4   S    
C99   O13   A    
O18   Zn8   S    
C93   N4    S    
C73   O35   A    
C142  H9    S    
C37   H29   S    
C25   C98   S    
C14   C139  A    
O3    Zn10  S    
H62   N16   S    
O23   Zn6   S    
C68   O23   A    
C77   C114  S    
C94   N5    S    
C37   C127  S    
