data_mof_unit_36532.cif
_audit_creation_date              2012-12-10T18:23:01-0500
_audit_creation_method            fapswitch 2.2
_symmetry_space_group_name_H-M    P1
_symmetry_Int_Tables_number       1
_space_group_crystal_system       triclinic
_cell_length_a                    14.99817
_cell_length_b                    14.18346
_cell_length_c                    10.495106
_cell_angle_alpha                 90.077571
_cell_angle_beta                  87.467146
_cell_angle_gamma                 90.121971
_cell_volume                      2230.39337652

loop_
_atom_site_label
_atom_site_type_symbol
_atom_type_description
_atom_site_fract_x
_atom_site_fract_y
_atom_site_fract_z
_atom_type_partial_charge
Br1   Br    Br    0.642390 0.726091 0.316657 -0.585640
Br2   Br    Br    0.370117 0.271725 0.702627 -0.575098
Br3   Br    Br    0.355076 0.728352 0.681478 -0.598702
Br4   Br    Br    0.626595 0.269207 0.291258 -0.587313
C1    C     C_R   0.326769 0.499896 0.499129 0.907890
C2    C     C_R   0.953768 0.327906 0.481290 -0.209989
C3    C     C_R   0.556733 0.798447 0.416360 0.298000
C4    C     C_R   0.439502 0.201385 0.577535 0.300816
C5    C     C_R   0.445088 0.798540 0.585434 0.288080
C6    C     C_R   0.561065 0.201431 0.423959 0.286869
C7    C     C_R   0.447490 0.899288 0.592164 -0.098289
C8    C     C_R   0.567162 0.101114 0.430606 -0.093807
C9    C     C_R   0.557750 0.899623 0.412806 -0.068611
C10   C     C_R   0.435616 0.100514 0.575509 -0.063714
C11   C     C_R   0.502519 0.949453 0.502826 -0.035752
C12   C     C_R   0.673254 0.500030 0.499382 0.905516
C13   C     C_R   0.501874 0.050611 0.503221 -0.035820
C14   C     C_R   0.392913 0.952898 0.679645 0.136082
C15   C     C_R   0.633404 0.048572 0.361718 0.147295
C16   C     C_R   0.614161 0.954545 0.327692 0.195878
C17   C     C_R   0.370996 0.046241 0.646946 0.205747
C18   C     C_R   0.499889 0.499996 0.257670 0.897185
C19   C     C_R   0.500170 0.500085 0.742335 0.898508
C20   C     C_3   0.458015 0.578463 0.044781 -0.179384
C21   C     C_3   0.542192 0.422051 0.955297 -0.157387
C22   C     C_3   0.543022 0.578175 0.955617 -0.178998
C23   C     C_R   0.953807 0.499856 0.492558 0.062852
C24   C     C_3   0.457095 0.422338 0.044364 -0.158789
C25   C     C_3   0.416130 0.500647 0.964304 0.185230
C26   C     C_3   0.584031 0.499937 0.035740 0.187772
C27   C     C_3   0.500155 0.500303 0.877227 -0.079472
C28   C     C_3   0.499997 0.500139 0.122795 -0.075885
C29   C     C_R   0.815098 0.414142 0.489636 -0.241507
C30   C     C_R   0.185063 0.585550 0.497722 -0.233263
C31   C     C_R   0.769289 0.499964 0.497142 -0.080803
C32   C     C_R   0.230880 0.499737 0.495638 -0.082376
C33   C     C_R   0.815250 0.585688 0.501813 -0.232612
C34   C     C_R   0.046571 0.499807 0.491974 0.062065
C35   C     C_R   0.185092 0.413921 0.489493 -0.238530
C36   C     C_R   0.907484 0.586314 0.499019 0.109230
C37   C     C_R   0.092916 0.413335 0.487260 0.113803
C38   C     C_3   0.320613 0.501582 0.919425 -0.386229
C39   C     C_3   0.252831 0.501344 0.032147 -0.851126
C40   C     C_3   0.679539 0.500113 0.080709 -0.385729
C41   C     C_3   0.747366 0.499430 0.968063 -0.851396
C42   C     C_3   0.369370 0.919462 0.815124 -0.389250
C43   C     C_3   0.386235 0.994401 0.916459 -0.888114
C44   C     C_3   0.729127 0.084443 0.343661 -0.388715
C45   C     C_R   0.907358 0.413444 0.487620 0.111766
C46   C     C_3   0.797252 0.013991 0.391265 -0.897522
C47   C     C_3   0.641722 0.925641 0.191489 -0.363371
C48   C     C_3   0.561414 0.895827 0.116048 -0.836189
C49   C     C_3   0.273437 0.075043 0.667778 -0.364324
C50   C     C_3   0.232455 0.106073 0.543807 -0.860496
C51   C     C_R   0.092952 0.586235 0.496899 0.107650
C52   C     C_R   0.953973 0.671852 0.503180 -0.208276
C53   C     C_R   0.046425 0.327869 0.481256 -0.209364
C54   C     C_R   0.046615 0.671820 0.501844 -0.205930
H1    H     H_    0.423538 0.641727 0.085097 0.162686
H2    H     H_    0.081648 0.261276 0.476879 0.148130
H3    H     H_    0.081955 0.738441 0.505544 0.155867
H4    H     H_    0.918439 0.261293 0.477039 0.149844
H5    H     H_    0.260662 0.437035 0.090857 0.256918
H6    H     H_    0.261752 0.564706 0.092621 0.256715
H7    H     H_    0.184246 0.502121 0.996459 0.262666
H8    H     H_    0.310774 0.565504 0.860949 0.244315
H9    H     H_    0.309666 0.438660 0.859215 0.245292
H10   H     H_    0.738864 0.435223 0.909080 0.257795
H11   H     H_    0.739160 0.562904 0.907855 0.256268
H12   H     H_    0.576768 0.358852 0.914993 0.171971
H13   H     H_    0.815935 0.499652 0.003835 0.262402
H14   H     H_    0.690058 0.563918 0.139442 0.244419
H15   H     H_    0.689806 0.437100 0.140699 0.245366
H16   H     H_    0.456327 0.019853 0.907078 0.273343
H17   H     H_    0.340332 0.055020 0.908783 0.269473
H18   H     H_    0.374062 0.963221 0.012622 0.252613
H19   H     H_    0.298424 0.896914 0.823880 0.232085
H20   H     H_    0.412665 0.859438 0.839745 0.248416
H21   H     H_    0.779909 0.993866 0.491617 0.267532
H22   H     H_    0.799920 0.949700 0.330925 0.267240
H23   H     H_    0.578213 0.641200 0.915641 0.164166
H24   H     H_    0.864650 0.046738 0.387118 0.251917
H25   H     H_    0.745298 0.101256 0.241991 0.228768
H26   H     H_    0.738595 0.149220 0.400956 0.237371
H27   H     H_    0.529018 0.831400 0.155960 0.280807
H28   H     H_    0.511731 0.953676 0.118079 0.254508
H29   H     H_    0.583119 0.881489 0.015355 0.251792
H30   H     H_    0.671600 0.986520 0.138555 0.200418
H31   H     H_    0.695271 0.872377 0.186968 0.240188
H32   H     H_    0.263942 0.171859 0.506601 0.271413
H33   H     H_    0.240750 0.049817 0.470499 0.257167
H34   H     H_    0.421838 0.359378 0.084393 0.171513
H35   H     H_    0.160056 0.119306 0.561687 0.243471
H36   H     H_    0.233026 0.013892 0.702916 0.200822
H37   H     H_    0.263281 0.128877 0.742951 0.241318
H38   H     H_    0.779212 0.347804 0.485713 0.183243
H39   H     H_    0.220751 0.651963 0.500677 0.198780
H40   H     H_    0.779509 0.652004 0.508137 0.192682
H41   H     H_    0.220918 0.347584 0.486679 0.180603
H42   H     H_    0.918727 0.738495 0.507781 0.154334
N1    N     N_R   0.500000 0.750030 0.500000 -0.131842
N2    N     N_R   0.500000 0.249970 0.500000 -0.133604
O1    O     O_R   0.367850 0.580280 0.500030 -0.588107
O2    O     O_R   0.632150 0.419720 0.499970 -0.601087
O3    O     O_R   0.632150 0.580280 0.499970 -0.589152
O4    O     O_R   0.367850 0.419720 0.500030 -0.598243
O5    O     O_R   0.499970 0.580260 0.313950 -0.591945
O6    O     O_R   0.500030 0.419740 0.686050 -0.583723
O7    O     O_R   0.500030 0.580260 0.686050 -0.592510
O8    O     O_R   0.499970 0.419740 0.313950 -0.582642
Zn1   Zn    Zn3+2 0.500000 0.607200 0.500000 1.012277
Zn2   Zn    Zn3+2 0.500000 0.392800 0.500000 1.013478

loop_
_geom_bond_atom_site_label_1
_geom_bond_atom_site_label_2
_ccdc_geom_bond_type
C21   C27   S    
C3    C9    A    
C26   C28   S    
C1    O1    A    
C7    C14   A    
C25   C38   S    
C49   H37   S    
C14   C17   A    
N2    Zn2   S    
C15   C16   A    
C10   C13   A    
C46   H21   S    
C39   H5    S    
C35   C37   A    
O4    Zn2   S    
C49   C50   S    
C21   C24   S    
C18   C28   S    
C10   C17   A    
C48   H27   S    
C31   C33   A    
C20   C22   S    
C43   H18   S    
C50   H32   S    
C16   C47   S    
O7    Zn1   S    
C12   C31   S    
C41   H13   S    
C23   C34   A    
C29   C45   A    
C18   O5    A    
C1    C32   S    
C30   H39   S    
O1    Zn1   S    
C20   C25   S    
C50   H35   S    
C7    C11   A    
C12   O2    A    
C34   C51   A    
C18   O8    A    
C8    C13   A    
C54   H3    S    
C44   C46   S    
O3    Zn1   S    
C30   C51   A    
C2    C53   A    
C26   C40   S    
C14   C42   S    
C33   H40   S    
C39   H6    S    
C1    O4    A    
C48   H29   S    
C19   O7    A    
C41   H11   S    
C47   C48   S    
C6    N2    A    
C34   C37   A    
C42   H20   S    
C15   C44   S    
C53   H2    S    
C36   C52   A    
O6    Zn2   S    
C19   C27   S    
C20   C28   S    
Br3   C5    S    
C35   H41   S    
C24   C28   S    
C23   C36   A    
C39   H7    S    
C41   H10   S    
C24   H34   S    
C5    C7    A    
C6    C8    A    
C12   O3    A    
C22   C26   S    
C22   H23   S    
C9    C11   A    
C38   H9    S    
N1    Zn1   S    
C38   C39   S    
C52   H42   S    
Br4   C6    S    
C29   H38   S    
C40   C41   S    
C46   H24   S    
O2    Zn2   S    
C21   C26   S    
C11   C13   A    
C42   C43   S    
C24   C25   S    
C4    C10   A    
C9    C16   A    
C49   H36   S    
Br1   C3    S    
O5    Zn1   S    
C32   C35   A    
Br2   C4    S    
C43   H16   S    
C46   H22   S    
C47   H30   S    
C42   H19   S    
C33   C36   A    
C44   H25   S    
C2    H4    S    
C48   H28   S    
C37   C53   A    
C50   H33   S    
C25   C27   S    
C47   H31   S    
C17   C49   S    
C20   H1    S    
C19   O6    A    
C8    C15   A    
C29   C31   A    
C52   C54   A    
C40   H14   S    
C30   C32   A    
C2    C45   A    
C40   H15   S    
O8    Zn2   S    
C43   H17   S    
C44   H26   S    
C22   C27   S    
C5    N1    A    
C3    N1    A    
C51   C54   A    
C38   H8    S    
C21   H12   S    
C4    N2    A    
C23   C45   A    
