data_mof_unit_62566.cif
_audit_creation_date              2012-12-10T16:35:09-0500
_audit_creation_method            fapswitch 2.2
_symmetry_space_group_name_H-M    P1
_symmetry_Int_Tables_number       1
_space_group_crystal_system       triclinic
_cell_length_a                    10.846787
_cell_length_b                    10.846482
_cell_length_c                    10.858509
_cell_angle_alpha                 80.78638
_cell_angle_beta                  98.470545
_cell_angle_gamma                 90.330536
_cell_volume                      1247.05275338

loop_
_atom_site_label
_atom_site_type_symbol
_atom_type_description
_atom_site_fract_x
_atom_site_fract_y
_atom_site_fract_z
_atom_type_partial_charge
C1    C     C_R   0.835111 0.471886 0.528330 0.856414
C2    C     C_2   0.463876 0.029966 0.529028 -0.350335
C3    C     C_2   0.533551 0.968536 0.466600 -0.297703
C4    C     C_2   0.029143 0.538165 0.461597 -0.345110
C5    C     C_3   0.466626 0.753485 0.946865 0.089400
C6    C     C_3   0.383294 0.860490 0.870829 -0.311698
C7    C     C_3   0.449428 0.985308 0.867802 -0.959542
C8    C     C_2   0.968382 0.461300 0.539436 -0.289144
C9    C     C_2   0.473018 0.545211 0.023364 0.302289
C10   C     C_2   0.531679 0.461305 0.973667 -0.415956
C11   C     C_R   0.163898 0.527555 0.472465 0.897736
C12   C     C_R   0.524491 0.471214 0.839146 0.932840
C13   C     C_R   0.477358 0.528819 0.160059 0.762193
C14   C     C_R   0.524088 0.835313 0.475707 0.857469
C15   C     C_R   0.475756 0.164187 0.522980 0.887732
H1    H     H_    0.397925 0.980798 0.584582 0.152444
H2    H     H_    0.475883 0.006091 0.965031 0.264625
H3    H     H_    0.385957 0.061030 0.812968 0.285184
H4    H     H_    0.534480 0.983206 0.822283 0.264014
H5    H     H_    0.601232 0.015246 0.411615 0.160680
H6    H     H_    0.979012 0.609010 0.389709 0.146445
H7    H     H_    0.016257 0.389965 0.612164 0.163025
H8    H     H_    0.583475 0.382183 0.032004 0.131765
H9    H     H_    0.552551 0.748359 0.902745 0.153848
H10   H     H_    0.492954 0.774042 0.044555 0.138306
H11   H     H_    0.356356 0.841908 0.772845 0.215057
H12   H     H_    0.297014 0.865895 0.913861 0.236345
O1    O     O_3   0.500000 0.500000 0.500000 -0.493902
O2    O     O_R   0.597340 0.765700 0.560080 -0.636338
O3    O     O_R   0.548200 0.222430 0.451790 -0.638016
O4    O     O_R   0.441590 0.789440 0.401000 -0.637299
O5    O     O_R   0.412860 0.222430 0.587130 -0.654804
O6    O     O_3   0.400934 0.640714 0.946238 -0.629380
O7    O     O_R   0.441590 0.410520 0.779910 -0.629706
O8    O     O_R   0.548210 0.443940 0.230290 -0.662657
O9    O     O_R   0.787780 0.544200 0.591150 -0.635466
O10   O     O_R   0.222430 0.601350 0.398650 -0.641639
O11   O     O_R   0.767360 0.410530 0.454140 -0.635831
O12   O     O_R   0.222430 0.443930 0.556060 -0.636411
O13   O     O_R   0.597340 0.544190 0.781580 -0.650057
O14   O     O_R   0.412870 0.601350 0.208220 -0.623697
Zn1   Zn    Zn3+2 0.396020 0.396030 0.603970 0.975051
Zn2   Zn    Zn3+2 0.618560 0.587010 0.606350 0.966467
Zn3   Zn    Zn3+2 0.396030 0.620930 0.379070 0.977752
Zn4   Zn    Zn3+2 0.589390 0.396030 0.410610 0.957608

loop_
_geom_bond_atom_site_label_1
_geom_bond_atom_site_label_2
_ccdc_geom_bond_type
C12   O13   A    
C8    H7    S    
C6    C7    S    
C4    H6    S    
C10   H8    S    
C1    C8    S    
C2    H1    S    
C9    C10   D    
O3    Zn4   S    
C6    H12   S    
O7    Zn1   S    
C14   O4    A    
C4    C8    D    
C7    H3    S    
O10   Zn3   S    
C13   O14   A    
C2    C3    D    
C15   O5    A    
O2    Zn2   S    
C4    C11   S    
C11   O12   A    
C2    C15   S    
C5    H9    S    
C6    H11   S    
C3    C14   S    
C10   C12   S    
C1    O11   A    
C9    O6    S    
C5    H10   S    
O1    Zn1   S    
C13   O8    A    
O12   Zn1   S    
C7    H4    S    
C5    C6    S    
O14   Zn3   S    
O1    Zn4   S    
O4    Zn3   S    
C14   O2    A    
C12   O7    A    
O8    Zn4   S    
C3    H5    S    
C15   O3    A    
C11   O10   A    
C9    C13   S    
O9    Zn2   S    
O5    Zn1   S    
O1    Zn2   S    
C7    H2    S    
O1    Zn3   S    
O13   Zn2   S    
C1    O9    A    
O11   Zn4   S    
C5    O6    S    
