data_mof_unit_61527.cif
_audit_creation_date              2013-03-05T16:28:24-0500
_audit_creation_method            fapswitch 2.2
_symmetry_space_group_name_H-M    P1
_symmetry_Int_Tables_number       1
_space_group_crystal_system       triclinic
_cell_length_a                    18.272984
_cell_length_b                    18.268045
_cell_length_c                    21.413612
_cell_angle_alpha                 90.009128
_cell_angle_beta                  89.998802
_cell_angle_gamma                 90.008454
_cell_volume                      7148.11392622

loop_
_atom_site_label
_atom_site_type_symbol
_atom_site_description
_atom_site_fract_x
_atom_site_fract_y
_atom_site_fract_z
_atom_type_partial_charge
O1    O     O_R   0.439410 0.107330 0.500000 -0.634269
O2    O     O_R   0.439410 0.892670 0.500000 -0.628300
O3    O     O_R   0.939410 0.607330 0.000000 -0.635741
O4    O     O_R   0.939410 0.392670 0.000000 -0.625036
O5    O     O_R   0.560610 0.107310 0.500000 -0.578627
O6    O     O_R   0.560610 0.892690 0.500000 -0.578280
O7    O     O_R   0.060610 0.607310 0.000000 -0.577270
O8    O     O_R   0.060610 0.392690 0.000000 -0.581447
C1    C     C_R   0.500019 0.141246 0.500003 0.966807
C2    C     C_R   0.500010 0.858754 0.499994 0.972353
C3    C     C_R   0.000019 0.641246 0.000003 0.965024
C4    C     C_R   0.000010 0.358754 0.000004 0.978027
O9    O     O_R   0.439410 0.000000 0.593020 -0.628818
O10   O     O_R   0.439410 0.000000 0.406980 -0.638639
O11   O     O_R   0.939410 0.500000 0.093020 -0.629908
O12   O     O_R   0.939410 0.500000 0.906980 -0.633689
O13   O     O_R   0.560610 0.000000 0.593010 -0.573425
O14   O     O_R   0.560610 0.000000 0.406990 -0.571476
O15   O     O_R   0.060610 0.500000 0.093010 -0.572348
O16   O     O_R   0.060610 0.500000 0.906990 -0.576723
C5    C     C_R   0.499967 0.000017 0.621611 1.027687
C6    C     C_R   0.499969 0.000001 0.378390 1.017361
C7    C     C_R   0.999966 0.500018 0.121611 1.025912
C8    C     C_R   0.999968 0.500003 0.878391 1.027446
Zn1   Zn    Zn3+2 0.419080 0.000000 0.500000 1.056195
Zn2   Zn    Zn3+2 0.919080 0.500000 0.000000 1.060591
Zn3   Zn    Zn3+2 0.580940 0.000000 0.500000 1.161099
Zn4   Zn    Zn3+2 0.080940 0.500000 0.000000 1.163286
C9    C     C_3   0.533207 0.059005 0.730404 0.229495
C10   C     C_3   0.532459 0.940606 0.269595 0.227240
C11   C     C_3   0.533513 0.058879 0.269650 0.255020
C12   C     C_3   0.532729 0.940720 0.730360 0.247507
C13   C     C_3   0.033252 0.558979 0.230406 0.226184
C14   C     C_3   0.032478 0.440595 0.769612 0.247526
C15   C     C_3   0.033510 0.558863 0.769655 0.255218
C16   C     C_3   0.032670 0.440693 0.230362 0.247277
C17   C     C_3   0.568312 0.999709 0.772162 -0.346927
C18   C     C_3   0.568329 0.999450 0.227837 -0.343388
C19   C     C_3   0.068303 0.499651 0.272164 -0.343761
C20   C     C_3   0.068358 0.499436 0.727853 -0.368025
H1    H     H_    0.625064 0.999481 0.790670 0.212678
H2    H     H_    0.625079 0.998964 0.209330 0.210388
H3    H     H_    0.125054 0.499374 0.290674 0.214468
H4    H     H_    0.125118 0.498960 0.709366 0.214014
C21   C     C_3   0.497155 0.999975 0.811311 -0.289977
C22   C     C_3   0.497173 0.000098 0.188693 -0.263564
C23   C     C_3   0.997145 0.499980 0.311310 -0.290716
C24   C     C_3   0.997211 0.500069 0.688691 -0.289396
C25   C     C_3   0.463580 0.059785 0.769984 0.312516
C26   C     C_3   0.462828 0.940715 0.230013 0.335638
C27   C     C_3   0.463917 0.060059 0.230071 0.325319
C28   C     C_3   0.463117 0.940444 0.769950 0.400330
C29   C     C_3   0.963625 0.559819 0.269984 0.311428
C30   C     C_3   0.962876 0.440679 0.730012 0.418472
C31   C     C_3   0.963921 0.560020 0.730065 0.318259
C32   C     C_3   0.963056 0.440480 0.269948 0.400203
C33   C     C_3   0.428748 0.000251 0.728100 -0.339682
C34   C     C_3   0.428770 0.000671 0.271908 -0.391003
C35   C     C_3   0.928744 0.500317 0.228098 -0.339059
C36   C     C_3   0.928778 0.500621 0.771899 -0.387292
C37   C     C_3   0.499611 0.000005 0.688617 -0.302220
C38   C     C_3   0.499625 0.000020 0.311387 -0.287541
C39   C     C_3   0.999608 0.500007 0.188617 -0.301377
C40   C     C_3   0.999617 0.500005 0.811390 -0.295050
H5    H     H_    0.371855 0.000481 0.709890 0.239499
H6    H     H_    0.371880 0.001077 0.290123 0.225171
H7    H     H_    0.871852 0.500594 0.209886 0.239398
H8    H     H_    0.871877 0.501020 0.790088 0.224802
C41   C     C_1   0.500044 0.217745 0.499997 -0.082200
C42   C     C_1   0.500019 0.782255 0.500000 -0.077846
C43   C     C_1   0.000044 0.717745 0.999997 -0.080727
C44   C     C_1   0.000021 0.282255 0.000010 -0.068635
C45   C     C_1   0.500050 0.282546 0.499992 -0.113974
C46   C     C_1   0.500030 0.717453 0.500007 -0.113011
C47   C     C_1   0.000050 0.782546 0.999992 -0.112842
C48   C     C_1   0.000032 0.217453 0.000012 -0.108454
O17   O     O_R   0.607280 0.939410 0.000000 -0.613611
O18   O     O_R   0.607280 0.060590 0.000000 -0.614511
O19   O     O_R   0.107280 0.439410 0.500000 -0.613970
O20   O     O_R   0.107280 0.560590 0.500000 -0.613740
C49   C     C_R   0.641221 0.000005 0.000000 0.893444
C50   C     C_R   0.141221 0.500004 0.500000 0.893930
O21   O     O_R   0.499930 0.939410 0.906960 -0.580390
O22   O     O_R   0.499930 0.060590 0.093040 -0.581245
O23   O     O_R   0.499930 0.939410 0.093040 -0.580060
O24   O     O_R   0.499930 0.060590 0.906960 -0.578768
O25   O     O_R   0.999930 0.439410 0.406960 -0.580556
O26   O     O_R   0.999930 0.560590 0.593040 -0.579746
O27   O     O_R   0.999930 0.439410 0.593040 -0.580089
O28   O     O_R   0.999930 0.560590 0.406960 -0.578373
C51   C     C_R   0.497755 0.999992 0.878362 0.961322
C52   C     C_R   0.497755 0.000021 0.121640 0.954277
C53   C     C_R   0.997750 0.499993 0.378362 0.961925
C54   C     C_R   0.997772 0.500016 0.621640 0.960622
Zn5   Zn    Zn3+2 0.499940 0.919080 0.000000 1.162580
Zn6   Zn    Zn3+2 0.499940 0.080920 0.000000 1.163876
Zn7   Zn    Zn3+2 0.999940 0.419080 0.500000 1.160123
Zn8   Zn    Zn3+2 0.999940 0.580920 0.500000 1.165299
O29   O     O_R   0.392580 0.939390 0.000000 -0.590796
O30   O     O_R   0.392580 0.060610 0.000000 -0.590568
O31   O     O_R   0.892580 0.439390 0.500000 -0.591786
O32   O     O_R   0.892580 0.560610 0.500000 -0.590714
C55   C     C_R   0.358669 0.999995 0.999999 0.941989
C56   C     C_R   0.858669 0.499995 0.499999 0.942553
O33   O     O_R   0.607360 0.500000 0.552500 -0.599843
O34   O     O_R   0.607360 0.500000 0.447500 -0.597231
O35   O     O_R   0.107360 1.000000 0.052500 -0.598670
O36   O     O_R   0.107360 0.000000 0.947500 -0.597457
C57   C     C_R   0.640945 0.499996 0.499999 0.912253
C58   C     C_R   0.140945 0.999996 0.999999 0.912638
O37   O     O_R   0.500010 0.392660 0.552500 -0.605048
O38   O     O_R   0.500010 0.607340 0.447500 -0.602679
O39   O     O_R   0.500010 0.392660 0.447500 -0.595321
O40   O     O_R   0.500010 0.607340 0.552500 -0.599336
O41   O     O_R   0.000010 0.892660 0.052500 -0.603817
O42   O     O_R   0.000010 0.107340 0.947500 -0.599645
O43   O     O_R   0.000010 0.892660 0.947500 -0.596000
O44   O     O_R   0.000010 0.107340 0.052500 -0.600573
C59   C     C_R   0.500034 0.359061 0.499996 0.906331
C60   C     C_R   0.500028 0.640939 0.500003 0.906745
C61   C     C_R   0.000034 0.859061 0.999996 0.906818
C62   C     C_R   0.000029 0.140939 0.000004 0.905535
Zn9   Zn    Zn3+2 0.500000 0.500000 0.570120 1.088719
Zn10  Zn    Zn3+2 0.500000 0.500000 0.429880 1.102176
Zn11  Zn    Zn3+2 1.000000 1.000000 0.070120 1.091324
Zn12  Zn    Zn3+2 1.000000 0.000000 0.929880 1.100851
O45   O     O_R   0.392660 0.500000 0.552510 -0.610571
O46   O     O_R   0.392660 0.500000 0.447490 -0.606634
O47   O     O_R   0.892660 0.000000 0.052510 -0.610101
O48   O     O_R   0.892660 1.000000 0.947490 -0.608620
C63   C     C_R   0.359060 0.500003 0.500000 0.902150
C64   C     C_R   0.859060 0.000003 0.000000 0.901805
C65   C     C_1   0.717735 0.000012 0.000001 -0.131547
C66   C     C_1   0.217735 0.500012 0.500001 -0.130179
C67   C     C_1   0.282538 0.500010 0.500002 -0.135736
C68   C     C_1   0.782538 0.000010 0.000002 -0.136896
C69   C     C_1   0.282207 0.999987 0.999998 -0.066544
C70   C     C_1   0.782207 0.499987 0.499998 -0.067111
C71   C     C_1   0.717429 0.499989 0.499998 -0.103466
C72   C     C_1   0.217430 0.999989 0.999998 -0.101876
N1    N     N_R   0.571377 0.124881 0.709933 0.229705
O49   O     O_R   0.602520 0.167112 0.750956 -0.304787
O50   O     O_R   0.572977 0.143001 0.651245 -0.396533
N2    N     N_R   0.569778 0.874265 0.290083 0.229525
O51   O     O_R   0.600236 0.831543 0.249062 -0.291150
O52   O     O_R   0.571437 0.856330 0.348812 -0.392235
N3    N     N_R   0.571881 0.124620 0.290178 0.250821
O53   O     O_R   0.603402 0.166635 0.249214 -0.297015
O54   O     O_R   0.573009 0.143012 0.348819 -0.373504
N4    N     N_R   0.570263 0.874518 0.709817 0.254483
O55   O     O_R   0.601164 0.832048 0.750776 -0.292166
O56   O     O_R   0.571488 0.856336 0.651131 -0.367867
N5    N     N_R   0.071476 0.624824 0.209936 0.232125
O57   O     O_R   0.102643 0.667035 0.250961 -0.289845
O58   O     O_R   0.073076 0.642955 0.151250 -0.391520
N6    N     N_R   0.069684 0.374206 0.790131 0.254196
O59   O     O_R   0.100347 0.331569 0.749155 -0.286007
O60   O     O_R   0.070921 0.356077 0.848823 -0.368574
N7    N     N_R   0.071846 0.624623 0.790182 0.252436
O61   O     O_R   0.103342 0.666654 0.749215 -0.295412
O62   O     O_R   0.072948 0.643028 0.848819 -0.374380
N8    N     N_R   0.070148 0.374458 0.209822 0.254979
O63   O     O_R   0.100991 0.331952 0.250786 -0.291497
O64   O     O_R   0.071402 0.356298 0.151132 -0.368614
S1    S     S_3+6 0.415303 0.139499 0.794908 0.119906
O65   O     O_2   0.353922 0.117062 0.837488 -0.232669
O66   O     O_2   0.465974 0.190204 0.829314 -0.213145
O67   O     O_3   0.380372 0.182818 0.732406 -0.479627
H9    H     H_    0.422999 0.193005 0.705183 0.364241
S2    S     S_3+6 0.413524 0.861648 0.205024 0.118831
O68   O     O_2   0.352476 0.884908 0.162428 -0.236117
O69   O     O_2   0.463545 0.810319 0.170614 -0.213056
O70   O     O_3   0.377981 0.818738 0.267486 -0.477845
H10   H     H_    0.420430 0.808143 0.294794 0.364365
S3    S     S_3+6 0.416426 0.140359 0.205435 0.119496
O71   O     O_2   0.467281 0.188819 0.168978 -0.179694
O72   O     O_2   0.352691 0.119216 0.164913 -0.269646
O73   O     O_3   0.386074 0.186241 0.268358 -0.471133
H11   H     H_    0.354399 0.150999 0.290838 0.353141
S4    S     S_3+6 0.414448 0.860981 0.794738 0.097626
O74   O     O_2   0.464864 0.811072 0.830223 -0.223873
O75   O     O_2   0.351908 0.883665 0.836003 -0.276368
O76   O     O_3   0.381938 0.817135 0.731543 -0.512968
H12   H     H_    0.355360 0.774186 0.748363 0.400268
S5    S     S_3+6 0.915410 0.639573 0.294905 0.120176
O77   O     O_2   0.853994 0.617184 0.337466 -0.232568
O78   O     O_2   0.966111 0.690230 0.329329 -0.212127
O79   O     O_3   0.880541 0.682928 0.232397 -0.479339
H13   H     H_    0.923203 0.693188 0.205234 0.364286
S6    S     S_3+6 0.913820 0.361467 0.705168 0.096533
O80   O     O_2   0.851423 0.384477 0.663886 -0.280299
O81   O     O_2   0.964001 0.311307 0.669685 -0.223006
O82   O     O_3   0.881045 0.317776 0.768331 -0.513273
H14   H     H_    0.854269 0.274960 0.751483 0.400315
S7    S     S_3+6 0.916408 0.640321 0.705449 0.120074
O83   O     O_2   0.967218 0.688741 0.668909 -0.178915
O84   O     O_2   0.852602 0.619163 0.665014 -0.269461
O85   O     O_3   0.886165 0.686268 0.768379 -0.471315
H15   H     H_    0.855094 0.650834 0.791246 0.352357
S8    S     S_3+6 0.914290 0.361079 0.294742 0.097164
O86   O     O_2   0.964638 0.311083 0.330206 -0.223514
O87   O     O_2   0.851808 0.383865 0.336031 -0.277626
O88   O     O_3   0.881680 0.317290 0.231556 -0.513260
H16   H     H_    0.854167 0.274954 0.248420 0.400264

loop_
_geom_bond_atom_site_label_1
_geom_bond_atom_site_label_2
_geom_bond_distance
_ccdc_geom_bond_type
C34   C38   1.546343 S    
C24   C31   1.534355 S    
O29   C55   1.268834 A    
O88   H16   0.990577 S    
C50   C66   1.398124 S    
S6    O80   1.502824 D    
O41   C61   1.280840 A    
O15   C7    1.266115 A    
N3    O53   1.300157 A    
C44   C48   1.183799 T    
O73   H11   0.990540 S    
C29   C35   1.546546 S    
C10   N2    1.458312 S    
C58   C72   1.397593 S    
S3    O72   1.502760 D    
C30   C36   1.546511 S    
O70   H10   0.990538 S    
O7    C3    1.269008 A    
O33   Zn9   1.997732 S    
S1    O65   1.502425 D    
C33   C37   1.546456 S    
C24   C54   1.435847 S    
C17   H1    1.110190 S    
C45   C59   1.397767 S    
N6    O59   1.300164 A    
N3    O54   1.299991 A    
C1    C41   1.397485 S    
C12   C37   1.529260 S    
O38   Zn10  1.996801 S    
C63   C67   1.398283 S    
O24   C51   1.265630 A    
N1    O50   1.299985 A    
N7    O61   1.300163 A    
O44   C62   1.280865 A    
O32   C56   1.268823 A    
C3    C43   1.397487 S    
S5    O78   1.502549 D    
C22   C52   1.435880 S    
S2    O68   1.502423 D    
Zn12  O48   1.997336 S    
S7    O84   1.502751 D    
O25   C53   1.265593 A    
C25   C33   1.546558 S    
C10   C18   1.544267 S    
O37   C59   1.280840 A    
O22   Zn6   2.026698 S    
O27   C54   1.265778 A    
O43   C61   1.280880 A    
C12   C28   1.528625 S    
C29   S5    1.784321 S    
S6    O82   1.680852 S    
C35   H7    1.110343 S    
O5    Zn3   1.995286 S    
N6    O60   1.299965 A    
C34   H6    1.110342 S    
S3    O71   1.502212 D    
O18   Zn6   1.996327 S    
S8    O86   1.502596 D    
C42   C46   1.183797 T    
C65   C68   1.184159 T    
N7    O62   1.299984 A    
C41   C45   1.183799 T    
O85   H15   0.990497 S    
O44   Zn11  1.996919 S    
C21   C25   1.534218 S    
O4    C4    1.268969 A    
C16   C39   1.529261 S    
O43   Zn12  1.996921 S    
C5    C37   1.434853 S    
S4    O76   1.680850 S    
C64   C68   1.398282 S    
Zn10  O46   1.997336 S    
O47   C64   1.281132 A    
C11   N3    1.458310 S    
C7    C39   1.434855 S    
C4    C44   1.397495 S    
C9    N1    1.458342 S    
O34   C57   1.280818 A    
O12   C8    1.264619 A    
O39   C59   1.280879 A    
C31   C36   1.546735 S    
O1    Zn1   1.995538 S    
C11   C38   1.529187 S    
O9    Zn1   2.026247 S    
C57   C71   1.397591 S    
O40   C60   1.280880 A    
O23   C52   1.265867 A    
S4    O75   1.502825 D    
S3    O73   1.680901 S    
N8    O64   1.299976 A    
O3    Zn2   1.995538 S    
C13   C29   1.528794 S    
C69   C72   1.183682 T    
C9    C37   1.529308 S    
C13   C39   1.529302 S    
C15   C31   1.528452 S    
C26   C34   1.546486 S    
O16   C8    1.266080 A    
O1    C1    1.268951 A    
O35   Zn11  1.997732 S    
O20   C50   1.268788 A    
C28   C33   1.546511 S    
C33   H5    1.110342 S    
O38   C60   1.280838 A    
O11   Zn2   2.026247 S    
C9    C25   1.528806 S    
O16   Zn4   2.026037 S    
C21   C28   1.534115 S    
Zn8   O32   1.996511 S    
O37   Zn9   1.996803 S    
C22   C27   1.534296 S    
O17   Zn5   1.996219 S    
O30   C55   1.268822 A    
O13   C5    1.266103 A    
O7    Zn4   1.995286 S    
O27   Zn7   2.026582 S    
O79   H13   0.990546 S    
O13   Zn3   2.026019 S    
C24   C30   1.534203 S    
O48   C64   1.281130 A    
O76   H12   0.990518 S    
C28   S4    1.783185 S    
O5    C1    1.269008 A    
C16   C32   1.528620 S    
C6    C38   1.434792 S    
Zn9   O45   1.997351 S    
O6    Zn3   1.995180 S    
O17   C49   1.268773 A    
O8    C4    1.268991 A    
O21   Zn5   2.026700 S    
C14   C40   1.529258 S    
C23   C53   1.435847 S    
O9    C5    1.264643 A    
C26   S2    1.784301 S    
C27   C34   1.546661 S    
C13   C19   1.544339 S    
C12   C17   1.544280 S    
C27   S3    1.784349 S    
O15   Zn4   2.026019 S    
O36   C58   1.280820 A    
C15   C40   1.529194 S    
O24   Zn6   2.026584 S    
O40   Zn9   1.996919 S    
C2    C42   1.397489 S    
N2    O52   1.299979 A    
O67   H9    0.990527 S    
C25   S1    1.784318 S    
C14   C30   1.528628 S    
S1    O67   1.680917 S    
C10   C38   1.529304 S    
O8    Zn4   1.995180 S    
O35   C58   1.280816 A    
N4    O56   1.299979 A    
N5    O58   1.299982 A    
C9    C17   1.544338 S    
O2    C2    1.268966 A    
O46   C63   1.281130 A    
O21   C51   1.265573 A    
S4    O74   1.502609 D    
O28   C53   1.265621 A    
C19   C23   1.547051 S    
N8    O63   1.300148 A    
O42   C62   1.280851 A    
C20   C24   1.547126 S    
O33   C57   1.280816 A    
S6    O81   1.502606 D    
C30   S6    1.783214 S    
O20   Zn8   1.996327 S    
C31   S7    1.784433 S    
C47   C61   1.397767 S    
C49   C65   1.398124 S    
O19   Zn7   1.996219 S    
C16   C19   1.544278 S    
O14   Zn3   2.026037 S    
C11   C27   1.528448 S    
N2    O51   1.300139 A    
S5    O79   1.680899 S    
O12   Zn2   2.026234 S    
O6    C2    1.268994 A    
O19   C50   1.268773 A    
O4    Zn2   1.995647 S    
C32   C35   1.546500 S    
C18   H2    1.110173 S    
C66   C67   1.184159 T    
O14   C6    1.266076 A    
C14   N6    1.458294 S    
O31   C56   1.268835 A    
C46   C60   1.397765 S    
C22   C26   1.534170 S    
C35   C39   1.546452 S    
O41   Zn11  1.996803 S    
C11   C18   1.544312 S    
C23   C29   1.534217 S    
C36   C40   1.546245 S    
C48   C62   1.397761 S    
O10   C6    1.264654 A    
C55   C69   1.397185 S    
C15   C20   1.544389 S    
C13   N5    1.458346 S    
O26   Zn8   2.026698 S    
N1    O49   1.300141 A    
C43   C47   1.183799 T    
O23   Zn5   2.026582 S    
O18   C49   1.268788 A    
S5    O77   1.502423 D    
O39   Zn10  1.996921 S    
S2    O69   1.502538 D    
C16   N8    1.458284 S    
S8    O88   1.680853 S    
Zn6   O30   1.996511 S    
O11   C7    1.264642 A    
C56   C70   1.397183 S    
C8    C40   1.434750 S    
O2    Zn1   1.995647 S    
Zn5   O29   1.996618 S    
O10   Zn1   2.026234 S    
C10   C26   1.528849 S    
C21   C51   1.435848 S    
O45   C63   1.281131 A    
C18   C22   1.547060 S    
C15   N7    1.458311 S    
O3    C3    1.268951 A    
C70   C71   1.183684 T    
S7    O83   1.502203 D    
S7    O85   1.680947 S    
Zn11  O47   1.997351 S    
C20   H4    1.110192 S    
C12   N4    1.458295 S    
C36   H8    1.110331 S    
S1    O66   1.502541 D    
O82   H14   0.990520 S    
C19   H3    1.110189 S    
O34   Zn10  1.997748 S    
O26   C54   1.265438 A    
N4    O55   1.300149 A    
C14   C20   1.544340 S    
O42   Zn12  1.996801 S    
O22   C52   1.265371 A    
O36   Zn12  1.997747 S    
N5    O57   1.300142 A    
O25   Zn7   2.026700 S    
C17   C21   1.547049 S    
O28   Zn8   2.026584 S    
S8    O87   1.502837 D    
Zn7   O31   1.996618 S    
C23   C32   1.534107 S    
C32   S8    1.783171 S    
S2    O70   1.680900 S    
