data_mof_unit_16136.cif
_audit_creation_date              2012-12-11T16:57:19-0500
_audit_creation_method            fapswitch 2.2
_symmetry_space_group_name_H-M    P1
_symmetry_Int_Tables_number       1
_space_group_crystal_system       triclinic
_cell_length_a                    14.508808
_cell_length_b                    16.241895
_cell_length_c                    6.950804
_cell_angle_alpha                 90.061192
_cell_angle_beta                  99.010533
_cell_angle_gamma                 89.975128
_cell_volume                      1617.74656106

loop_
_atom_site_label
_atom_site_type_symbol
_atom_type_description
_atom_site_fract_x
_atom_site_fract_y
_atom_site_fract_z
_atom_type_partial_charge
O1    O     O_R   0.584990 0.413650 0.534420 -0.523281
O2    O     O_R   0.584990 0.586350 0.534420 -0.523759
O3    O     O_R   0.596190 0.585230 0.208380 -0.516102
O4    O     O_R   0.596190 0.414770 0.208380 -0.526167
O5    O     O_R   0.415010 0.586420 0.976930 -0.525071
O6    O     O_R   0.415010 0.413580 0.976930 -0.526014
C1    C     C_R   0.620390 0.613035 0.385246 0.748877
C2    C     C_R   0.620279 0.386829 0.385264 0.730531
O7    O     O_3   0.440560 0.500000 0.319140 -0.374752
V1    V     V_3+5 0.511030 0.500000 0.068070 1.643250
O8    O     O_R   0.403810 0.414840 0.643540 -0.539215
O9    O     O_R   0.403810 0.585160 0.643540 -0.537414
C3    C     C_R   0.382493 0.385209 0.806202 0.801652
C4    C     C_R   0.382772 0.614984 0.806383 0.787432
V2    V     V_3+5 0.488970 0.500000 0.560620 1.628708
O10   O     O_3   0.559440 0.500000 0.859420 -0.317639
H1    H     H_    0.205394 0.821099 0.811035 0.095563
H2    H     H_    0.203129 0.180583 0.809955 0.108558
C5    C     C_2   0.313698 0.683109 0.800653 -0.297716
C6    C     C_2   0.313138 0.317299 0.800183 -0.302213
C7    C     C_2   0.309614 0.732640 0.956898 0.436976
C8    C     C_2   0.309450 0.267363 0.955690 0.446759
C9    C     C_2   0.197499 0.818797 0.113360 0.202409
C10   C     C_2   0.198305 0.180642 0.113624 0.195931
C11   C     C_2   0.233121 0.794970 0.952126 -0.247977
C12   C     C_2   0.232475 0.205496 0.951482 -0.261034
H3    H     H_    0.263962 0.691539 0.668128 0.111878
H4    H     H_    0.262784 0.309494 0.668312 0.115984
C13   C     C_R   0.681011 0.745933 0.545648 0.052176
C14   C     C_R   0.686074 0.258792 0.561625 0.059595
C15   C     C_R   0.690318 0.681304 0.416829 -0.173442
C16   C     C_R   0.690362 0.318608 0.418158 -0.115623
C17   C     C_R   0.770250 0.682174 0.325352 -0.161330
C18   C     C_R   0.768872 0.316456 0.322761 -0.280264
H5    H     H_    0.784040 0.628974 0.240952 0.193877
H6    H     H_    0.782042 0.368690 0.235604 0.165184
C19   C     C_R   0.837846 0.746324 0.358785 -0.003831
C20   C     C_R   0.837819 0.254090 0.360625 0.027665
C21   C     C_R   0.823396 0.814191 0.481571 -0.209630
C22   C     C_R   0.824424 0.186825 0.485406 -0.095934
C23   C     C_R   0.743153 0.812524 0.571005 0.069613
C24   C     C_R   0.748786 0.192066 0.589006 -0.088866
C25   C     C_3   0.734645 0.820619 0.784284 0.149083
C26   C     C_3   0.753629 0.195819 0.807530 0.186037
C27   C     C_3   0.675760 0.741064 0.759628 -0.183625
C28   C     C_3   0.691913 0.273478 0.777147 -0.168481
O11   O     O_R   0.921430 0.915960 0.371040 -0.533262
O12   O     O_R   0.921430 0.084040 0.371040 -0.492515
O13   O     O_R   0.910450 0.087500 0.697310 -0.529901
O14   O     O_R   0.910450 0.912500 0.697310 -0.526548
O15   O     O_R   0.091710 0.087460 0.928430 -0.555857
O16   O     O_R   0.091710 0.912540 0.928430 -0.557152
C29   C     C_R   0.890514 0.115984 0.520612 0.807951
C30   C     C_R   0.890362 0.884179 0.519990 0.696414
O17   O     O_3   0.065970 0.000000 0.586140 -0.396410
V3    V     V_3+5 0.995640 1.000000 0.837400 1.548046
O18   O     O_R   0.103020 0.915700 0.261710 -0.558249
O19   O     O_R   0.103020 0.084300 0.261710 -0.530978
C31   C     C_R   0.125642 0.885822 0.100610 0.620392
C32   C     C_R   0.125903 0.114012 0.100740 0.685085
V4    V     V_3+5 0.017940 0.000000 0.344880 1.529372
O20   O     O_3   0.947330 0.000000 0.046180 -0.321699
C33   C     C_2   0.727744 0.665058 0.844232 0.376781
H7    H     H_    0.800133 0.655372 0.828360 0.086234
O21   O     O_2   0.688374 0.610989 0.920141 -0.506923
C34   C     C_2   0.743684 0.353400 0.834779 0.356052
H8    H     H_    0.812075 0.364207 0.795242 0.046194
O22   O     O_2   0.708297 0.408519 0.916671 -0.511277
O23   O     O_3   0.379418 0.727278 0.116871 -0.611921
H9    H     H_    0.381101 0.779603 0.190657 0.333590
O24   O     O_3   0.380141 0.271856 0.114175 -0.611222
H10   H     H_    0.382299 0.219057 0.185906 0.328222
O25   O     O_3   0.227323 0.778867 0.288002 -0.630809
H11   H     H_    0.192137 0.800104 0.388582 0.285257
O26   O     O_3   0.230276 0.219049 0.289416 -0.628826
H12   H     H_    0.197499 0.196054 0.391823 0.311364
C35   C     C_2   0.927346 0.736333 0.282119 0.408288
H13   H     H_    0.985341 0.777694 0.326189 0.032533
O27   O     O_2   0.938337 0.680238 0.170769 -0.545302
C36   C     C_2   0.927584 0.269251 0.289281 0.406695
H14   H     H_    0.930595 0.314118 0.174766 0.061039
O28   O     O_2   0.999923 0.236077 0.363459 -0.554634
C37   C     C_2   0.682784 0.897527 0.826913 0.484506
H15   H     H_    0.667824 0.907946 0.973143 0.059732
O29   O     O_2   0.656872 0.947914 0.699575 -0.546957
C38   C     C_2   0.708889 0.121038 0.883009 0.483125
H16   H     H_    0.640854 0.100450 0.811898 0.063271
O30   O     O_2   0.747931 0.083564 0.024934 -0.503952
O31   O     O_3   0.818705 0.813717 0.916203 -0.640887
H17   H     H_    0.864150 0.780254 0.857173 0.295173
O32   O     O_3   0.843788 0.209280 0.912817 -0.625852
H18   H     H_    0.881989 0.241381 0.833160 0.270587
C39   C     C_2   0.577641 0.748577 0.807182 0.419071
H19   H     H_    0.567021 0.748350 0.958321 0.060971
O33   O     O_2   0.510367 0.755903 0.678651 -0.527340
C40   C     C_2   0.598593 0.266929 0.848277 0.393822
H20   H     H_    0.595845 0.270936 0.002991 0.078782
O34   O     O_2   0.526546 0.255349 0.734855 -0.538432

loop_
_geom_bond_atom_site_label_1
_geom_bond_atom_site_label_2
_ccdc_geom_bond_type
C34   O22   D    
O17   V3    S    
C33   O21   D    
C39   H19   S    
O1    C2    A    
C25   C37   S    
O25   H11   S    
O2    C1    A    
H2    C12   S    
O4    C2    A    
C27   C39   S    
C21   C23   A    
C35   H13   S    
C9    C31   S    
C25   O31   S    
C5    C7    D    
C10   C12   D    
C28   C34   S    
O3    C1    A    
C38   O30   D    
O18   C31   A    
C21   C30   S    
O19   C32   A    
V2    O10   S    
O15   V3    S    
O8    V2    S    
C40   O34   D    
C15   C17   A    
O1    V2    S    
C14   C16   A    
C5    H3    S    
O7    V1    S    
O19   V4    S    
C22   C24   A    
C34   H8    S    
C39   O33   D    
C23   C25   S    
V4    O20   S    
C24   C26   S    
C9    O25   S    
C26   C38   S    
C26   C28   S    
C35   O27   D    
O12   C29   A    
C1    C15   S    
C2    C16   S    
C36   O28   D    
O32   H18   S    
C38   H16   S    
C6    H4    S    
C19   C35   S    
C27   C33   S    
O14   V3    S    
C7    O23   S    
C16   C18   A    
O26   H12   S    
O11   V4    S    
O16   C31   A    
C37   H15   S    
O9    V2    S    
C10   C32   S    
C40   H20   S    
O14   C30   A    
O2    V2    S    
C25   C27   S    
O5    C4    A    
C26   O32   S    
O11   C30   A    
C37   O29   D    
O9    C4    A    
V3    O20   S    
O4    V1    S    
C8    O24   S    
C7    C11   S    
C3    C6    S    
C13   C23   A    
C18   C20   A    
C4    C5    S    
C14   C28   S    
C6    C8    D    
C36   H14   S    
O6    V1    S    
C10   O26   S    
O18   V4    S    
O13   V3    S    
H1    C11   S    
O7    V2    S    
O24   H10   S    
C13   C15   A    
O3    V1    S    
V1    O10   S    
O6    C3    A    
C20   C22   A    
O8    C3    A    
O12   V4    S    
C20   C36   S    
O13   C29   A    
O17   V4    S    
C17   H5    S    
C18   H6    S    
C9    C11   D    
O23   H9    S    
C17   C19   A    
C33   H7    S    
O5    V1    S    
C28   C40   S    
C19   C21   A    
C22   C29   S    
C8    C12   S    
C13   C27   S    
C14   C24   A    
O15   C32   A    
O31   H17   S    
O16   V3    S    
