data_mof_unit_52806.cif
_audit_creation_date              2012-12-10T17:17:28-0500
_audit_creation_method            fapswitch 2.2
_symmetry_space_group_name_H-M    P1
_symmetry_Int_Tables_number       1
_space_group_crystal_system       triclinic
_cell_length_a                    10.181126
_cell_length_b                    10.582021
_cell_length_c                    12.407939
_cell_angle_alpha                 91.379593
_cell_angle_beta                  110.197933
_cell_angle_gamma                 95.221383
_cell_volume                      1247.176866

loop_
_atom_site_label
_atom_site_type_symbol
_atom_type_description
_atom_site_fract_x
_atom_site_fract_y
_atom_site_fract_z
_atom_type_partial_charge
C1    C     C_R   0.047139 0.733473 0.486829 0.908551
C2    C     C_R   0.217875 0.586406 0.831056 -0.176438
C3    C     C_2   0.057376 0.865036 0.457134 -0.367276
C4    C     C_R   0.138375 0.534089 0.711319 0.873429
C5    C     C_2   0.939860 0.923993 0.426977 -0.144590
C6    C     C_2   0.904350 0.130388 0.482069 -0.430607
C7    C     C_2   0.943370 0.058704 0.409235 0.185814
C8    C     C_2   0.432508 0.514597 0.505943 -0.124487
C9    C     C_2   0.567141 0.487139 0.489790 -0.134767
C10   C     C_R   0.944593 0.266104 0.499450 0.933765
C11   C     C_R   0.862794 0.481424 0.285836 0.861849
C12   C     C_R   0.433578 0.565448 0.987173 0.030200
C13   C     C_R   0.772429 0.484358 0.964380 -0.247095
C14   C     C_R   0.784419 0.472658 0.161846 -0.119953
C15   C     C_R   0.152207 0.626361 0.909111 0.125536
C16   C     C_R   0.230160 0.628252 0.028424 0.032294
C17   C     C_R   0.364554 0.587362 0.066019 -0.250163
C18   C     C_1   0.980327 0.406687 0.102647 0.184174
C19   C     C_3   0.010180 0.680391 0.867290 -0.399868
C20   C     C_3   0.018366 0.802852 0.806175 -0.839494
C21   C     C_1   0.176750 0.672619 0.114918 0.147238
C22   C     C_3   0.414585 0.740933 0.731549 -0.426486
C23   C     C_R   0.364995 0.589652 0.872122 0.036572
C24   C     C_3   0.422813 0.861750 0.804568 -0.870393
C25   C     C_3   0.996045 0.110514 0.316130 -0.320029
C26   C     C_3   0.926801 0.032992 0.201561 -0.870913
C27   C     C_R   0.571256 0.528734 0.018263 0.096128
C28   C     C_R   0.640250 0.529577 0.936621 0.124541
C29   C     C_R   0.581039 0.585627 0.832606 -0.268849
C30   C     C_R   0.448046 0.628044 0.805532 0.196162
C31   C     C_R   0.643051 0.493495 0.128348 -0.259154
C32   C     C_R   0.845783 0.455718 0.077230 0.012031
H1    H     H_    0.840388 0.876570 0.426770 0.172303
H2    H     H_    0.591985 0.486743 0.191149 0.163766
H3    H     H_    0.417015 0.585194 0.157733 0.148219
H4    H     H_    0.094359 0.876617 0.866815 0.253192
H5    H     H_    0.052239 0.786416 0.731571 0.262373
H6    H     H_    0.913184 0.838493 0.774681 0.241063
H7    H     H_    0.925718 0.611079 0.810500 0.221221
H8    H     H_    0.973258 0.703390 0.938957 0.207731
H9    H     H_    0.529278 0.881492 0.871279 0.268569
H10   H     H_    0.402142 0.943516 0.748795 0.250335
H11   H     H_    0.343010 0.852238 0.847095 0.266545
H12   H     H_    0.855216 0.086255 0.538960 0.138673
H13   H     H_    0.491113 0.759606 0.686642 0.190411
H14   H     H_    0.308470 0.724281 0.666407 0.220209
H15   H     H_    0.957210 0.934533 0.209011 0.277492
H16   H     H_    0.810410 0.029866 0.173804 0.257949
H17   H     H_    0.961834 0.077905 0.134714 0.254493
H18   H     H_    0.971379 0.209585 0.298835 0.211260
H19   H     H_    0.111986 0.109246 0.344260 0.201942
H20   H     H_    0.157022 0.912566 0.458168 0.157683
H21   H     H_    0.564830 0.409758 0.429946 0.161717
H22   H     H_    0.434628 0.593919 0.562246 0.153225
H23   H     H_    0.684017 0.627537 0.599633 0.150107
H24   H     H_    0.315520 0.371027 0.401546 0.165379
H25   H     H_    0.643133 0.606415 0.778556 0.126496
H26   H     H_    0.819525 0.474299 0.899159 0.136366
N1    N     N_2   0.313640 0.446500 0.454900 -0.181827
N2    N     N_2   0.686360 0.553430 0.545150 -0.193488
N3    N     N_1   0.087830 0.366681 0.122915 -0.222684
N4    N     N_1   0.134352 0.708278 0.184283 -0.200242
O1    O     O_R   0.936910 0.692950 0.509080 -0.608318
O2    O     O_R   0.138320 0.658600 0.480130 -0.609823
O3    O     O_R   0.002900 0.525670 0.675280 -0.601794
O4    O     O_R   0.204310 0.491320 0.646330 -0.598630
O5    O     O_R   0.861680 0.341400 0.519870 -0.596887
O6    O     O_R   0.063090 0.307050 0.490920 -0.603254
O7    O     O_R   0.795690 0.508680 0.353670 -0.611309
O8    O     O_R   0.997100 0.474330 0.324720 -0.596801
Zn1   Zn    Zn3+2 0.865520 0.522940 0.519330 0.923539
Zn2   Zn    Zn3+2 0.134480 0.477060 0.480670 0.945076

loop_
_geom_bond_atom_site_label_1
_geom_bond_atom_site_label_2
_ccdc_geom_bond_type
C12   C17   A    
C6    C10   S    
C2    C4    S    
C3    H20   S    
C11   O7    A    
C13   C28   A    
C6    C7    D    
C2    C15   A    
C22   C30   S    
C10   O6    A    
C20   H6    S    
N1    Zn2   S    
C13   C32   A    
C19   C20   S    
C7    C25   S    
H24   N1    S    
C26   H16   S    
C14   C31   A    
O6    Zn2   S    
C9    N2    D    
C25   H19   S    
C25   C26   S    
C31   H2    S    
C18   N3    T    
C14   C32   A    
C6    H12   S    
H23   N2    S    
C15   C19   S    
C24   H9    S    
C12   C23   A    
C21   N4    T    
C29   C30   A    
C19   H7    S    
C26   H15   S    
C1    O1    A    
C28   C29   A    
C22   H14   S    
O1    Zn1   S    
O5    Zn1   S    
O2    Zn2   S    
C8    N1    D    
C4    O3    A    
C11   C14   S    
C22   C24   S    
C11   O8    A    
C9    H21   S    
C19   H8    S    
C12   C27   A    
C27   C31   A    
C15   C16   A    
C20   H4    S    
C23   C30   A    
C2    C23   A    
C22   H13   S    
C18   C32   S    
C24   H10   S    
O7    Zn1   S    
C26   H17   S    
C8    H22   S    
C27   C28   A    
C5    C7    S    
C24   H11   S    
C25   H18   S    
C16   C17   A    
O8    Zn2   S    
C13   H26   S    
C17   H3    S    
N2    Zn1   S    
C3    C5    D    
C4    O4    A    
C10   O5    A    
C20   H5    S    
C16   C21   S    
C1    O2    A    
O4    Zn2   S    
O3    Zn1   S    
C29   H25   S    
C8    C9    S    
C1    C3    S    
C5    H1    S    
