data_mof_unit_55721.cif
_audit_creation_date              2012-12-11T16:44:09-0500
_audit_creation_method            fapswitch 2.2
_symmetry_space_group_name_H-M    P1
_symmetry_Int_Tables_number       1
_space_group_crystal_system       triclinic
_cell_length_a                    27.188842
_cell_length_b                    7.203965
_cell_length_c                    22.760774
_cell_angle_alpha                 90.174095
_cell_angle_beta                  101.302942
_cell_angle_gamma                 89.870908
_cell_volume                      4371.60214836

loop_
_atom_site_label
_atom_site_type_symbol
_atom_type_description
_atom_site_fract_x
_atom_site_fract_y
_atom_site_fract_z
_atom_type_partial_charge
O1    O     O_R   0.707300 0.594030 0.176840 -0.526352
O2    O     O_R   0.292700 0.405970 0.823160 -0.540233
O3    O     O_R   0.792700 0.094030 0.323160 -0.526212
O4    O     O_R   0.207300 0.905970 0.676840 -0.545908
O5    O     O_R   0.697330 0.262360 0.295660 -0.532876
O6    O     O_R   0.302670 0.737640 0.704340 -0.544914
O7    O     O_R   0.802670 0.762360 0.204340 -0.533502
O8    O     O_R   0.197330 0.237640 0.795660 -0.538986
C1    C     C_R   0.683990 0.432903 0.310445 0.700489
C2    C     C_R   0.314971 0.567193 0.687706 0.751425
C3    C     C_R   0.815742 0.932116 0.189019 0.699323
C4    C     C_R   0.184930 0.068023 0.811480 0.772522
O9    O     O_R   0.701410 0.264250 0.175600 -0.543761
O10   O     O_R   0.298590 0.735750 0.824400 -0.527806
O11   O     O_R   0.798590 0.764250 0.324400 -0.543461
O12   O     O_R   0.201410 0.235750 0.675600 -0.529445
O13   O     O_R   0.796800 0.094950 0.202240 -0.530649
O14   O     O_R   0.203200 0.905050 0.797760 -0.535941
O15   O     O_R   0.703200 0.594950 0.297760 -0.533730
O16   O     O_R   0.296800 0.405050 0.702240 -0.504285
C5    C     C_R   0.689708 0.432425 0.153445 0.732956
C6    C     C_R   0.310302 0.567201 0.846458 0.752872
C7    C     C_R   0.810281 0.932616 0.346571 0.732213
C8    C     C_R   0.189681 0.067018 0.653562 0.755228
O17   O     O_3   0.781290 0.427390 0.258880 -0.368111
O18   O     O_3   0.218710 0.572610 0.741120 -0.385236
O19   O     O_3   0.718710 0.927390 0.241120 -0.368154
O20   O     O_3   0.281290 0.072610 0.758880 -0.369885
V1    V     V_3+5 0.744190 0.152150 0.248350 1.495018
V2    V     V_3+5 0.255810 0.847850 0.751650 1.500782
V3    V     V_3+5 0.755810 0.652150 0.251650 1.494155
V4    V     V_3+5 0.244190 0.347850 0.748350 1.519968
C9    C     C_R   0.154429 0.056220 0.595401 -0.052727
C10   C     C_R   0.845504 0.936516 0.405008 -0.051068
C11   C     C_R   0.345536 0.556942 0.904649 -0.049944
C12   C     C_R   0.654469 0.435674 0.095028 -0.052485
C13   C     C_R   0.142058 0.023843 0.487859 -0.102167
C14   C     C_R   0.862230 0.853417 0.509852 -0.103992
C15   C     C_R   0.357882 0.527241 0.012227 -0.101074
C16   C     C_R   0.637647 0.349605 0.990298 -0.102170
C17   C     C_R   0.173853 0.031791 0.543624 -0.268729
C18   C     C_R   0.830115 0.857878 0.454308 -0.274599
C19   C     C_R   0.326095 0.534397 0.956444 -0.253330
C20   C     C_R   0.669809 0.355222 0.045792 -0.270396
C21   C     C_R   0.102114 0.070395 0.591400 0.280890
C22   C     C_R   0.894437 0.009228 0.411337 0.286454
C23   C     C_R   0.397859 0.569867 0.908662 0.285356
C24   C     C_R   0.605539 0.509158 0.088687 0.286395
C25   C     C_R   0.068622 0.034848 0.535202 -0.051138
C26   C     C_R   0.930466 0.978359 0.465918 -0.054185
C27   C     C_R   0.431323 0.535055 0.964895 -0.054703
C28   C     C_R   0.569468 0.477365 0.034175 -0.053973
C29   C     C_R   0.089626 0.024881 0.482757 0.065975
C30   C     C_R   0.912359 0.911680 0.516465 0.069665
C31   C     C_R   0.410317 0.527171 0.017343 0.065908
C32   C     C_R   0.587523 0.408630 0.983685 0.067476
C33   C     C_R   0.015783 0.001561 0.529317 0.023991
C34   C     C_R   0.983666 0.002226 0.471543 0.018214
C35   C     C_R   0.484139 0.500556 0.970807 0.021400
C36   C     C_R   0.516273 0.502290 0.028564 0.018918
C37   C     C_R   0.006224 0.001558 0.420871 -0.268329
C38   C     C_R   0.995413 0.943629 0.578536 -0.274321
C39   C     C_R   0.493726 0.503766 0.079246 -0.267165
C40   C     C_R   0.504448 0.440364 0.921655 -0.268443
C41   C     C_R   0.058408 0.009824 0.425896 0.355869
C42   C     C_R   0.944681 0.896542 0.572577 0.352182
C43   C     C_R   0.441538 0.513087 0.074219 0.356791
C44   C     C_R   0.555157 0.392194 0.927636 0.354059
H1    H     H_    0.792437 0.803529 0.450053 0.138878
H2    H     H_    0.214045 0.023971 0.546283 0.147497
H3    H     H_    0.707479 0.300216 0.050061 0.143648
H4    H     H_    0.285902 0.527461 0.953787 0.147617
H5    H     H_    0.158921 0.011447 0.448680 0.186723
H6    H     H_    0.847963 0.797191 0.547289 0.186622
H7    H     H_    0.341009 0.516367 0.051411 0.185022
H8    H     H_    0.651875 0.291880 0.952907 0.187526
H9    H     H_    0.984001 0.977679 0.376771 0.169682
H10   H     H_    0.019480 0.917719 0.621370 0.162652
H11   H     H_    0.515953 0.480768 0.123369 0.169997
H12   H     H_    0.480336 0.413588 0.878882 0.168865
C45   C     C_R   0.892532 0.079270 0.158799 0.341255
C46   C     C_R   0.160041 0.037437 0.911324 0.340658
C47   C     C_R   0.608532 0.592493 0.339531 0.340018
C48   C     C_R   0.360786 0.392112 0.617086 0.347847
C49   C     C_R   0.925406 0.088686 0.118481 -0.088299
C50   C     C_R   0.122373 0.022385 0.945845 -0.294194
C51   C     C_R   0.574897 0.606988 0.378643 -0.158556
C52   C     C_R   0.397409 0.388459 0.581059 -0.263968
H13   H     H_    0.954008 0.195458 0.124844 0.176688
H14   H     H_    0.132814 0.006192 0.993997 0.156073
H15   H     H_    0.548840 0.722597 0.373775 0.173098
H16   H     H_    0.403108 0.262871 0.556892 0.152677
C53   C     C_R   0.923186 0.960027 0.071547 0.043144
C54   C     C_R   0.071257 0.025752 0.918730 0.096451
C55   C     C_R   0.573372 0.472650 0.422651 0.120024
C56   C     C_R   0.426651 0.544658 0.575394 0.174084
C57   C     C_R   0.885993 0.818993 0.064506 0.442538
C58   C     C_R   0.057580 0.047642 0.856071 0.457465
C59   C     C_R   0.606642 0.320906 0.428132 0.435937
C60   C     C_R   0.419637 0.708439 0.606536 0.426655
C61   C     C_R   0.853001 0.809967 0.104754 -0.193868
C62   C     C_R   0.095323 0.065122 0.821684 -0.360949
C63   C     C_R   0.641731 0.308364 0.390043 -0.300267
C64   C     C_R   0.383210 0.712898 0.643031 -0.350763
H17   H     H_    0.824353 0.703380 0.098091 0.163522
H18   H     H_    0.085035 0.080310 0.773473 0.152594
H19   H     H_    0.668162 0.193955 0.395372 0.143822
H20   H     H_    0.378220 0.839484 0.666993 0.163293
C65   C     C_R   0.854839 0.939989 0.151345 -0.225705
C66   C     C_R   0.146256 0.058917 0.848869 -0.087615
C67   C     C_R   0.643762 0.444066 0.346254 -0.176128
C68   C     C_R   0.353508 0.556409 0.648911 -0.106012
C69   C     C_R   0.995603 0.829795 0.030237 0.300712
C70   C     C_R   0.998906 0.151253 0.960296 0.308285
C71   C     C_R   0.484235 0.483921 0.436694 0.211023
C72   C     C_R   0.515888 0.541811 0.561215 0.255716
C73   C     C_R   0.030218 0.840524 0.991100 0.185662
C74   C     C_R   0.961592 0.132929 0.995924 0.203408
C75   C     C_R   0.448312 0.500889 0.474145 0.209445
C76   C     C_R   0.551834 0.525536 0.523668 0.255769
C77   C     C_R   0.032289 0.003439 0.956486 -0.055550
C78   C     C_R   0.960935 0.974535 0.031864 -0.100827
C79   C     C_R   0.464326 0.534134 0.535959 -0.002915
C80   C     C_R   0.535801 0.490657 0.461983 -0.002942
O21   O     O_3   0.079746 0.000893 0.375529 -0.638891
H21   H     H_    0.052924 0.992504 0.339181 0.305449
O22   O     O_3   0.926063 0.832280 0.621132 -0.639700
H22   H     H_    0.953212 0.831697 0.657268 0.299316
O23   O     O_3   0.420203 0.506197 0.124599 -0.638731
H23   H     H_    0.447026 0.498257 0.160952 0.308118
O24   O     O_3   0.573709 0.325601 0.879170 -0.638696
H24   H     H_    0.546510 0.323960 0.843091 0.305088
O25   O     O_3   0.993893 0.677980 0.066933 -0.615381
H25   H     H_    0.020119 0.586944 0.062118 0.347053
O26   O     O_3   0.004757 0.313433 0.930116 -0.610825
H26   H     H_    0.991676 0.418750 0.950531 0.320576
O27   O     O_3   0.470282 0.462171 0.375358 -0.630875
H27   H     H_    0.437605 0.524659 0.361541 0.314032
O28   O     O_3   0.529768 0.557439 0.622758 -0.616679
H28   H     H_    0.562963 0.498114 0.635920 0.313784
O29   O     O_3   0.061425 0.690233 0.988175 -0.639848
H29   H     H_    0.074444 0.694760 0.950564 0.315292
O30   O     O_3   0.924759 0.265434 0.995871 -0.611069
H30   H     H_    0.918120 0.328676 0.956538 0.322169
O31   O     O_3   0.397465 0.482719 0.452060 -0.632176
H31   H     H_    0.392410 0.397701 0.417142 0.313526
O32   O     O_3   0.602582 0.548999 0.545283 -0.620474
H32   H     H_    0.607230 0.632396 0.580586 0.312805
O33   O     O_3   0.904453 0.117539 0.365251 -0.662025
H33   H     H_    0.928605 0.214837 0.383063 0.300021
O34   O     O_3   0.085700 0.132329 0.641652 -0.672117
H34   H     H_    0.055102 0.207975 0.628067 0.294546
O35   O     O_3   0.595564 0.618987 0.134686 -0.662767
H35   H     H_    0.571426 0.716299 0.116800 0.299928
O36   O     O_3   0.414325 0.629973 0.858377 -0.660511
H36   H     H_    0.444974 0.705118 0.871928 0.298877
O37   O     O_3   0.899630 0.205818 0.205334 -0.622278
H37   H     H_    0.885353 0.155144 0.238695 0.318105
O38   O     O_3   0.210334 0.031175 0.937519 -0.648821
H38   H     H_    0.213628 0.015240 0.981377 0.297347
O39   O     O_3   0.604786 0.723886 0.294896 -0.624057
H39   H     H_    0.616390 0.668072 0.260222 0.319343
O40   O     O_3   0.331391 0.237765 0.620605 -0.637903
H40   H     H_    0.341268 0.136367 0.595687 0.281982
O41   O     O_3   0.879484 0.690137 0.018567 -0.610988
H41   H     H_    0.899334 0.726579 0.988430 0.305671
O42   O     O_3   0.007371 0.047468 0.829386 -0.617011
H42   H     H_    0.004216 0.063300 0.785536 0.297249
O43   O     O_3   0.604055 0.186801 0.470658 -0.618540
H43   H     H_    0.629447 0.089437 0.468314 0.296810
O44   O     O_3   0.448190 0.862601 0.600018 -0.623808
H44   H     H_    0.438696 0.965564 0.624610 0.290944

loop_
_geom_bond_atom_site_label_1
_geom_bond_atom_site_label_2
_ccdc_geom_bond_type
C55   C80   S    
O17   V3    S    
C59   C63   A    
C24   O35   S    
C52   C56   A    
O40   H40   S    
O1    C5    A    
O41   H41   S    
C72   C79   A    
C51   H15   S    
C3    C65   S    
C9    C21   A    
O43   H43   S    
O3    C7    A    
O32   H32   S    
C10   C18   A    
C60   C64   A    
O44   H44   S    
C11   C23   A    
C4    C66   S    
O39   H39   S    
C25   C33   A    
O26   H26   S    
C5    C12   S    
C39   H11   S    
O7    C3    A    
C6    C11   S    
C35   C40   A    
C48   C68   A    
C36   C39   A    
C46   C66   A    
O9    V1    S    
C14   C18   A    
O16   V4    S    
O4    C8    A    
C55   C59   A    
O19   V1    S    
C54   C58   A    
C61   C65   A    
O30   H30   S    
O1    V3    S    
O13   V1    S    
C42   O22   S    
C20   H3    S    
O2    V4    S    
C74   C78   A    
O3    V1    S    
C73   C77   A    
C50   C54   A    
C70   C77   A    
C49   C53   A    
C1    O15   A    
O37   H37   S    
C15   C31   A    
C69   C78   A    
C71   O27   S    
C2    O16   A    
C16   C32   A    
C51   C55   A    
O2    C6    A    
O34   H34   S    
C2    C68   S    
C10   C22   A    
C15   H7    S    
C11   C19   A    
C16   C20   A    
C58   O42   S    
C72   O28   S    
C13   C29   A    
C34   C37   A    
O11   C7    A    
C47   O39   S    
O15   V3    S    
C35   C36   A    
O12   C8    A    
C69   O25   S    
C60   O44   S    
C40   H12   S    
C43   O23   S    
O10   V2    S    
C75   O31   S    
O31   H31   S    
O5    V1    S    
C61   H17   S    
C39   C43   A    
O7    V3    S    
C38   C42   A    
C26   C34   A    
C52   H16   S    
C33   C38   A    
C45   O37   S    
C53   C78   S    
C74   O30   S    
C50   H14   S    
C37   H9    S    
O42   H42   S    
C64   C68   A    
C49   H13   S    
O18   V4    S    
C15   C19   A    
C32   C44   A    
C18   H1    S    
C72   C76   A    
C76   C80   A    
C21   O34   S    
O8    V4    S    
C44   O24   S    
C73   O29   S    
C1    C67   S    
O5    C1    A    
C58   C62   A    
C53   C57   A    
C31   C43   A    
O38   H38   S    
C14   C30   A    
C21   C25   A    
O8    C4    A    
C7    C10   S    
C57   C61   A    
O9    C5    A    
C26   C30   A    
C48   O40   S    
C70   C74   A    
C70   O26   S    
C69   C73   A    
O6    V2    S    
C45   C65   A    
C71   C75   A    
O29   H29   S    
O25   H25   S    
C47   C67   A    
C12   C20   A    
C27   C35   A    
O22   H22   S    
C40   C44   A    
C64   H20   S    
C29   C41   A    
O23   H23   S    
C14   H6    S    
C19   H4    S    
C13   H5    S    
C3    O13   A    
C71   C80   A    
C56   C79   S    
C38   H10   S    
C48   C52   A    
C47   C51   A    
O6    C2    A    
C23   C27   A    
O28   H28   S    
O11   V3    S    
C59   O43   S    
C63   C67   A    
C75   C79   A    
O12   V4    S    
O27   H27   S    
C22   C26   A    
C8    C9    S    
C9    C17   A    
O10   C6    A    
O20   V2    S    
C46   C50   A    
O33   H33   S    
C46   O38   S    
C33   C34   A    
O21   H21   S    
C23   O36   S    
C57   O41   S    
C56   C60   A    
C16   H8    S    
C12   C24   A    
C27   C31   A    
C13   C17   A    
O24   H24   S    
C45   C49   A    
C25   C29   A    
C62   C66   A    
O14   V2    S    
C54   C77   S    
C37   C41   A    
C24   C28   A    
C22   O33   S    
C76   O32   S    
C28   C36   A    
C62   H18   S    
C4    O14   A    
O36   H36   S    
C63   H19   S    
O35   H35   S    
C30   C42   A    
O4    V2    S    
C28   C32   A    
C41   O21   S    
C17   H2    S    
