data_mof_unit_56039.cif
_audit_creation_date              2012-12-10T18:57:40-0500
_audit_creation_method            fapswitch 2.2
_symmetry_space_group_name_H-M    P1
_symmetry_Int_Tables_number       1
_space_group_crystal_system       triclinic
_cell_length_a                    10.974381
_cell_length_b                    10.838211
_cell_length_c                    9.547399
_cell_angle_alpha                 90.169033
_cell_angle_beta                  91.259447
_cell_angle_gamma                 90.23689
_cell_volume                      1135.30370692

loop_
_atom_site_label
_atom_site_type_symbol
_atom_type_description
_atom_site_fract_x
_atom_site_fract_y
_atom_site_fract_z
_atom_type_partial_charge
C1    C     C_R   0.498016 0.262416 0.499589 0.794323
C2    C     C_R   0.488109 0.129362 0.496472 -0.157289
C3    C     C_R   0.513003 0.064237 0.372815 -0.220383
C4    C     C_R   0.513686 0.935701 0.372865 -0.210469
C5    C     C_R   0.491526 0.870961 0.497257 -0.093514
C6    C     C_R   0.452207 0.936753 0.613439 0.073309
C7    C     C_3   0.491891 0.932858 0.763767 -0.543270
C8    C     C_3   0.483044 0.073228 0.764360 0.280532
C9    C     C_R   0.604409 0.525084 0.076333 0.262016
C10   C     C_R   0.399684 0.464975 0.071782 -0.100334
C11   C     C_R   0.399888 0.464286 0.923224 -0.050726
C12   C     C_R   0.266064 0.496351 0.498306 0.830305
C13   C     C_R   0.604479 0.524735 0.928902 0.221773
C14   C     C_3   0.677321 0.640804 0.925097 -0.494618
C15   C     C_3   0.677000 0.641598 0.083885 -0.501775
C16   C     C_R   0.499652 0.737706 0.499893 0.821749
C17   C     C_R   0.734986 0.498555 0.502481 0.729254
C18   C     C_2   0.932426 0.506197 0.394131 -0.256430
C19   C     C_2   0.868096 0.502246 0.512735 0.299011
C20   C     C_2   0.065048 0.522286 0.393018 -0.136913
C21   C     C_2   0.136615 0.476876 0.494968 -0.241696
C22   C     C_R   0.448440 0.063657 0.612575 0.138420
Cu1   Cu    Cu3+1 0.499990 0.499980 0.640670 0.952527
Cu2   Cu    Cu3+1 0.500010 0.500020 0.359330 0.933266
H1    H     H_    0.886351 0.502436 0.292471 0.127999
H2    H     H_    0.570739 0.123601 0.783534 0.065994
H3    H     H_    0.317873 0.438026 0.124863 0.147193
H4    H     H_    0.318464 0.435524 0.866524 0.152324
H5    H     H_    0.769284 0.626495 0.881780 0.219830
H6    H     H_    0.625201 0.717847 0.877783 0.213319
H7    H     H_    0.769014 0.627640 0.131687 0.189840
H8    H     H_    0.625097 0.719855 0.128133 0.208000
H9    H     H_    0.104188 0.570919 0.305248 0.152275
H10   H     H_    0.538537 0.112047 0.278398 0.157183
H11   H     H_    0.538085 0.887892 0.277859 0.152854
N1    N     N_R   0.500780 0.500930 0.147930 -0.184986
N2    N     N_R   0.500780 0.500890 0.852020 -0.187631
O1    O     O_R   0.500000 0.319640 0.618810 -0.579218
O2    O     O_R   0.500010 0.319680 0.381230 -0.587069
O3    O     O_R   0.321940 0.499980 0.618760 -0.582660
O4    O     O_R   0.321950 0.500020 0.381180 -0.589222
O5    O     O_R   0.499990 0.680320 0.618770 -0.570063
O6    O     O_R   0.500000 0.680360 0.381190 -0.583288
O7    O     O_R   0.678050 0.499980 0.618820 -0.580795
O8    O     O_R   0.678060 0.500020 0.381240 -0.599692
O9    O     O_3   0.924129 0.525730 0.642819 -0.560795
C23   C     C_3   0.911809 0.422758 0.733189 0.053507
H12   H     H_    0.931406 0.334066 0.678840 0.120188
H13   H     H_    0.819401 0.417112 0.777031 0.169864
C24   C     C_3   0.000303 0.436929 0.857458 -0.819801
H14   H     H_    0.979854 0.522556 0.916490 0.246418
H15   H     H_    0.991377 0.356768 0.928750 0.199966
H16   H     H_    0.095544 0.441687 0.821381 0.245636
H17   H     H_    0.101695 0.419443 0.576541 0.176035
H18   H     H_    0.424143 0.885693 0.830252 0.223059
H19   H     H_    0.587459 0.901193 0.777071 0.156237
O10   O     O_3   0.383015 0.115915 0.841072 -0.548066
C25   C     C_3   0.418396 0.131495 0.982972 0.077199
H20   H     H_    0.481018 0.212026 0.994690 0.139992
H21   H     H_    0.464388 0.047729 0.025749 0.131576
C26   C     C_3   0.305252 0.154845 0.068333 -0.777416
H22   H     H_    0.246772 0.070974 0.068021 0.246128
H23   H     H_    0.331744 0.178226 0.178107 0.212718
H24   H     H_    0.252209 0.232544 0.022714 0.236300

loop_
_geom_bond_atom_site_label_1
_geom_bond_atom_site_label_2
_ccdc_geom_bond_type
C10   H3    S    
C2    C22   A    
C9    N1    A    
C8    C22   S    
Cu1   Cu2   S    
C12   O3    A    
C12   O4    A    
C8    O10   S    
C26   H24   S    
Cu1   O1    S    
C8    H2    S    
C13   N2    A    
C23   H12   S    
C7    H18   S    
C21   H17   S    
C4    H11   S    
C25   C26   S    
C24   H14   S    
C9    C15   S    
C19   O9    S    
C15   H8    S    
C23   H13   S    
Cu2   N1    S    
C13   C14   S    
C15   H7    S    
Cu2   O4    S    
Cu1   O5    S    
C16   O6    A    
O10   C25   S    
C6    C7    S    
C18   H1    S    
C7    H19   S    
C14   H6    S    
C5    C6    A    
Cu2   O8    S    
C11   H4    S    
C17   C19   S    
C17   O8    A    
C2    C3    A    
C23   C24   S    
C18   C20   S    
C26   H22   S    
C17   O7    A    
C24   H16   S    
C10   C11   A    
C20   H9    S    
C14   H5    S    
C25   H21   S    
Cu1   O3    S    
C6    C22   A    
C16   O5    A    
C7    C8    S    
Cu2   O2    S    
C20   C21   D    
C26   H23   S    
C1    C2    S    
O9    C23   S    
C24   H15   S    
C11   N2    A    
Cu2   O6    S    
C1    O2    A    
C14   C15   S    
C18   C19   D    
C5    C16   S    
C9    C13   A    
C3    H10   S    
C25   H20   S    
Cu1   N2    S    
C12   C21   S    
C1    O1    A    
Cu1   O7    S    
C3    C4    A    
C4    C5    A    
C10   N1    A    
