data_mof_unit_41381.cif
_audit_creation_date              2012-12-10T16:48:10-0500
_audit_creation_method            fapswitch 2.2
_symmetry_space_group_name_H-M    P1
_symmetry_Int_Tables_number       1
_space_group_crystal_system       triclinic
_cell_length_a                    15.847779
_cell_length_b                    8.684702
_cell_length_c                    7.460996
_cell_angle_alpha                 102.924757
_cell_angle_beta                  94.751952
_cell_angle_gamma                 92.216278
_cell_volume                      995.693267952

loop_
_atom_site_label
_atom_site_type_symbol
_atom_type_description
_atom_site_fract_x
_atom_site_fract_y
_atom_site_fract_z
_atom_type_partial_charge
C1    C     C_R   0.497470 0.199754 0.453304 0.883158
C2    C     C_R   0.502530 0.800246 0.546696 0.883158
C3    C     C_R   0.339983 0.499884 0.501309 0.818943
C4    C     C_R   0.660017 0.500116 0.498691 0.818943
C5    C     C_2   0.496259 0.031870 0.427034 -0.350720
C6    C     C_2   0.503741 0.968129 0.572966 -0.350720
C7    C     C_3   0.972310 0.377721 0.569726 -0.233920
C8    C     C_3   0.027690 0.622279 0.430273 -0.233920
C9    C     C_3   0.020755 0.363128 0.394957 0.292483
C10   C     C_3   0.979245 0.636872 0.605043 0.292483
C11   C     C_1   0.250476 0.500486 0.502936 -0.124475
C12   C     C_1   0.749524 0.499514 0.497064 -0.124475
C13   C     C_3   0.035450 0.516097 0.671267 -0.084389
C14   C     C_3   0.964550 0.483903 0.328733 -0.084389
C15   C     C_3   0.083186 0.500403 0.498267 0.008300
C16   C     C_3   0.916814 0.499597 0.501733 0.008300
C17   C     C_1   0.174899 0.500603 0.500665 0.051945
C18   C     C_1   0.825101 0.499397 0.499334 0.051945
Cu1   Cu    Cu3+1 0.509330 0.517380 0.684380 0.980986
Cu2   Cu    Cu3+1 0.490670 0.482620 0.315620 0.980986
H1    H     H_    0.949066 0.278253 0.627169 0.208802
H2    H     H_    0.050934 0.721746 0.372831 0.208802
H3    H     H_    0.489208 0.960366 0.286367 0.181964
H4    H     H_    0.510792 0.039634 0.713633 0.181964
H5    H     H_    0.434362 0.376918 0.948357 0.231709
H6    H     H_    0.565638 0.623081 0.051643 0.231709
N1    N     N_2   0.476600 0.456420 0.038510 -0.211701
N2    N     N_2   0.523400 0.543580 0.961490 -0.211701
O1    O     O_R   0.506070 0.286130 0.619780 -0.585942
O2    O     O_R   0.493930 0.713870 0.380220 -0.585942
O3    O     O_R   0.490300 0.256770 0.308360 -0.583202
O4    O     O_R   0.509700 0.743230 0.691640 -0.583202
O5    O     O_R   0.386960 0.514660 0.655680 -0.584485
O6    O     O_R   0.613040 0.485340 0.344320 -0.584485
O7    O     O_R   0.371190 0.485310 0.344260 -0.564109
O8    O     O_R   0.628810 0.514690 0.655740 -0.564109
Br1   Br    Br    0.051641 0.165858 0.242365 -0.432063
Br2   Br    Br    0.948359 0.834141 0.757635 -0.432063
C19   C     C_1   0.922826 0.465650 0.141443 0.356497
N3    N     N_1   0.889499 0.451261 0.994210 -0.259782
C20   C     C_1   0.077174 0.534350 0.858556 0.356497
N4    N     N_1   0.110501 0.548739 0.005790 -0.259782

loop_
_geom_bond_atom_site_label_1
_geom_bond_atom_site_label_2
_ccdc_geom_bond_type
C8    H2    S    
C9    C14   S    
C4    O8    A    
C15   C17   S    
Cu2   N1    S    
H5    N1    S    
C20   N4    T    
H6    N2    S    
Cu1   Cu2   S    
C5    H3    S    
C3    O7    A    
C10   Br2   S    
C6    H4    S    
C1    O1    A    
C9    C15   S    
Cu2   O6    S    
C16   C18   S    
C10   C16   S    
C7    H1    S    
Cu1   N2    S    
C2    C6    S    
C1    C5    S    
Cu1   O4    S    
C13   C20   S    
C7    C16   S    
C8    C15   S    
C14   C16   S    
Cu1   O8    S    
C13   C15   S    
C1    O3    A    
C5    C6    D    
C4    O6    A    
C3    C11   S    
C2    O2    A    
C3    O5    A    
Cu1   O1    S    
C7    C13   S    
C2    O4    A    
C9    Br1   S    
Cu1   O5    S    
C12   C18   T    
C19   N3    T    
C7    C9    S    
C11   C17   T    
Cu2   O2    S    
C8    C14   S    
C14   C19   S    
C4    C12   S    
Cu2   O7    S    
Cu2   O3    S    
C8    C10   S    
N1    N2    D    
C10   C13   S    
