data_mof_unit_52059.cif
_audit_creation_date              2012-12-11T14:56:07-0500
_audit_creation_method            fapswitch 2.2
_symmetry_space_group_name_H-M    P1
_symmetry_Int_Tables_number       1
_space_group_crystal_system       triclinic
_cell_length_a                    27.776691
_cell_length_b                    17.245641
_cell_length_c                    18.036462
_cell_angle_alpha                 90.183316
_cell_angle_beta                  137.977105
_cell_angle_gamma                 89.882282
_cell_volume                      5783.78953868

loop_
_atom_site_label
_atom_site_type_symbol
_atom_type_description
_atom_site_fract_x
_atom_site_fract_y
_atom_site_fract_z
_atom_type_partial_charge
C1    C     C_R   0.685485 0.900622 0.808005 -0.139615
C2    C     C_3   0.250623 0.651776 0.046579 -0.166775
C3    C     C_3   0.701956 0.711939 0.940124 -0.086803
C4    C     C_3   0.164029 0.735211 0.969765 -0.059550
C5    C     C_3   0.793279 0.216558 0.057340 -0.072106
C6    C     C_3   0.832430 0.745455 0.038358 -0.064869
C7    C     C_3   0.201953 0.211922 0.940106 -0.086804
C8    C     C_3   0.231602 0.707856 0.089752 -0.144153
C9    C     C_3   0.726816 0.244551 0.939403 -0.163988
C10   C     C_3   0.768736 0.718779 0.916619 -0.170039
C11   C     C_3   0.264963 0.239086 0.060137 -0.137640
C12   C     C_3   0.731346 0.208161 0.089502 -0.143714
C13   C     C_3   0.284089 0.302795 0.025596 -0.142956
C14   C     C_3   0.226550 0.744850 0.939214 -0.164132
C15   C     C_3   0.268748 0.218792 0.916630 -0.170033
C16   C     C_3   0.764977 0.739103 0.060153 -0.137643
C17   C     C_3   0.274272 0.771883 0.098961 0.057397
C18   C     C_3   0.683355 0.180370 0.928515 0.057113
C19   C     C_3   0.720590 0.775002 0.905472 0.045587
C20   C     C_3   0.313525 0.182413 0.072512 0.058110
C21   C     C_3   0.774311 0.271878 0.098931 0.057315
C22   C     C_3   0.183383 0.680363 0.928544 0.057183
C23   C     C_3   0.220588 0.274998 0.905469 0.045587
C24   C     C_3   0.750068 0.654407 0.952546 -0.149639
C25   C     C_3   0.813525 0.682414 0.072513 0.058134
C26   C     C_2   0.590600 0.243381 0.918641 1.011459
C27   C     C_2   0.365504 0.707484 0.104001 1.013432
C28   C     C_2   0.406569 0.261701 0.094841 1.002530
C29   C     C_2   0.629181 0.694052 0.888163 1.025550
C30   C     C_2   0.090723 0.742644 0.919294 1.011807
C31   C     C_2   0.865640 0.206749 0.104596 1.013219
C32   C     C_2   0.906566 0.761670 0.094810 1.002535
C33   C     C_2   0.129177 0.194016 0.888129 1.025509
C34   C     C_2   0.672785 0.948227 0.395114 0.975400
C35   C     C_3   0.206942 0.800293 0.980853 -0.161826
C36   C     C_2   0.160329 0.155870 0.188115 1.006403
C37   C     C_2   0.173608 0.837352 0.293398 1.007178
C38   C     C_2   0.835812 0.171418 0.742762 1.024757
C39   C     C_2   0.172855 0.448236 0.395209 0.975356
C40   C     C_2   0.660336 0.655850 0.188133 1.006367
C41   C     C_2   0.673503 0.337267 0.293016 1.007208
C42   C     C_2   0.335873 0.671460 0.743091 1.024726
C43   C     C_2   0.630191 0.678036 0.449495 1.004911
C44   C     C_2   0.336603 0.357944 0.359270 1.042353
C45   C     C_2   0.350696 0.638857 0.464455 1.027306
C46   C     C_3   0.750395 0.151739 0.046635 -0.166622
C47   C     C_2   0.655338 0.365356 0.568217 1.059146
C48   C     C_2   0.130158 0.178042 0.449433 1.004769
C49   C     C_2   0.836604 0.857946 0.359304 1.042280
C50   C     C_2   0.850607 0.138810 0.464082 1.027341
C51   C     C_2   0.155398 0.865381 0.568549 1.059173
C52   C     C_3   0.784102 0.802799 0.025596 -0.142971
C53   C     C_3   0.250080 0.154405 0.952542 -0.149599
C54   C     C_R   0.648795 0.815205 0.420350 -0.041733
C55   C     C_R   0.270437 0.239541 0.330120 0.063698
C56   C     C_R   0.290073 0.765854 0.425196 0.061091
C57   C     C_R   0.332821 0.076964 0.183195 -0.079693
C58   C     C_R   0.717227 0.240100 0.605359 0.094666
C59   C     C_R   0.148800 0.315214 0.420351 -0.041513
C60   C     C_R   0.770432 0.739537 0.330123 0.063710
C61   C     C_R   0.789977 0.265788 0.424845 0.061006
C62   C     C_R   0.217289 0.740140 0.605654 0.094660
C63   C     C_R   0.243478 0.364824 0.353189 -0.240760
C64   C     C_R   0.649644 0.703368 0.339152 -0.172728
C65   C     C_R   0.698746 0.335390 0.488934 -0.217368
C66   C     C_R   0.314792 0.676053 0.552184 -0.213762
C67   C     C_R   0.743456 0.864820 0.353168 -0.240829
C68   C     C_R   0.312845 0.899524 0.194918 -0.111865
C69   C     C_R   0.149630 0.203386 0.339120 -0.172981
C70   C     C_R   0.198863 0.835479 0.489330 -0.217339
C71   C     C_R   0.814684 0.175969 0.551801 -0.213667
C72   C     C_R   0.283704 0.320208 0.348728 -0.205713
C73   C     C_R   0.640967 0.733923 0.400140 -0.119472
C74   C     C_R   0.690698 0.313278 0.553742 -0.234512
C75   C     C_R   0.318372 0.694264 0.481043 -0.140486
C76   C     C_R   0.783691 0.820205 0.348724 -0.205708
C77   C     C_R   0.140953 0.233936 0.400108 -0.119718
C78   C     C_R   0.190783 0.813335 0.554090 -0.234523
C79   C     C_R   0.666308 0.076928 0.816552 -0.093637
C80   C     C_R   0.818263 0.194189 0.480659 -0.140524
C81   C     C_R   0.203986 0.213557 0.280330 -0.197639
C82   C     C_R   0.674137 0.862572 0.390671 -0.112955
C83   C     C_R   0.776182 0.210489 0.633561 -0.214413
C84   C     C_R   0.234322 0.799054 0.402996 -0.227273
C85   C     C_R   0.703983 0.713546 0.280336 -0.197594
C86   C     C_R   0.174166 0.362580 0.390707 -0.112895
C87   C     C_R   0.276268 0.710558 0.633907 -0.214378
C88   C     C_R   0.734205 0.298958 0.402608 -0.227246
C89   C     C_R   0.179796 0.248509 0.317792 0.106036
C90   C     C_R   0.185484 0.400620 0.808004 -0.139649
C91   C     C_R   0.698438 0.826718 0.352982 0.116039
C92   C     C_R   0.777831 0.225047 0.558754 0.092924
C93   C     C_R   0.235029 0.786236 0.480951 0.138937
C94   C     C_R   0.679790 0.748495 0.317793 0.105841
C95   C     C_R   0.198460 0.326725 0.353007 0.116040
C96   C     C_R   0.277941 0.725134 0.559133 0.092995
C97   C     C_R   0.734909 0.286140 0.480558 0.138968
C98   C     C_R   0.323223 0.102916 0.397733 -0.094708
C99   C     C_R   0.655229 0.914979 0.535403 -0.084682
C100  C     C_R   0.674653 0.102605 0.591465 -0.088589
C101  C     C_R   0.832819 0.576967 0.183195 -0.079747
C102  C     C_R   0.327196 0.899334 0.416242 -0.103713
C103  C     C_R   0.823223 0.602914 0.397734 -0.094669
C104  C     C_R   0.155230 0.414984 0.535406 -0.084700
C105  C     C_R   0.174666 0.602616 0.591528 -0.088547
C106  C     C_R   0.827174 0.399317 0.416158 -0.103699
C107  C     C_R   0.409904 0.805331 0.504623 -0.098605
C108  C     C_R   0.592391 0.196254 0.503862 -0.108438
C109  C     C_R   0.568073 0.823956 0.439823 -0.047391
C110  C     C_R   0.403642 0.197574 0.481733 -0.104064
C111  C     C_R   0.909877 0.305314 0.504530 -0.098599
C112  C     C_R   0.812858 0.399523 0.194892 -0.112338
C113  C     C_R   0.092406 0.696264 0.503924 -0.108397
C114  C     C_R   0.068076 0.323959 0.439823 -0.047287
C115  C     C_R   0.903641 0.697574 0.481731 -0.104130
C116  C     C_R   0.581052 0.168396 0.725241 -0.112041
C117  C     C_R   0.396442 0.807068 0.284711 -0.098773
C118  C     C_R   0.417601 0.168792 0.273985 -0.064279
C119  C     C_R   0.599966 0.809784 0.718594 -0.081196
C120  C     C_R   0.081067 0.668402 0.725255 -0.112345
C121  C     C_R   0.896467 0.307079 0.284693 -0.098245
C122  C     C_R   0.917602 0.668792 0.273986 -0.064320
C123  C     C_R   0.166334 0.576939 0.816557 -0.093170
C124  C     C_R   0.099964 0.309784 0.718593 -0.081131
C125  C     C_R   0.669268 0.828266 0.816233 0.085603
C126  C     C_R   0.359802 0.136462 0.171399 0.063043
C127  C     C_R   0.326313 0.824689 0.189293 0.097667
C128  C     C_R   0.638435 0.135839 0.827870 0.073712
C129  C     C_R   0.169266 0.328264 0.816231 0.085607
C130  C     C_R   0.859801 0.636463 0.171400 0.062996
C131  C     C_R   0.826349 0.324702 0.189243 0.097636
C132  C     C_R   0.138473 0.635856 0.827884 0.073680
C133  C     C_R   0.330636 0.183007 0.404570 0.058157
C134  C     C_3   0.707181 0.300328 0.980734 -0.161694
C135  C     C_R   0.626229 0.850074 0.465530 0.109299
C136  C     C_R   0.663760 0.181922 0.568869 0.071066
C137  C     C_R   0.339627 0.820877 0.445273 0.108676
C138  C     C_R   0.830634 0.683006 0.404570 0.058107
C139  C     C_R   0.126233 0.350081 0.465531 0.109258
C140  C     C_R   0.163785 0.681940 0.568991 0.070989
C141  C     C_R   0.839585 0.320848 0.445113 0.108575
C142  C     C_3   0.663976 0.235553 0.969436 -0.059754
C143  C     C_3   0.293210 0.716896 0.057064 -0.071928
C144  C     C_3   0.332431 0.245468 0.038372 -0.064871
H1    H     H_    0.738390 0.926054 0.863161 0.120425
H2    H     H_    0.143277 0.141491 0.323477 0.187209
H3    H     H_    0.178826 0.891076 0.448338 0.176252
H4    H     H_    0.838373 0.122451 0.598169 0.217607
H5    H     H_    0.252810 0.426561 0.367343 0.174099
H6    H     H_    0.643309 0.641470 0.323537 0.187191
H7    H     H_    0.678690 0.390975 0.447905 0.176194
H8    H     H_    0.338473 0.622533 0.598549 0.217535
H9    H     H_    0.273453 0.071112 0.337802 0.107945
H10   H     H_    0.702608 0.947471 0.574511 0.117079
H11   H     H_    0.725660 0.072888 0.649088 0.119098
H12   H     H_    0.283415 0.045482 0.117562 0.119967
H13   H     H_    0.276894 0.930096 0.363067 0.115586
H14   H     H_    0.773454 0.571108 0.337805 0.107907
H15   H     H_    0.202609 0.447481 0.574517 0.117064
H16   H     H_    0.225676 0.572902 0.649183 0.119078
H17   H     H_    0.776865 0.430071 0.362942 0.115638
H18   H     H_    0.437087 0.750146 0.534271 0.112610
H19   H     H_    0.566566 0.251957 0.479829 0.112209
H20   H     H_    0.532659 0.776161 0.386537 0.099295
H21   H     H_    0.428307 0.253030 0.499313 0.119580
H22   H     H_    0.937044 0.250121 0.534123 0.112599
H23   H     H_    0.260720 0.926614 0.141186 0.119712
H24   H     H_    0.066587 0.751968 0.479925 0.112201
H25   H     H_    0.032663 0.276165 0.386536 0.099288
H26   H     H_    0.928306 0.753029 0.499313 0.119556
H27   H     H_    0.550853 0.219642 0.705870 0.123701
H28   H     H_    0.420688 0.750078 0.312663 0.110587
H29   H     H_    0.447137 0.220467 0.292946 0.120968
H30   H     H_    0.573957 0.753809 0.692155 0.104018
H31   H     H_    0.050868 0.719645 0.705896 0.123764
H32   H     H_    0.920711 0.250090 0.312664 0.110476
H33   H     H_    0.947142 0.720463 0.292950 0.120996
H34   H     H_    0.715632 0.045652 0.882592 0.114627
H35   H     H_    0.073953 0.253810 0.692151 0.104032
H36   H     H_    0.234499 0.694992 0.153241 0.194874
H37   H     H_    0.724675 0.258524 0.876885 0.179143
H38   H     H_    0.768910 0.712599 0.855528 0.163613
H39   H     H_    0.263487 0.245843 0.119696 0.191766
H40   H     H_    0.734039 0.195545 0.152818 0.194840
H41   H     H_    0.224201 0.759071 0.876519 0.179231
H42   H     H_    0.268932 0.212624 0.855550 0.163612
H43   H     H_    0.763513 0.745873 0.119724 0.191772
H44   H     H_    0.690168 0.361637 0.954782 0.165765
H45   H     H_    0.238391 0.426049 0.863160 0.120414
H46   H     H_    0.267259 0.590269 0.071374 0.163855
H47   H     H_    0.296900 0.364104 0.053881 0.168900
H48   H     H_    0.737636 0.592895 0.925255 0.165435
H49   H     H_    0.189730 0.861571 0.954961 0.165727
H50   H     H_    0.766831 0.090201 0.071481 0.163907
H51   H     H_    0.796923 0.864108 0.053879 0.168963
H52   H     H_    0.237658 0.092894 0.925249 0.165484
H53   H     H_    0.508077 0.190917 0.876308 0.338948
H54   H     H_    0.447366 0.758069 0.142753 0.342374
H55   H     H_    0.494488 0.220660 0.143121 0.347893
H56   H     H_    0.783411 0.545488 0.117562 0.119979
H57   H     H_    0.543442 0.732420 0.847833 0.350184
H58   H     H_    0.008500 0.689669 0.877332 0.338992
H59   H     H_    0.947790 0.256814 0.143696 0.342388
H60   H     H_    0.994470 0.720606 0.143066 0.347842
H61   H     H_    0.043426 0.232356 0.847785 0.350187
H62   H     H_    0.728084 0.047599 0.468031 0.317512
H63   H     H_    0.069193 0.092670 0.076426 0.341625
H64   H     H_    0.129254 0.864273 0.143690 0.343703
H65   H     H_    0.937380 0.129945 0.858249 0.346805
H66   H     H_    0.228207 0.547581 0.468164 0.317533
H67   H     H_    0.760723 0.426595 0.141142 0.119941
H68   H     H_    0.569229 0.592597 0.076498 0.341631
H69   H     H_    0.629223 0.364310 0.143389 0.343611
H70   H     H_    0.437448 0.630010 0.858624 0.346842
H71   H     H_    0.652687 0.648416 0.580905 0.339860
H72   H     H_    0.373020 0.433511 0.478437 0.326671
H73   H     H_    0.363197 0.606939 0.371737 0.348430
H74   H     H_    0.584393 0.412179 0.414150 0.324453
H75   H     H_    0.152648 0.148394 0.580829 0.339902
H76   H     H_    0.873076 0.933408 0.478595 0.326657
H77   H     H_    0.863153 0.106952 0.371406 0.348469
H78   H     H_    0.215658 0.545661 0.882582 0.114499
H79   H     H_    0.084524 0.912299 0.414544 0.324464
H80   H     H_    0.752791 0.926557 0.367327 0.174134
N1    N     N_R   0.625380 0.928280 0.709340 -0.045391
N2    N     N_R   0.613900 0.929750 0.547530 -0.053051
N3    N     N_R   0.613900 0.070250 0.547530 -0.045066
N4    N     N_R   0.386100 0.929750 0.452470 -0.051254
N5    N     N_R   0.886100 0.570250 0.452470 -0.047759
N6    N     N_R   0.113900 0.429750 0.547530 -0.053055
N7    N     N_R   0.113900 0.570250 0.547530 -0.045056
N8    N     N_R   0.886100 0.429750 0.452470 -0.051236
N9    N     N_R   0.437800 0.869550 0.507970 -0.051910
N10   N     N_R   0.562200 0.130450 0.492030 -0.047605
N11   N     N_R   0.562200 0.869550 0.492030 -0.054975
N12   N     N_R   0.374620 0.071720 0.290660 -0.046887
N13   N     N_R   0.437800 0.130450 0.507970 -0.050405
N14   N     N_R   0.937800 0.369550 0.507970 -0.051903
N15   N     N_R   0.062200 0.630450 0.492030 -0.047604
N16   N     N_R   0.062200 0.369550 0.492030 -0.055005
N17   N     N_R   0.937800 0.630450 0.507970 -0.050390
N18   N     N_R   0.573690 0.128980 0.653840 -0.048577
N19   N     N_R   0.426310 0.871020 0.346160 -0.048234
N20   N     N_R   0.426310 0.128980 0.346160 -0.050070
N21   N     N_R   0.573690 0.871020 0.653840 -0.048324
N22   N     N_R   0.073690 0.628980 0.653840 -0.048552
N23   N     N_R   0.374620 0.928280 0.290660 -0.046143
N24   N     N_R   0.926310 0.371020 0.346160 -0.048306
N25   N     N_R   0.926310 0.628980 0.346160 -0.050072
N26   N     N_R   0.073690 0.371020 0.653840 -0.048331
N27   N     N_R   0.625380 0.071720 0.709340 -0.047201
N28   N     N_R   0.125380 0.428280 0.709340 -0.045402
N29   N     N_R   0.874620 0.571720 0.290660 -0.046864
N30   N     N_R   0.874620 0.428280 0.290660 -0.046137
N31   N     N_R   0.125380 0.571720 0.709340 -0.047224
N32   N     N_R   0.386100 0.070250 0.452470 -0.047766
Ni1   Ni    Ni4+2 0.616560 0.000000 0.627280 0.246730
Ni2   Ni    Ni4+2 0.383440 0.000000 0.372720 0.247166
Ni3   Ni    Ni4+2 0.116560 0.500000 0.627280 0.246744
Ni4   Ni    Ni4+2 0.883440 0.500000 0.372720 0.247166
Ni5   Ni    Ni4+2 0.497990 0.870580 0.500000 0.239890
Ni6   Ni    Ni4+2 0.502010 0.129420 0.500000 0.254084
Ni7   Ni    Ni4+2 0.997990 0.370580 0.500000 0.239883
Ni8   Ni    Ni4+2 0.002010 0.629420 0.500000 0.254054
O1    O     O_2   0.559977 0.306050 0.882812 -0.621005
O2    O     O_R   0.057977 0.677692 0.913267 -0.777917
O3    O     O_2   0.895329 0.143557 0.139494 -0.594210
O4    O     O_R   0.898784 0.270197 0.108745 -0.775017
O5    O     O_2   0.933315 0.825766 0.134326 -0.600946
O6    O     O_R   0.944855 0.703045 0.102466 -0.769406
O7    O     O_2   0.102829 0.129748 0.848954 -0.603417
O8    O     O_R   0.091992 0.251075 0.885132 -0.780115
O9    O     O_2   0.615038 0.981910 0.332841 -0.604832
O10   O     O_R   0.737011 0.990033 0.472073 -0.813184
O11   O     O_2   0.180659 0.133692 0.150348 -0.648759
O12   O     O_R   0.557578 0.178682 0.912466 -0.777921
O13   O     O_R   0.093944 0.130612 0.139410 -0.776686
O14   O     O_2   0.121985 0.863849 0.267828 -0.619027
O15   O     O_R   0.173482 0.838199 0.215620 -0.802758
O16   O     O_2   0.829765 0.158846 0.802292 -0.623891
O17   O     O_R   0.900966 0.154526 0.782055 -0.787038
O18   O     O_2   0.115124 0.481951 0.332964 -0.604812
O19   O     O_R   0.237101 0.490007 0.472183 -0.813106
O20   O     O_2   0.680655 0.633699 0.150341 -0.648692
O21   O     O_R   0.593973 0.630546 0.139472 -0.776668
O22   O     O_2   0.621824 0.363653 0.267371 -0.619050
O23   O     O_2   0.395372 0.644385 0.138755 -0.594268
O24   O     O_R   0.673452 0.338244 0.215327 -0.802970
O25   O     O_2   0.329780 0.658819 0.802551 -0.623851
O26   O     O_R   0.401055 0.654617 0.782447 -0.786988
O27   O     O_2   0.593647 0.619848 0.398076 -0.580141
O28   O     O_R   0.663878 0.690573 0.556388 -0.800717
O29   O     O_2   0.345533 0.332231 0.307011 -0.617001
O30   O     O_R   0.377152 0.422108 0.428259 -0.731273
O31   O     O_2   0.387498 0.584856 0.528524 -0.595993
O32   O     O_R   0.338474 0.648159 0.374492 -0.820496
O33   O     O_2   0.672302 0.360927 0.652888 -0.582326
O34   O     O_R   0.398381 0.771196 0.108022 -0.774979
O35   O     O_R   0.602463 0.418956 0.487357 -0.722124
O36   O     O_2   0.093592 0.119872 0.397982 -0.580222
O37   O     O_R   0.163853 0.190553 0.556335 -0.800669
O38   O     O_2   0.845513 0.832278 0.307001 -0.616946
O39   O     O_R   0.877194 0.922060 0.428390 -0.731128
O40   O     O_2   0.887402 0.084800 0.528133 -0.596027
O41   O     O_R   0.838417 0.148155 0.374155 -0.820452
O42   O     O_2   0.172309 0.860886 0.653168 -0.582428
O43   O     O_R   0.102559 0.919022 0.487730 -0.722145
O44   O     O_2   0.433308 0.325799 0.134361 -0.601053
O45   O     O_R   0.444872 0.203088 0.102510 -0.769371
O46   O     O_2   0.602823 0.629787 0.848994 -0.603279
O47   O     O_R   0.592008 0.751127 0.885171 -0.780154
O48   O     O_2   0.059916 0.805213 0.883599 -0.621153

loop_
_geom_bond_atom_site_label_1
_geom_bond_atom_site_label_2
_ccdc_geom_bond_type
C6    C32   S    
C42   O26   S    
N25   N29   A    
C38   C83   S    
H64   O15   S    
C20   C144  S    
N23   Ni2   S    
C101  H56   S    
N18   N27   A    
N9    Ni5   S    
C49   O38   D    
C6    C25   S    
N22   N31   A    
C61   C80   A    
N26   N28   A    
C41   C88   S    
C115  N17   A    
C118  H29   S    
C2    C22   S    
C27   C143  S    
C28   O45   S    
C3    C19   S    
C28   C144  S    
C88   C97   A    
C37   O14   D    
H63   O13   S    
C101  C130  A    
C107  N9    A    
C44   O30   S    
C33   O7    D    
C7    C33   S    
C32   O5    D    
N2    Ni1   S    
C34   O9    D    
C116  N18   A    
C11   C20   S    
C110  N13   A    
C134  H44   S    
C70   C93   A    
C17   C127  S    
C55   C133  S    
N7    Ni3   S    
C19   C125  S    
C82   C91   A    
C116  H27   S    
C100  N3    A    
C101  N29   A    
C8    H36   S    
C120  H31   S    
C107  H18   S    
C117  N19   A    
C100  H11   S    
C50   O40   D    
H57   O47   S    
C29   O46   D    
C7    C53   S    
C104  H15   S    
C14   C35   S    
C50   O41   S    
C114  N16   A    
C16   C25   S    
C14   H41   S    
C2    H46   S    
C47   C74   S    
H74   O35   S    
H68   O21   S    
C5    C46   S    
N12   Ni2   S    
C8    C17   S    
C51   C78   S    
C64   C94   A    
C105  C140  A    
C11   C13   S    
N29   Ni4   S    
C44   C72   S    
C84   C93   A    
C112  C131  A    
C99   N2    A    
C86   C95   A    
C5    C21   S    
N6    Ni3   S    
C64   H6    S    
C53   H52   S    
C6    C52   S    
C48   O36   D    
C60   C138  S    
C91   C94   A    
H60   O6    S    
C43   C73   S    
C122  H33   S    
C123  C132  A    
C109  C135  A    
H55   O45   S    
N13   N32   A    
C69   C77   A    
C117  H28   S    
N21   Ni5   S    
C113  H24   S    
C5    C9    S    
H66   O19   S    
H59   O4    S    
C119  H30   S    
N4    Ni2   S    
C105  H16   S    
C99   H10   S    
H65   O17   S    
C13   C23   S    
C106  H17   S    
C3    C29   S    
C42   O25   D    
C124  N26   A    
C38   O17   S    
C18   C128  S    
C90   C129  A    
C121  N24   A    
C71   C92   A    
C43   O27   D    
C64   C73   A    
C55   C81   A    
H71   O28   S    
H54   O34   S    
C56   C75   A    
C87   C96   A    
C28   O44   D    
C3    C24   S    
C120  N22   A    
C115  H26   S    
C69   C89   A    
C25   C130  S    
C118  N20   A    
C92   C97   A    
C46   H50   S    
H76   O39   S    
C57   H12   S    
C108  N10   A    
C49   C76   S    
C31   O3    D    
C112  H67   S    
C12   C46   S    
C48   O37   S    
H53   O12   S    
C10   C24   S    
C65   C74   A    
C102  C137  A    
C48   C77   S    
C65   H7    S    
C66   H8    S    
C4    C22   S    
C112  N30   A    
C36   C81   S    
C102  N4    A    
N18   Ni6   S    
C24   H48   S    
H58   O2    S    
N4    N9    A    
C109  N11   A    
C61   C141  S    
N20   Ni6   S    
N22   Ni8   S    
C58   C74   A    
C40   O20   D    
C62   C78   A    
C79   H34   S    
C50   C80   S    
H70   O26   S    
C17   C35   S    
C14   C22   S    
C119  N21   A    
C58   C83   A    
C56   C137  S    
C7    C23   S    
C54   C135  S    
C4    C35   S    
C9    H37   S    
C111  C141  A    
C27   O23   D    
N5    Ni4   S    
C9    C18   S    
N10   Ni6   S    
C42   C87   S    
N19   Ni5   S    
C62   C140  S    
C3    C16   S    
C100  C136  A    
C103  N5    A    
C114  H25   S    
C45   O31   D    
C32   O6    S    
N14   Ni7   S    
C98   C133  A    
C15   C53   S    
H79   O43   S    
C110  H21   S    
C39   O18   D    
C63   C95   A    
C40   O21   S    
C23   C129  S    
C21   C131  S    
C124  H35   S    
C1    H1    S    
C19   C52   S    
C123  N31   A    
C81   C89   A    
N13   Ni6   S    
H61   O8    S    
N11   Ni5   S    
C69   H2    S    
C52   H51   S    
C18   C46   S    
C108  H19   S    
C56   C84   A    
C15   H42   S    
C111  N14   A    
C49   O39   S    
C103  C138  A    
H77   O41   S    
C40   C85   S    
C107  C137  A    
C47   O35   S    
H73   O32   S    
C20   C126  S    
C134  C142  S    
C51   O42   D    
N5    N17   A    
C104  N6    A    
N30   Ni4   S    
C10   C19   S    
C67   C91   A    
C99   C135  A    
C117  C127  A    
C68   C127  A    
C37   O15   S    
C119  C125  A    
C38   O16   D    
C60   C76   A    
C44   O29   D    
C33   O8    S    
C45   O32   S    
C41   O22   D    
C21   C134  S    
C54   C82   A    
C57   N12   A    
C106  C141  A    
C66   C96   A    
C1    N1    A    
N3    N10   A    
C14   C143  S    
C79   N27   A    
C2    C8    S    
C16   C52   S    
C20   C53   S    
C109  H20   S    
C6    C10   S    
C60   C85   A    
C103  H14   S    
C62   C87   A    
C104  C139  A    
C17   C143  S    
N27   Ni1   S    
C26   O12   S    
N12   N20   A    
C12   H40   S    
C66   C75   A    
C12   C142  S    
C124  C129  A    
N25   Ni8   S    
C67   H80   S    
N26   Ni7   S    
C35   H49   S    
N1    Ni1   S    
C63   C72   A    
N8    Ni4   S    
C70   H3    S    
C29   O47   S    
C39   C86   S    
C30   O48   D    
N28   Ni3   S    
C79   C128  A    
C89   C95   A    
C70   C78   A    
N6    N16   A    
C4    C8    S    
C59   C77   A    
C98   N32   A    
C7    C11   S    
C83   C92   A    
C34   O10   S    
C105  N7    A    
C47   O33   D    
C1    C125  A    
C108  C136  A    
N24   N30   A    
C13   C144  S    
C121  H32   S    
C54   C73   A    
N7    N15   A    
C63   H5    S    
C39   O19   S    
N17   Ni8   S    
C37   C84   S    
C30   O2    S    
C59   C139  S    
C41   O24   S    
C36   O11   D    
C55   C72   A    
N24   Ni7   S    
C9    C134  S    
C15   C23   S    
C71   H4    S    
C98   H9    S    
N8    N14   A    
C2    C143  S    
C27   O34   S    
C121  C131  A    
C102  H13   S    
C71   C80   A    
C68   N23   A    
N1    N21   A    
C123  H78   S    
N31   Ni3   S    
H62   O10   S    
C18   C142  S    
C11   H39   S    
C24   C25   S    
C57   C126  A    
C58   C136  S    
C90   N28   A    
C12   C21   S    
N2    N11   A    
N32   Ni2   S    
C61   C88   A    
C85   C94   A    
C115  C138  A    
C43   O28   S    
C113  C140  A    
C111  H22   S    
C114  C139  A    
C16   H43   S    
C51   O43   S    
C93   C96   A    
H72   O30   S    
N15   Ni8   S    
N16   Ni7   S    
H75   O37   S    
C22   C132  S    
C31   O4    S    
C120  C132  A    
H69   O24   S    
C34   C82   S    
N19   N23   A    
C13   H47   S    
C45   C75   S    
C26   O1    D    
C59   C86   A    
C65   C97   A    
C122  N25   A    
C10   H38   S    
C106  N8    A    
C36   O13   S    
N3    Ni1   S    
C15   C144  S    
C68   H23   S    
C113  N15   A    
C116  C128  A    
C110  C133  A    
C67   C76   A    
C118  C126  A    
C26   C142  S    
C122  C130  A    
C4    C30   S    
C5    C31   S    
C90   H45   S    
