data_mof_unit_7240.cif
_audit_creation_date              2012-12-10T18:29:41-0500
_audit_creation_method            fapswitch 2.2
_symmetry_space_group_name_H-M    P1
_symmetry_Int_Tables_number       1
_space_group_crystal_system       triclinic
_cell_length_a                    11.508519
_cell_length_b                    15.139674
_cell_length_c                    15.420762
_cell_angle_alpha                 80.985931
_cell_angle_beta                  91.661089
_cell_angle_gamma                 103.589847
_cell_volume                      2579.27611242

loop_
_atom_site_label
_atom_site_type_symbol
_atom_type_description
_atom_site_fract_x
_atom_site_fract_y
_atom_site_fract_z
_atom_type_partial_charge
C1    C     C_R   0.485119 0.441611 0.662305 0.860321
C2    C     C_R   0.516925 0.558638 0.337412 0.882392
C3    C     C_R   0.625372 0.409140 0.914033 0.016164
C4    C     C_R   0.520626 0.657726 0.060997 0.075833
C5    C     C_R   0.548276 0.538990 0.944029 0.052755
C6    C     C_R   0.598090 0.530061 0.028292 0.007697
C7    C     C_R   0.682804 0.476403 0.045472 -0.267332
C8    C     C_R   0.505010 0.618091 0.914539 -0.250495
C9    C     C_R   0.697213 0.415135 0.989600 0.218893
C10   C     C_R   0.494702 0.678979 0.971491 0.198384
C11   C     C_R   0.673627 0.836975 0.644390 0.054985
C12   C     C_R   0.333517 0.165560 0.350784 0.061479
C13   C     C_R   0.650674 0.751291 0.615177 0.265125
C14   C     C_R   0.351875 0.249523 0.383022 0.275566
C15   C     C_R   0.506528 0.794836 0.513247 0.213016
C16   C     C_R   0.494759 0.205462 0.485490 0.199316
C17   C     C_R   0.538868 0.885833 0.531368 -0.057855
C18   C     C_R   0.463626 0.114852 0.466458 -0.058029
C19   C     C_R   0.611182 0.902612 0.605534 0.040127
C20   C     C_R   0.394084 0.099075 0.390832 0.041292
C21   C     C_R   0.496657 0.959147 0.481415 0.104478
C22   C     C_R   0.506137 0.041576 0.516290 0.104295
C23   C     C_R   0.717461 0.500756 0.500326 0.898875
C24   C     C_R   0.282534 0.499226 0.499714 0.887788
C25   C     C_R   0.554508 0.047001 0.600959 -0.203346
C26   C     C_R   0.449689 0.954036 0.396375 -0.205614
C27   C     C_R   0.613878 0.982231 0.641601 -0.208934
C28   C     C_R   0.392746 0.019802 0.354490 -0.204849
C29   C     C_1   0.838668 0.502013 0.500624 -0.202445
C30   C     C_1   0.161311 0.497928 0.499488 -0.204414
C31   C     C_1   0.940826 0.501015 0.500366 -0.016559
C32   C     C_1   0.059143 0.498900 0.499787 -0.016665
C33   C     C_R   0.499352 0.407792 0.755719 -0.119788
C34   C     C_R   0.528850 0.596853 0.242670 -0.069855
C35   C     C_R   0.626706 0.341488 0.861609 -0.242538
C36   C     C_R   0.497221 0.711637 0.121076 -0.243099
C37   C     C_R   0.566239 0.341387 0.781728 0.090058
C38   C     C_R   0.503001 0.682914 0.211084 0.056076
C39   C     C_R   0.475926 0.461140 0.816579 0.022400
C40   C     C_R   0.562456 0.545329 0.182864 0.005418
C41   C     C_R   0.549719 0.471091 0.890825 0.069484
C42   C     C_R   0.565803 0.578923 0.091247 0.023878
H1    H     H_    0.548035 0.101227 0.637067 0.164591
H2    H     H_    0.456415 0.899664 0.360568 0.165561
H3    H     H_    0.678012 0.290235 0.880827 0.151777
H4    H     H_    0.469379 0.774958 0.098817 0.175439
H5    H     H_    0.741855 0.486085 0.100298 0.165291
H6    H     H_    0.484170 0.636353 0.846353 0.168694
H7    H     H_    0.657046 0.993364 0.703490 0.150912
H8    H     H_    0.352189 0.009428 0.291633 0.149675
N1    N     N_R   0.566020 0.731700 0.552730 -0.156574
N2    N     N_R   0.433980 0.268300 0.447270 -0.155690
O1    O     O_R   0.466720 0.383110 0.605620 -0.616381
O2    O     O_R   0.533280 0.616890 0.394380 -0.611454
O3    O     O_R   0.509090 0.531900 0.639510 -0.602876
O4    O     O_R   0.490910 0.468100 0.360490 -0.572802
O5    O     O_R   0.644370 0.425610 0.483050 -0.620617
O6    O     O_R   0.355630 0.574390 0.516950 -0.624270
O7    O     O_R   0.686740 0.574390 0.516930 -0.584248
O8    O     O_R   0.313260 0.425610 0.483070 -0.585867
Zn1   Zn    Zn3+2 0.471710 0.400660 0.477370 0.945987
Zn2   Zn    Zn3+2 0.528290 0.599340 0.522630 0.939870
N3    N     N_2   0.782769 0.359573 0.007709 -0.306470
H9    H     H_    0.841481 0.364666 0.956895 0.221145
C43   C     C_3   0.833472 0.346830 0.094531 -0.810840
H10   H     H_    0.881924 0.290901 0.099614 0.243058
H11   H     H_    0.761633 0.326569 0.145357 0.246271
H12   H     H_    0.898094 0.410835 0.106306 0.235538
N4    N     N_2   0.443638 0.754994 0.940749 -0.312686
H13   H     H_    0.362505 0.736042 0.910374 0.231110
C44   C     C_3   0.523578 0.831227 0.888255 -0.839430
H14   H     H_    0.481692 0.890977 0.876029 0.245521
H15   H     H_    0.540514 0.811994 0.824028 0.232967
H16   H     H_    0.609302 0.851735 0.923080 0.251980
N5    N     N_3   0.575642 0.453812 0.215719 -0.442979
H17   H     H_    0.533984 0.406270 0.175531 0.198128
H18   H     H_    0.665101 0.453419 0.228393 0.177219
N6    N     N_3   0.368732 0.495120 0.808301 -0.475873
H19   H     H_    0.295874 0.439592 0.804749 0.180522
H20   H     H_    0.371418 0.541866 0.750541 0.196230
N7    N     N_3   0.474388 0.739223 0.269832 -0.462062
H21   H     H_    0.534272 0.803555 0.257829 0.183532
H22   H     H_    0.388330 0.748670 0.255556 0.173782
N8    N     N_3   0.574478 0.275189 0.726566 -0.469416
H23   H     H_    0.490002 0.230692 0.725798 0.185488
H24   H     H_    0.633190 0.234843 0.752743 0.172212
N9    N     N_2   0.600019 0.234899 0.533471 -0.311966
H25   H     H_    0.598430 0.285974 0.569087 0.295977
C45   C     C_3   0.711282 0.245047 0.487154 -0.742377
H26   H     H_    0.787727 0.268926 0.530008 0.233012
H27   H     H_    0.716866 0.295948 0.426224 0.251810
H28   H     H_    0.718567 0.178199 0.469532 0.239435
N10   N     N_2   0.402157 0.765711 0.464024 -0.311389
H29   H     H_    0.403763 0.714905 0.427816 0.289906
C46   C     C_3   0.290020 0.756384 0.508866 -0.753896
H30   H     H_    0.214419 0.732942 0.465159 0.232437
H31   H     H_    0.282973 0.823456 0.526074 0.241045
H32   H     H_    0.282699 0.705497 0.569920 0.252214
N11   N     N_2   0.297083 0.319926 0.341659 -0.237189
H33   H     H_    0.313296 0.336665 0.274962 0.222266
C47   C     C_3   0.172455 0.308424 0.363695 -0.721310
H34   H     H_    0.114374 0.262647 0.322397 0.231068
H35   H     H_    0.149155 0.376351 0.350396 0.231568
H36   H     H_    0.154628 0.280047 0.434284 0.239282
N12   N     N_2   0.704195 0.680570 0.657613 -0.240061
H37   H     H_    0.687413 0.664827 0.724291 0.215512
C48   C     C_3   0.828670 0.690241 0.636232 -0.705321
H38   H     H_    0.850134 0.621678 0.649902 0.230307
H39   H     H_    0.887441 0.735476 0.677678 0.232858
H40   H     H_    0.847460 0.718323 0.565685 0.238440
N13   N     N_2   0.761687 0.856387 0.710031 -0.307233
H41   H     H_    0.730461 0.872638 0.765935 0.222590
C49   C     C_3   0.872665 0.919068 0.677868 -0.791919
H42   H     H_    0.940585 0.920238 0.730539 0.235418
H43   H     H_    0.859703 0.989844 0.658305 0.240650
H44   H     H_    0.907017 0.896556 0.620452 0.248734
N14   N     N_2   0.255125 0.150059 0.278664 -0.308864
H45   H     H_    0.295436 0.138090 0.224225 0.221025
C50   C     C_3   0.141145 0.086228 0.300940 -0.793675
H46   H     H_    0.152142 0.014593 0.316590 0.238689
H47   H     H_    0.079896 0.090427 0.244290 0.236625
H48   H     H_    0.099604 0.103244 0.358400 0.248081

loop_
_geom_bond_atom_site_label_1
_geom_bond_atom_site_label_2
_ccdc_geom_bond_type
O6    Zn2   S    
C21   C26   A    
N3    C43   S    
C47   H34   S    
C46   H30   S    
N13   H41   S    
N9    H25   S    
C25   H1    S    
C4    C36   A    
N7    H21   S    
C46   H32   S    
C26   H2    S    
C14   N11   S    
C39   C41   A    
C23   O7    A    
N12   C48   S    
C11   C19   A    
N10   H29   S    
C34   C40   A    
C23   C29   S    
C35   C37   A    
N8    H24   S    
N2    Zn1   S    
N14   C50   S    
C5    C6    A    
N6    H20   S    
O3    Zn2   S    
C23   O5    A    
N4    C44   S    
C1    O1    A    
C13   N1    A    
C28   H8    S    
C14   N2    A    
C31   C32   S    
C43   H11   S    
C22   C25   A    
C16   N9    S    
C48   H38   S    
C37   N8    S    
C36   H4    S    
C15   N1    A    
C45   H27   S    
C19   C27   A    
C49   H44   S    
C2    C34   S    
C40   C42   A    
C24   O6    A    
C47   H35   S    
C34   C38   A    
C21   C22   A    
C48   H39   S    
N1    Zn2   S    
O1    Zn1   S    
N7    H22   S    
C50   H47   S    
C1    C33   S    
C39   N6    S    
N8    H23   S    
C13   N12   S    
C2    O2    A    
C44   H15   S    
N6    H19   S    
O2    Zn2   S    
C11   N13   S    
C33   C37   A    
N3    H9    S    
O8    Zn1   S    
C7    H5    S    
N5    H17   S    
C8    H6    S    
C3    C9    A    
C44   H16   S    
N11   H33   S    
C3    C35   A    
C24   O8    A    
C43   H12   S    
C12   C20   A    
N13   C49   S    
C33   C39   A    
C45   H28   S    
N5    H18   S    
C8    C10   A    
N11   C47   S    
C12   C14   A    
C47   H36   S    
N9    C45   S    
C38   N7    S    
C48   H40   S    
C4    C10   A    
C35   H3    S    
C49   H42   S    
C50   H48   S    
C15   C17   A    
C5    C41   A    
C3    C41   A    
O7    Zn2   S    
C18   C22   A    
C9    N3    S    
C16   N2    A    
C15   N10   S    
C5    C8    A    
C50   H46   S    
C46   H31   S    
O5    Zn1   S    
C6    C7    A    
C25   C27   A    
C20   C28   A    
N12   H37   S    
C26   C28   A    
C40   N5    S    
C36   C38   A    
C1    O3    A    
C44   H14   S    
C29   C31   T    
C2    O4    A    
N14   H45   S    
C30   C32   T    
C11   C13   A    
N10   C46   S    
C4    C42   A    
C17   C19   A    
C18   C20   A    
N4    H13   S    
C24   C30   S    
C12   N14   S    
C10   N4    S    
C7    C9    A    
C16   C18   A    
C43   H10   S    
C6    C42   A    
O4    Zn1   S    
C45   H26   S    
C27   H7    S    
C49   H43   S    
C17   C21   A    
