data_mof_unit_40222.cif
_audit_creation_date              2012-12-10T18:47:49-0500
_audit_creation_method            fapswitch 2.2
_symmetry_space_group_name_H-M    P1
_symmetry_Int_Tables_number       1
_space_group_crystal_system       triclinic
_cell_length_a                    9.898728
_cell_length_b                    10.700694
_cell_length_c                    15.448874
_cell_angle_alpha                 90.892678
_cell_angle_beta                  67.907202
_cell_angle_gamma                 90.448009
_cell_volume                      1516.05685865

loop_
_atom_site_label
_atom_site_type_symbol
_atom_type_description
_atom_site_fract_x
_atom_site_fract_y
_atom_site_fract_z
_atom_type_partial_charge
C1    C     C_R   0.500202 0.739936 0.500281 0.882271
C2    C     C_R   0.367714 0.935564 0.524631 -0.171785
C3    C     C_R   0.499838 0.127540 0.499306 -0.021979
C4    C     C_R   0.500266 0.872472 0.500475 -0.022718
C5    C     C_R   0.959516 0.420378 0.443157 -0.154612
C6    C     C_R   0.040501 0.579672 0.556797 -0.148623
C7    C     C_R   0.102602 0.419710 0.442855 0.223214
C8    C     C_R   0.897374 0.580249 0.557159 0.229622
C9    C     C_R   0.408590 0.499602 0.675902 0.900057
C10   C     C_R   0.591206 0.497931 0.324061 0.894732
C11   C     C_R   0.349779 0.497532 0.777480 -0.093824
C12   C     C_R   0.499841 0.260067 0.499644 0.879616
C13   C     C_R   0.645397 0.474142 0.223805 -0.084646
C14   C     C_R   0.166803 0.558454 0.926607 0.174100
C15   C     C_R   0.795642 0.351884 0.089282 0.174996
C16   C     C_R   0.212703 0.547202 0.829802 -0.200189
C17   C     C_R   0.768749 0.400571 0.178704 -0.205404
C18   C     C_R   0.437544 0.451613 0.821697 -0.225883
C19   C     C_R   0.552698 0.503241 0.178608 -0.199540
C20   C     C_R   0.394657 0.459435 0.918624 0.079639
C21   C     C_R   0.567291 0.445519 0.094135 0.082971
C22   C     C_R   0.258635 0.516799 0.971659 0.121688
C23   C     C_R   0.318890 0.508156 0.108946 -0.202933
C24   C     C_R   0.694249 0.373429 0.046437 0.117134
C25   C     C_R   0.490088 0.421838 0.962614 0.091606
C26   C     C_R   0.458806 0.459727 0.055975 0.090679
C27   C     C_R   0.616494 0.349282 0.916239 -0.205343
C28   C     C_R   0.219962 0.534159 0.067668 -0.173431
C29   C     C_R   0.715256 0.324102 0.958097 -0.171081
C30   C     C_R   0.632587 0.936442 0.475761 -0.151906
C31   C     C_R   0.367530 0.063569 0.523970 -0.151947
C32   C     C_R   0.632405 0.064454 0.475083 -0.172232
H1    H     H_    0.115149 0.572019 0.111490 0.182964
H2    H     H_    0.069799 0.643179 0.602114 0.160050
H3    H     H_    0.735708 0.887899 0.456199 0.173968
H4    H     H_    0.264402 0.112103 0.543547 0.173892
H5    H     H_    0.735543 0.113672 0.455113 0.164801
H6    H     H_    0.264570 0.886360 0.544590 0.164217
H7    H     H_    0.809070 0.267260 0.919609 0.185947
H8    H     H_    0.465479 0.568316 0.213060 0.155966
H9    H     H_    0.543713 0.417021 0.778098 0.165507
H10   H     H_    0.840494 0.376575 0.214283 0.173388
H11   H     H_    0.144586 0.583294 0.795105 0.178232
H12   H     H_    0.281418 0.524072 0.183438 0.162670
H13   H     H_    0.639455 0.306638 0.848502 0.153310
H14   H     H_    0.930215 0.356888 0.397827 0.160290
I1    I     I_    0.965339 0.652233 0.996423 -0.359257
I2    I     I_    0.986141 0.240804 0.027784 -0.353950
I3    I     I_    0.245770 0.288143 0.350078 -0.356525
I4    I     I_    0.753833 0.711266 0.650262 -0.339849
N1    N     N_R   0.142780 0.500030 0.500020 -0.108803
N2    N     N_R   0.857220 0.499970 0.499980 -0.109744
O1    O     O_R   0.385370 0.683250 0.500010 -0.628714
O2    O     O_R   0.614630 0.316750 0.499990 -0.630579
O3    O     O_R   0.614700 0.683220 0.500000 -0.596578
O4    O     O_R   0.385300 0.316780 0.500000 -0.595551
O5    O     O_R   0.319830 0.500020 0.632250 -0.619004
O6    O     O_R   0.680170 0.499980 0.367750 -0.618437
O7    O     O_R   0.549160 0.499990 0.632240 -0.588678
O8    O     O_R   0.450840 0.500010 0.367760 -0.588661
Zn1   Zn    Zn3+2 0.346870 0.500020 0.500000 0.978043
Zn2   Zn    Zn3+2 0.653130 0.499980 0.500000 0.976840

loop_
_geom_bond_atom_site_label_1
_geom_bond_atom_site_label_2
_ccdc_geom_bond_type
O6    Zn2   S    
C2    C4    A    
C21   C26   A    
C11   C18   A    
O5    Zn1   S    
C14   I1    S    
C6    N1    A    
C27   C29   A    
C11   C16   A    
C2    H6    S    
C10   O8    A    
N1    Zn1   S    
C13   C17   A    
C1    C4    S    
C27   H13   S    
C1    O3    A    
C7    N1    A    
C5    N2    A    
C22   C28   A    
C23   C28   A    
C3    C31   A    
C9    C11   S    
C16   H11   S    
C14   C22   A    
C12   O4    A    
C5    H14   S    
C15   I2    S    
C6    C8    A    
C30   H3    S    
C15   C24   A    
C10   O6    A    
C20   C22   A    
C28   H1    S    
C18   C20   A    
C31   H4    S    
C3    C32   A    
C14   C16   A    
C21   C24   A    
C18   H9    S    
C4    C30   A    
C25   C27   A    
C20   C25   A    
C13   C19   A    
C30   C32   A    
O3    Zn2   S    
C8    I4    S    
C32   H5    S    
C17   H10   S    
C7    I3    S    
C9    O5    A    
C5    C7    A    
C19   H8    S    
C23   C26   A    
C29   H7    S    
C15   C17   A    
C8    N2    A    
O4    Zn1   S    
C2    C31   A    
O7    Zn2   S    
C1    O1    A    
C3    C12   S    
O2    Zn2   S    
C19   C21   A    
C25   C26   A    
C24   C29   A    
O1    Zn1   S    
N2    Zn2   S    
C12   O2    A    
C23   H12   S    
C6    H2    S    
O8    Zn1   S    
C9    O7    A    
C10   C13   S    
