data_mof_unit_59833.cif
_audit_creation_date              2012-10-26T21:11:03-0400
_audit_creation_method            fapswitch 2.2
_symmetry_space_group_name_H-M    P1
_symmetry_Int_Tables_number       1
_space_group_crystal_system       triclinic
_cell_length_a                    10.962797
_cell_length_b                    10.945528
_cell_length_c                    13.101542
_cell_angle_alpha                 90.7016
_cell_angle_beta                  91.172035
_cell_angle_gamma                 89.647257
_cell_volume                      1571.62703937

loop_
_atom_site_label
_atom_site_type_symbol
_atom_type_description
_atom_site_fract_x
_atom_site_fract_y
_atom_site_fract_z
_atom_type_partial_charge
C1    C     C_R   0.494975 0.259477 0.498944 0.591980
C2    C     C_R   0.649271 0.851665 0.728673 -0.051332
C3    C     C_R   0.466587 0.114678 0.303755 0.051171
C4    C     C_R   0.531612 0.885708 0.695441 0.051506
C5    C     C_R   0.558060 0.112992 0.230327 -0.074483
C6    C     C_R   0.433273 0.874779 0.761562 -0.081969
C7    C     C_R   0.534606 0.160973 0.133407 -0.114250
C8    C     C_R   0.452727 0.830341 0.860209 -0.111961
C9    C     C_R   0.419461 0.209024 0.108828 -0.131299
C10   C     C_R   0.570525 0.798783 0.893721 -0.106067
C11   C     C_R   0.498003 0.932676 0.408413 -0.073000
C12   C     C_R   0.505885 0.740483 0.500900 0.580747
C13   C     C_R   0.505761 0.067353 0.590432 -0.102236
C14   C     C_R   0.507606 0.873031 0.502135 0.022782
C15   C     C_R   0.494935 0.126957 0.497021 0.012121
C16   C     C_R   0.259531 0.493729 0.498625 0.571911
C17   C     C_R   0.740167 0.508203 0.501391 0.600313
C18   C     C_R   0.513291 0.941177 0.594190 -0.031643
C19   C     C_R   0.488976 0.058958 0.404707 -0.018793
C20   C     C_1   0.500733 0.500129 0.173548 0.152972
C21   C     C_1   0.500211 0.499786 0.826469 0.146078
C22   C     C_1   0.501002 0.500073 0.050692 -0.067090
C23   C     C_R   0.872919 0.510905 0.503411 -0.023267
C24   C     C_1   0.500636 0.499797 0.949316 -0.070419
C25   C     C_R   0.214579 0.727460 0.207031 0.056942
C26   C     C_R   0.804881 0.320622 0.826280 0.064011
C27   C     C_R   0.161255 0.697500 0.301720 0.071379
C28   C     C_R   0.841072 0.333201 0.723255 0.081648
C29   C     C_R   0.121830 0.575762 0.316545 0.032586
C30   C     C_R   0.881095 0.449379 0.690332 0.035717
C31   C     C_R   0.137428 0.487215 0.239632 -0.060358
C32   C     C_R   0.881990 0.549115 0.758723 -0.069800
C33   C     C_R   0.190537 0.517463 0.147969 -0.133738
C34   C     C_R   0.126485 0.490963 0.496262 -0.044424
C35   C     C_R   0.849301 0.534405 0.859837 -0.128187
C36   C     C_R   0.228937 0.636341 0.131805 -0.123537
C37   C     C_R   0.811589 0.421201 0.893510 -0.124500
C38   C     C_R   0.933462 0.548173 0.414950 0.059505
C39   C     C_R   0.065458 0.450588 0.583450 0.030153
C40   C     C_2   0.250807 0.853147 0.180601 0.584502
C41   C     C_2   0.755706 0.205622 0.866157 0.596558
C42   C     C_2   0.151114 0.789732 0.385798 0.599652
C43   C     C_2   0.843834 0.225512 0.652744 0.604087
C44   C     C_2   0.865887 0.608254 0.328938 0.622414
C45   C     C_R   0.939333 0.467961 0.589799 -0.042757
C46   C     C_2   0.132306 0.384055 0.666235 0.602131
C47   C     C_R   0.060356 0.537326 0.411070 -0.040162
C48   C     C_R   0.327947 0.210340 0.181512 -0.092394
C49   C     C_R   0.668608 0.809530 0.827952 -0.108242
C50   C     C_R   0.351414 0.164084 0.278957 -0.012941
Cu1   Cu    Cu3+1 0.499990 0.499990 0.592680 1.058023
Cu2   Cu    Cu3+1 0.500010 0.500010 0.407320 1.054979
H1    H     H_    0.268013 0.657816 0.058918 0.150952
H2    H     H_    0.585856 0.766460 0.970692 0.143395
H3    H     H_    0.279451 0.164600 0.334411 0.147819
H4    H     H_    0.726144 0.861140 0.678798 0.124092
H5    H     H_    0.647040 0.074322 0.248117 0.146503
H6    H     H_    0.342148 0.901480 0.736917 0.135606
H7    H     H_    0.363205 0.958942 0.100256 0.344791
H8    H     H_    0.634379 0.069689 0.848882 0.339885
H9    H     H_    0.051020 0.862270 0.499348 0.345142
H10   H     H_    0.878371 0.045401 0.634027 0.337444
H11   H     H_    0.106738 0.394529 0.250705 0.133428
H12   H     H_    0.785012 0.412598 0.972315 0.150845
H13   H     H_    0.913849 0.637522 0.734605 0.124186
H14   H     H_    0.820493 0.607079 0.178928 0.332632
H15   H     H_    0.181432 0.376011 0.815246 0.336952
H16   H     H_    0.238242 0.245223 0.161790 0.120703
H17   H     H_    0.760013 0.787831 0.854409 0.118677
H18   H     H_    0.605081 0.159508 0.076943 0.173553
H19   H     H_    0.376731 0.821659 0.910962 0.155279
H20   H     H_    0.492351 0.880527 0.337513 0.169995
H21   H     H_    0.509718 0.119435 0.661250 0.188312
H22   H     H_    0.201092 0.448861 0.088576 0.122359
H23   H     H_    0.854745 0.610538 0.913075 0.121160
H24   H     H_    0.400838 0.244259 0.033241 0.127812
N1    N     N_1   0.500030 0.500030 0.268070 -0.166913
N2    N     N_1   0.499970 0.499970 0.731930 -0.167324
O1    O     O_R   0.499980 0.319630 0.578260 -0.479345
O2    O     O_R   0.350641 0.870201 0.117741 -0.738719
O3    O     O_2   0.789150 0.169589 0.950228 -0.522331
O4    O     O_R   0.667347 0.141196 0.809856 -0.704624
O5    O     O_2   0.235398 0.859446 0.404591 -0.516843
O6    O     O_R   0.046030 0.796503 0.444276 -0.684832
O7    O     O_2   0.815021 0.236701 0.562685 -0.522341
O8    O     O_R   0.880565 0.111209 0.689168 -0.659657
O9    O     O_2   0.806070 0.700954 0.345080 -0.489138
O10   O     O_R   0.870247 0.558234 0.230380 -0.701396
O11   O     O_2   0.188454 0.290316 0.645727 -0.505239
O12   O     O_R   0.500020 0.680370 0.421740 -0.489960
O13   O     O_R   0.132390 0.429256 0.766497 -0.698274
O14   O     O_R   0.500000 0.319650 0.421740 -0.499133
O15   O     O_R   0.500000 0.680350 0.578260 -0.502404
O16   O     O_R   0.319630 0.500000 0.578260 -0.469289
O17   O     O_R   0.680370 0.500000 0.421740 -0.465980
O18   O     O_R   0.319650 0.500020 0.421740 -0.516625
O19   O     O_R   0.680350 0.499980 0.578260 -0.505475
O20   O     O_2   0.191056 0.941110 0.209648 -0.482699

loop_
_geom_bond_atom_site_label_1
_geom_bond_atom_site_label_2
_ccdc_geom_bond_type
Cu1   O19   S    
C30   C32   A    
C23   C45   A    
C27   C29   A    
C6    H6    S    
C30   C45   S    
Cu2   O12   S    
C7    H18   S    
C46   O11   D    
C15   C19   A    
H10   O8    S    
C11   C19   A    
C17   C23   S    
C20   N1    T    
C29   C47   S    
C12   O12   A    
C35   C37   A    
C25   C40   S    
C40   O20   D    
C11   C14   A    
C33   C36   A    
Cu2   O17   S    
C14   C18   A    
C36   H1    S    
C16   C34   S    
H8    O4    S    
C21   N2    T    
C31   C33   A    
C3    C19   S    
C17   O17   A    
C9    H24   S    
C44   O9    D    
C39   C45   A    
C4    C18   S    
C48   C50   A    
C49   H17   S    
H15   O13   S    
C3    C50   A    
C16   O18   A    
Cu1   Cu2   S    
C43   O7    D    
C32   C35   A    
C31   H11   S    
C42   O6    S    
C4    C6    A    
C5    C7    A    
C11   H20   S    
C6    C8    A    
C46   O13   S    
Cu1   O16   S    
C34   C39   A    
C2    C4    A    
C38   C44   S    
C2    C49   A    
C41   O3    D    
C40   O2    S    
C48   H16   S    
C38   C47   A    
Cu1   O15   S    
C39   C46   S    
C1    C15   S    
C13   C18   A    
C20   C22   S    
C1    O14   A    
C13   C15   A    
C1    O1    A    
C22   C24   T    
C12   O15   A    
Cu2   O14   S    
Cu2   N1    S    
C37   H12   S    
C7    C9    A    
C8    H19   S    
C43   O8    S    
C16   O16   A    
C42   O5    D    
C35   H23   S    
C13   H21   S    
C3    C5    A    
H9    O6    S    
H7    O2    S    
C26   C37   A    
C25   C27   A    
C23   C38   A    
C28   C43   S    
C26   C28   A    
C50   H3    S    
C5    H5    S    
C28   C30   A    
C12   C14   S    
Cu1   N2    S    
C29   C31   A    
C2    H4    S    
H14   O10   S    
C27   C42   S    
C41   O4    S    
Cu2   O18   S    
C10   H2    S    
Cu1   O1    S    
C25   C36   A    
C33   H22   S    
C9    C48   A    
C8    C10   A    
C21   C24   S    
C34   C47   A    
C44   O10   S    
C10   C49   A    
C17   O19   A    
C26   C41   S    
C32   H13   S    
