data_mof_unit_66295.cif
_audit_creation_date              2012-10-26T21:17:12-0400
_audit_creation_method            fapswitch 2.2
_symmetry_space_group_name_H-M    P1
_symmetry_Int_Tables_number       1
_space_group_crystal_system       triclinic
_cell_length_a                    14.350221
_cell_length_b                    10.957487
_cell_length_c                    9.684421
_cell_angle_alpha                 89.531607
_cell_angle_beta                  89.996134
_cell_angle_gamma                 90.114657
_cell_volume                      1522.74727488

loop_
_atom_site_label
_atom_site_type_symbol
_atom_type_description
_atom_site_fract_x
_atom_site_fract_y
_atom_site_fract_z
_atom_type_partial_charge
C1    C     C_R   0.497403 0.265469 0.500626 0.541495
C2    C     C_R   0.500513 0.734803 0.499228 0.607279
C3    C     C_R   0.668956 0.500028 0.499959 0.553599
C4    C     C_1   0.228730 0.499998 0.500049 -0.034154
C5    C     C_1   0.143336 0.499996 0.500029 -0.034868
C6    C     C_1   0.042704 0.500003 0.499993 0.007650
C7    C     C_1   0.957310 0.500013 0.499963 0.010445
C8    C     C_1   0.856676 0.500024 0.499937 -0.025400
C9    C     C_1   0.771281 0.500029 0.499932 -0.018719
C10   C     C_2   0.480386 0.935674 0.389935 0.064211
C11   C     C_2   0.509779 0.866642 0.497760 0.391091
C12   C     C_2   0.493449 0.068488 0.388645 -0.123279
C13   C     C_2   0.487045 0.134279 0.503808 -0.086479
C14   C     C_2   0.448264 0.427103 0.922743 -0.008564
C15   C     C_2   0.450175 0.424822 0.078507 -0.009497
C16   C     C_R   0.331046 0.500012 0.500036 0.534834
Cu1   Cu    Cu3+1 0.500020 0.500020 0.638630 0.977086
Cu2   Cu    Cu3+1 0.499980 0.499980 0.361370 0.959417
F1    F     F_    0.556592 0.916345 0.605959 -0.657794
H1    H     H_    0.503558 0.113026 0.289076 0.140458
H2    H     H_    0.469691 0.092506 0.602445 0.175089
H3    H     H_    0.401582 0.363798 0.871864 0.137500
H4    H     H_    0.545311 0.556719 0.893434 0.215828
H5    H     H_    0.407083 0.357251 0.130535 0.135172
H6    H     H_    0.538064 0.565194 0.105422 0.214048
H7    H     H_    0.370713 0.921251 0.260227 0.228695
H8    H     H_    0.475862 0.902922 0.184852 0.240196
N1    N     N_2   0.499070 0.498660 0.846910 -0.335445
N2    N     N_2   0.499040 0.498630 0.153040 -0.333466
N3    N     N_3   0.436292 0.881192 0.272342 -0.628710
O1    O     O_R   0.500010 0.321960 0.617040 -0.488491
O2    O     O_R   0.499990 0.321920 0.382900 -0.497484
O3    O     O_R   0.376070 0.500020 0.617100 -0.483520
O4    O     O_R   0.376040 0.499980 0.382950 -0.474819
O5    O     O_R   0.500010 0.678080 0.617100 -0.462050
O6    O     O_R   0.499990 0.678040 0.382960 -0.484411
O7    O     O_R   0.623960 0.500020 0.617050 -0.470726
O8    O     O_R   0.623930 0.499980 0.382900 -0.476214

loop_
_geom_bond_atom_site_label_1
_geom_bond_atom_site_label_2
_ccdc_geom_bond_type
C2    O5    A    
C4    C16   S    
C15   N2    D    
C6    C7    T    
C3    C9    S    
C16   O3    A    
C10   N3    S    
C16   O4    A    
C12   H1    S    
Cu1   Cu2   S    
Cu2   O8    S    
C13   H2    S    
C7    C8    S    
Cu2   N2    S    
Cu1   O7    S    
H4    N1    S    
H8    N3    S    
Cu2   O4    S    
C11   F1    S    
C5    C6    S    
Cu1   O3    S    
C2    C11   S    
C10   C12   S    
C15   H5    S    
H7    N3    S    
H6    N2    S    
C14   H3    S    
Cu1   O1    S    
C1    C13   S    
C10   C11   D    
C1    O1    A    
Cu2   O2    S    
C12   C13   D    
C3    O7    A    
C2    O6    A    
C14   C15   S    
C8    C9    T    
Cu1   O5    S    
C14   N1    D    
Cu1   N1    S    
Cu2   O6    S    
C1    O2    A    
C3    O8    A    
C4    C5    T    
