data_mof_unit_50150.cif
_audit_creation_date              2013-03-05T16:44:39-0500
_audit_creation_method            fapswitch 2.2
_symmetry_space_group_name_H-M    P1
_symmetry_Int_Tables_number       1
_space_group_crystal_system       triclinic
_cell_length_a                    27.062824
_cell_length_b                    10.656784
_cell_length_c                    9.910527
_cell_angle_alpha                 90.69583
_cell_angle_beta                  88.763181
_cell_angle_gamma                 90.102006
_cell_volume                      2857.34251267

loop_
_atom_site_label
_atom_site_type_symbol
_atom_site_description
_atom_site_fract_x
_atom_site_fract_y
_atom_site_fract_z
_atom_type_partial_charge
O1    O     O_R   0.500010 0.316790 0.614690 -0.611255
O2    O     O_R   0.500000 0.316760 0.385350 -0.635127
C1    C     C_R   0.503422 0.260232 0.498824 0.878265
O3    O     O_R   0.428760 0.500040 0.614660 -0.595689
O4    O     O_R   0.428750 0.500000 0.385310 -0.643691
C2    C     C_R   0.405808 0.503018 0.501328 0.875847
Zn1   Zn    Zn3+2 0.500000 0.500020 0.653130 0.947851
Zn2   Zn    Zn3+2 0.500000 0.499980 0.346870 0.927307
O5    O     O_R   0.500000 0.683240 0.614650 -0.607171
O6    O     O_R   0.499990 0.683210 0.385310 -0.621790
O7    O     O_R   0.571250 0.500000 0.614690 -0.626208
O8    O     O_R   0.571240 0.499960 0.385340 -0.604941
C3    C     C_R   0.501515 0.739786 0.500752 0.894345
C4    C     C_R   0.594263 0.501032 0.498817 0.841847
C5    C     C_R   0.183758 0.647658 0.370380 0.491384
O9    O     O_2   0.209908 0.608008 0.260463 -0.582896
N1    N     N_R   0.206518 0.662889 0.491381 -0.354845
C6    C     C_R   0.181059 0.701619 0.604998 0.505719
C7    C     C_R   0.295018 0.702443 0.443094 0.222247
C8    C     C_R   0.343424 0.656137 0.442996 -0.212297
C9    C     C_R   0.316943 0.471114 0.566907 -0.036304
C10   C     C_R   0.268406 0.514024 0.563593 -0.154269
C11   C     C_R   0.257268 0.627715 0.501082 0.235952
C12   C     C_R   0.105473 0.700463 0.478660 -0.056005
C13   C     C_R   0.133066 0.669488 0.361047 -0.014118
C14   C     C_R   0.109325 0.659990 0.237549 -0.134537
C15   C     C_R   0.129881 0.720504 0.601015 -0.021536
C16   C     C_R   0.354335 0.541565 0.503638 -0.142690
H1    H     H_    0.238775 0.458457 0.607858 0.154059
H2    H     H_    0.130091 0.645879 0.143912 0.192943
C17   C     C_R   0.646723 0.530372 0.496264 -0.102550
C18   C     C_R   0.977418 0.653592 0.356865 -0.008425
C19   C     C_R   0.973588 0.748159 0.585729 0.043746
C20   C     C_R   0.949520 0.696341 0.472140 0.062139
C21   C     C_R   0.952494 0.583965 0.254814 -0.022517
C22   C     C_R   0.901386 0.571873 0.260609 -0.173688
C23   C     C_R   0.873738 0.619980 0.369677 -0.035673
C24   C     C_R   0.897383 0.682541 0.476421 -0.059741
C25   C     C_R   0.869010 0.727676 0.588889 -0.062560
C26   C     C_R   0.817542 0.703864 0.591840 0.494823
N2    N     N_R   0.796259 0.639875 0.488059 -0.352775
C27   C     C_R   0.822828 0.599482 0.377738 0.510269
C28   C     C_R   0.731094 0.496691 0.559754 -0.126097
C29   C     C_R   0.682056 0.455157 0.559426 0.123800
C30   C     C_R   0.660579 0.643691 0.435665 -0.205698
C31   C     C_R   0.709768 0.684588 0.434914 0.204189
C32   C     C_R   0.744954 0.608625 0.496796 0.217919
O10   O     O_2   0.799880 0.537697 0.277016 -0.554190
C33   C     C_R   0.029243 0.675304 0.353395 0.039979
C34   C     C_R   0.053335 0.707087 0.474510 0.076817
C35   C     C_R   0.025779 0.742141 0.591839 0.055998
C36   C     C_R   0.058157 0.666855 0.233427 -0.204998
H3    H     H_    0.759200 0.440772 0.606688 0.152112
H4    H     H_    0.883319 0.518485 0.181737 0.198128
H5    H     H_    0.041833 0.666717 0.135051 0.155708
O11   O     O_2   0.205103 0.719353 0.721610 -0.553202
C37   C     C_R   0.102525 0.754252 0.717009 -0.137709
H6    H     H_    0.373487 0.709075 0.397688 0.165077
H7    H     H_    0.120404 0.769606 0.812599 0.186830
C38   C     C_R   0.944669 0.801484 0.691378 -0.256046
C39   C     C_R   0.893328 0.792342 0.694016 0.005900
O12   O     O_2   0.788833 0.741871 0.697421 -0.553077
C40   C     C_R   0.051393 0.765378 0.712681 -0.213137
H8    H     H_    0.961433 0.853173 0.772948 0.143455
H9    H     H_    0.632189 0.699767 0.390465 0.163718
H10   H     H_    0.032684 0.785989 0.807527 0.143582
C41   C     C_R   0.506773 0.065963 0.620101 0.076529
C42   C     C_R   0.513586 0.128719 0.498419 -0.130107
C43   C     C_R   0.531297 0.060477 0.382602 0.156518
C44   C     C_R   0.528762 0.929874 0.386684 -0.275364
H11   H     H_    0.539108 0.874822 0.297824 0.168691
C45   C     C_R   0.510417 0.870693 0.502794 -0.143772
C46   C     C_R   0.505029 0.938777 0.622400 0.086838
C47   C     C_3   0.467780 0.936875 0.736688 -0.204510
C48   C     C_3   0.469213 0.079699 0.732684 -0.505129
H12   H     H_    0.482829 0.897310 0.830568 0.155134
H13   H     H_    0.434520 0.124838 0.699476 0.212084
H14   H     H_    0.485351 0.122577 0.824645 0.197175
C49   C     C_R   0.456224 0.507121 0.072520 0.065106
N3    N     N_R   0.499670 0.499140 0.142800 -0.135562
C50   C     C_R   0.543206 0.500821 0.066324 0.011043
C51   C     C_R   0.542798 0.500995 0.923927 -0.163684
H15   H     H_    0.577288 0.499711 0.866601 0.162958
N4    N     N_R   0.499670 0.499180 0.857150 -0.105378
C52   C     C_R   0.456970 0.508912 0.930354 0.133702
C53   C     C_3   0.414344 0.424538 0.914643 -0.458549
C54   C     C_3   0.411918 0.416875 0.068940 0.242555
H16   H     H_    0.383692 0.476183 0.867570 0.205617
H17   H     H_    0.424897 0.336039 0.860940 0.202059
C55   C     C_1   0.327327 0.353189 0.630638 0.138295
N5    N     N_1   0.335682 0.258683 0.681677 -0.224091
C56   C     C_3   0.282312 0.829992 0.385131 -0.375957
C57   C     C_3   0.326140 0.909291 0.335548 -0.881457
H18   H     H_    0.352166 0.927662 0.418599 0.272421
H19   H     H_    0.345685 0.861755 0.249533 0.257170
H20   H     H_    0.312428 0.001015 0.299932 0.257056
H21   H     H_    0.257271 0.816721 0.298983 0.238919
H22   H     H_    0.262045 0.885341 0.464301 0.218159
C58   C     C_1   0.867505 0.850008 0.808042 0.275006
N6    N     N_1   0.847057 0.896330 0.899509 -0.169130
C59   C     C_3   0.726340 0.806883 0.370107 -0.368606
C60   C     C_3   0.685243 0.887880 0.313658 -0.895291
H23   H     H_    0.666412 0.837701 0.230345 0.271022
H24   H     H_    0.658055 0.913690 0.394857 0.259137
H25   H     H_    0.701552 0.975524 0.272548 0.262197
H26   H     H_    0.745872 0.864326 0.446723 0.218212
H27   H     H_    0.753115 0.785175 0.286559 0.234706
C61   C     C_3   0.552017 0.119331 0.254483 -0.394304
C62   C     C_3   0.600822 0.186204 0.279766 -0.810295
H28   H     H_    0.596226 0.261682 0.356689 0.266587
H29   H     H_    0.628346 0.118103 0.315431 0.248894
H30   H     H_    0.615060 0.227768 0.184416 0.251340
H31   H     H_    0.559396 0.046394 0.175428 0.191571
H32   H     H_    0.525224 0.183449 0.209141 0.219673
C63   C     C_1   0.419399 0.884442 0.700622 0.220827
N7    N     N_1   0.381280 0.843215 0.673329 -0.197543
C64   C     C_1   0.591480 0.498421 0.123411 0.207077
N8    N     N_1   0.631254 0.496300 0.164051 -0.188102
C65   C     C_3   0.363823 0.477175 0.129829 -0.338826
C66   C     C_3   0.315072 0.422289 0.078384 -0.775755
H33   H     H_    0.317266 0.392912 0.970854 0.259788
H34   H     H_    0.303211 0.340975 0.139730 0.250196
H35   H     H_    0.285569 0.494161 0.089771 0.284037
H36   H     H_    0.362674 0.466499 0.240020 0.226948
H37   H     H_    0.364028 0.579570 0.108967 0.190933
C67   C     C_3   0.425128 0.285364 0.123217 -0.326955
C68   C     C_3   0.388584 0.180931 0.087757 -0.865596
H38   H     H_    0.356335 0.182962 0.158442 0.258759
H39   H     H_    0.376004 0.188079 0.982329 0.278286
H40   H     H_    0.406807 0.088442 0.099031 0.243366
H41   H     H_    0.461867 0.257393 0.080698 0.173696
H42   H     H_    0.427896 0.290338 0.234481 0.232315
C69   C     C_3   0.669186 0.330666 0.624146 -0.424032
C70   C     C_3   0.696005 0.221607 0.552877 -0.840685
H43   H     H_    0.690806 0.225600 0.442260 0.267990
H44   H     H_    0.736164 0.224787 0.573241 0.263709
H45   H     H_    0.681027 0.131121 0.590451 0.256548
H46   H     H_    0.679604 0.333897 0.731984 0.219837
H47   H     H_    0.628999 0.310577 0.621797 0.207910
C71   C     C_1   0.977411 0.506169 0.153948 0.155784
N9    N     N_1   0.997042 0.443313 0.073250 -0.190205

loop_
_geom_bond_atom_site_label_1
_geom_bond_atom_site_label_2
_geom_bond_distance
_ccdc_geom_bond_type
C59   H27   1.110953 S    
C67   C68   1.530282 S    
C10   H1    1.084239 S    
N2    C27   1.361412 A    
C21   C22   1.388922 A    
C12   C15   1.407166 A    
C4    C17   1.452926 S    
C70   H45   1.110698 S    
C49   C54   1.536472 S    
C50   C51   1.411544 A    
C56   H22   1.111622 S    
C52   C53   1.471084 S    
Zn1   O7    1.957416 S    
C59   C60   1.528727 S    
C47   H12   1.111656 S    
C22   C23   1.394298 A    
C1    C42   1.428667 S    
C43   C44   1.394410 A    
C62   H29   1.107250 S    
C24   C25   1.419401 A    
O7    C4    1.294667 A    
C53   H16   1.110513 S    
C5    C13   1.397072 A    
C63   N7    1.156690 T    
C50   C64   1.435213 S    
C59   H26   1.111558 S    
C26   O12   1.348446 S    
C61   C62   1.523734 S    
C60   H25   1.110480 S    
N1    C6    1.367175 A    
C46   C47   1.500244 S    
C61   H32   1.103571 S    
C23   C27   1.395325 A    
O5    C3    1.285852 A    
C7    C56   1.524779 S    
C28   H3    1.083348 S    
C2    C16   1.452642 S    
C7    C8    1.400682 A    
C42   C43   1.425942 A    
C44   H11   1.084209 S    
C41   C46   1.356590 A    
C66   H35   1.110432 S    
C6    O11   1.349610 S    
Zn1   N4    2.021901 S    
C40   H10   1.078426 S    
C69   H46   1.111274 S    
C57   H19   1.110878 S    
C22   H4    1.085561 S    
O1    Zn1   1.984913 S    
C9    C10   1.392838 A    
C39   C58   1.446931 S    
O3    Zn1   1.973349 S    
C43   C61   1.519001 S    
C66   H34   1.107681 S    
C56   H21   1.109008 S    
C37   C40   1.390668 A    
C9    C55   1.444076 S    
C12   C34   1.414415 A    
C25   C39   1.415638 A    
C31   C59   1.522486 S    
C17   C29   1.410479 A    
C41   C42   1.394658 A    
C18   C21   1.427538 A    
C35   C40   1.415680 A    
C12   C13   1.406837 A    
O3    C2    1.295920 A    
C47   C48   1.523445 S    
C62   H30   1.109709 S    
C25   C26   1.415086 A    
C53   C54   1.532322 S    
N3    C50   1.387315 A    
C70   H44   1.110051 S    
C8    C16   1.402109 A    
C13   C14   1.397061 A    
C65   H36   1.099102 S    
O6    C3    1.288161 A    
C38   C39   1.392381 A    
O1    C1    1.291970 A    
C18   C20   1.426214 A    
C61   H31   1.112143 S    
C27   O10   1.350916 S    
C7    C11   1.411045 A    
C28   C29   1.398265 A    
C68   H39   1.109423 S    
C54   C65   1.559113 S    
C23   C24   1.408442 A    
C14   C36   1.388314 A    
C21   C71   1.447085 S    
C58   N6    1.157626 T    
C67   H42   1.107460 S    
Zn2   O8    1.973349 S    
C33   C36   1.411204 A    
C34   C35   1.414490 A    
N2    C32   1.428312 S    
C57   H18   1.110185 S    
N1    C11   1.429868 S    
N4    C52   1.354585 A    
C60   H24   1.111037 S    
C19   C38   1.408365 A    
C48   H13   1.113569 S    
C69   H47   1.108755 S    
C65   H37   1.113069 S    
C26   N2    1.364465 A    
C9    C16   1.400776 A    
O8    C4    1.297317 A    
C14   H2    1.083521 S    
C57   H20   1.110453 S    
C51   N4    1.354084 A    
C15   C37   1.397537 A    
C69   C70   1.528832 S    
C41   C48   1.499052 S    
C8    H6    1.081931 S    
C68   H38   1.107335 S    
C49   C52   1.409008 A    
C66   H33   1.107452 S    
C29   C69   1.517287 S    
Zn1   O5    1.993969 S    
C31   C32   1.406487 A    
C20   C24   1.418126 A    
O2    Zn2   1.993970 S    
C6    C15   1.401386 A    
C45   C46   1.387364 A    
C53   H17   1.111981 S    
O4    Zn2   1.957418 S    
C65   C66   1.536800 S    
C36   H5    1.079006 S    
C5    N1    1.367694 A    
C70   H43   1.109610 S    
C3    C45   1.415246 S    
C19   C35   1.416632 A    
C38   H8    1.080222 S    
O2    C1    1.287365 A    
C68   H40   1.110834 S    
C64   N8    1.157769 T    
C30   H9    1.082159 S    
C55   N5    1.157333 T    
O4    C2    1.294954 A    
C67   H41   1.111267 S    
C71   N9    1.157791 T    
C47   C63   1.472100 S    
C56   C57   1.530965 S    
C19   C20   1.418349 A    
C60   H23   1.110807 S    
C48   H14   1.111990 S    
C18   C33   1.420819 A    
C37   H7    1.083558 S    
C49   N3    1.382743 A    
C30   C31   1.399893 A    
Zn2   O6    1.984912 S    
C33   C34   1.415522 A    
C17   C30   1.402104 A    
Zn2   N3    2.022565 S    
C10   C11   1.403628 A    
C44   C45   1.400076 A    
C51   H15   1.082214 S    
C62   H28   1.106791 S    
C28   C32   1.399751 A    
C54   C67   1.552322 S    
C5    O9    1.350056 S    
