data_mof_unit_64145.cif
_audit_creation_date              2012-12-10T18:29:41-0500
_audit_creation_method            fapswitch 2.2
_symmetry_space_group_name_H-M    P1
_symmetry_Int_Tables_number       1
_space_group_crystal_system       triclinic
_cell_length_a                    19.372793
_cell_length_b                    18.028551
_cell_length_c                    23.532033
_cell_angle_alpha                 90.041288
_cell_angle_beta                  90.195282
_cell_angle_gamma                 90.00016
_cell_volume                      8218.82766774

loop_
_atom_site_label
_atom_site_type_symbol
_atom_type_description
_atom_site_fract_x
_atom_site_fract_y
_atom_site_fract_z
_atom_type_partial_charge
C1    C     C_R   0.367183 0.500000 0.499939 0.798743
C2    C     C_R   0.632817 0.500000 0.500061 0.798742
C3    C     C_R   0.499486 0.432330 0.238741 0.684638
C4    C     C_R   0.500508 0.567669 0.761259 0.684638
C5    C     C_R   0.499543 0.432477 0.298012 -0.288387
C6    C     C_R   0.500451 0.567523 0.701988 -0.288388
C7    C     C_R   0.499706 0.499851 0.328123 -0.131463
C8    C     C_R   0.500294 0.500148 0.671877 -0.131463
C9    C     C_R   0.499642 0.567067 0.297902 -0.209150
C10   C     C_R   0.500363 0.432933 0.702098 -0.209152
C11   C     C_R   0.499580 0.566837 0.238656 -0.191785
C12   C     C_R   0.500426 0.433163 0.761344 -0.191782
C13   C     C_R   0.499615 0.499573 0.208879 0.236776
C14   C     C_R   0.500385 0.500427 0.791121 0.236771
C15   C     C_R   0.254726 0.567206 0.499785 -0.174244
C16   C     C_R   0.745274 0.432794 0.500215 -0.174244
C17   C     C_R   0.745274 0.567206 0.500222 -0.175958
C18   C     C_R   0.254726 0.432794 0.499777 -0.175957
C19   C     C_R   0.182805 0.567214 0.499771 -0.142564
C20   C     C_R   0.817195 0.432786 0.500228 -0.142564
C21   C     C_R   0.817195 0.567214 0.500236 -0.143151
C22   C     C_R   0.182805 0.432786 0.499764 -0.143151
C23   C     C_R   0.146110 0.500000 0.499792 0.051849
C24   C     C_R   0.853890 0.500000 0.500208 0.051849
C25   C     C_R   0.291295 0.500000 0.499833 -0.036734
C26   C     C_R   0.708705 0.500000 0.500167 -0.036734
C27   C     C_R   0.499877 0.499969 0.390692 0.847022
C28   C     C_R   0.500123 0.500031 0.609308 0.847022
C29   C     C_R   0.929978 0.500000 0.500120 0.417247
C30   C     C_R   0.070022 0.500000 0.499880 0.417247
C31   C     C_R   0.543180 0.278510 0.535552 0.084620
C32   C     C_R   0.456820 0.721490 0.464448 0.084619
C33   C     C_R   0.456825 0.278446 0.464442 0.089762
C34   C     C_R   0.543175 0.721554 0.535557 0.089761
C35   C     C_R   0.543994 0.200421 0.536221 -0.261664
C36   C     C_R   0.456006 0.799579 0.463779 -0.261663
C37   C     C_R   0.456011 0.200354 0.463771 -0.255904
C38   C     C_R   0.543989 0.799646 0.536229 -0.255904
C39   C     C_R   0.500002 0.159742 0.499996 0.055388
C40   C     C_R   0.499998 0.840258 0.500004 0.055388
C41   C     C_R   0.499999 0.923854 0.500002 0.432763
C42   C     C_R   0.500001 0.076146 0.499998 0.432763
C43   C     C_R   0.558617 0.478894 0.880678 0.564057
C44   C     C_R   0.441382 0.521106 0.119322 0.564062
C45   C     C_R   0.441738 0.521381 0.880291 0.608633
C46   C     C_R   0.558261 0.478617 0.119709 0.608629
C47   C     C_R   0.440460 0.521860 0.939895 -0.031486
C48   C     C_R   0.559540 0.478139 0.060105 -0.031485
C49   C     C_R   0.500044 0.500033 0.970011 -0.012227
C50   C     C_R   0.499955 0.499967 0.029989 -0.012226
C51   C     C_R   0.559711 0.478253 0.940292 -0.021850
C52   C     C_R   0.440288 0.521747 0.059708 -0.021851
C53   C     C_R   0.381223 0.543435 0.969957 -0.145407
C54   C     C_R   0.618776 0.456565 0.030043 -0.145408
C55   C     C_R   0.381142 0.543390 0.029247 -0.146620
C56   C     C_R   0.618857 0.456610 0.970753 -0.146620
Cu1   Cu    Cu3+1 0.500000 0.573360 0.500000 0.949947
Cu2   Cu    Cu3+1 0.500000 0.426640 0.500000 0.949948
H1    H     H_    0.334760 0.560434 0.947800 0.192919
H2    H     H_    0.665239 0.439565 0.052201 0.192919
H3    H     H_    0.578930 0.172240 0.564988 0.160444
H4    H     H_    0.421070 0.827760 0.435012 0.160444
H5    H     H_    0.421077 0.172120 0.435002 0.162481
H6    H     H_    0.578923 0.827879 0.564998 0.162481
H7    H     H_    0.334615 0.560345 0.051091 0.192164
H8    H     H_    0.665385 0.439654 0.948909 0.192164
H9    H     H_    0.499389 0.379896 0.320247 0.186409
H10   H     H_    0.500599 0.620104 0.679753 0.186411
H11   H     H_    0.499695 0.619799 0.319978 0.175129
H12   H     H_    0.500316 0.380201 0.680022 0.175128
H13   H     H_    0.499721 0.618935 0.215784 0.171429
H14   H     H_    0.500289 0.381065 0.784215 0.171432
H15   H     H_    0.281626 0.619874 0.499777 0.155347
H16   H     H_    0.718374 0.380126 0.500223 0.155347
H17   H     H_    0.718375 0.619875 0.500237 0.154513
H18   H     H_    0.281625 0.380125 0.499763 0.154513
H19   H     H_    0.156071 0.619954 0.499768 0.158960
H20   H     H_    0.843929 0.380045 0.500232 0.158960
H21   H     H_    0.843930 0.619955 0.500246 0.158723
H22   H     H_    0.156070 0.380045 0.499754 0.158723
H23   H     H_    0.577307 0.308863 0.563651 0.121498
H24   H     H_    0.422693 0.691137 0.436349 0.121499
H25   H     H_    0.422702 0.308748 0.436342 0.123365
H26   H     H_    0.577298 0.691252 0.563658 0.123366
N1    N     N_R   0.500258 0.500286 0.852056 -0.450359
N2    N     N_R   0.499742 0.499714 0.147944 -0.450358
N3    N     N_R   0.034321 0.435231 0.499939 -0.232317
N4    N     N_R   0.965678 0.564769 0.500061 -0.232317
N5    N     N_R   0.965678 0.435231 0.500053 -0.232166
N6    N     N_R   0.034322 0.564769 0.499947 -0.232166
N7    N     N_R   0.500000 0.316380 0.500000 -0.171175
N8    N     N_R   0.500000 0.683620 0.500000 -0.171175
N9    N     N_R   0.457384 0.037059 0.464905 -0.229447
N10   N     N_R   0.542616 0.962941 0.535095 -0.229447
N11   N     N_R   0.542617 0.037127 0.535092 -0.230527
N12   N     N_R   0.457383 0.962873 0.464907 -0.230527
O1    O     O_R   0.400150 0.561970 0.500010 -0.586863
O2    O     O_R   0.599850 0.438030 0.499990 -0.586862
O3    O     O_R   0.599850 0.561970 0.499990 -0.588472
O4    O     O_R   0.400150 0.438030 0.500010 -0.588473
O5    O     O_R   0.499980 0.561970 0.417880 -0.587341
O6    O     O_R   0.500020 0.438030 0.582120 -0.587341
O7    O     O_R   0.500020 0.561970 0.582120 -0.585120
O8    O     O_R   0.499980 0.438030 0.417880 -0.585120
O9    O     O_2   0.615477 0.458799 0.851493 -0.526725
O10   O     O_2   0.384523 0.541202 0.148507 -0.526724
O11   O     O_2   0.384912 0.541379 0.850726 -0.510305
O12   O     O_2   0.615087 0.458619 0.149275 -0.510309
F1    F     F_    0.498831 0.366839 0.210295 -0.635416
F2    F     F_    0.501157 0.633161 0.789705 -0.635414

loop_
_geom_bond_atom_site_label_1
_geom_bond_atom_site_label_2
_ccdc_geom_bond_type
Cu1   N8    S    
C42   N9    A    
C35   C39   A    
Cu2   O2    S    
C5    H9    S    
C29   N5    A    
C53   H1    S    
C47   C49   A    
C54   H2    S    
C48   C54   A    
C16   H16   S    
C17   C26   A    
C32   C36   A    
C9    H11   S    
C33   N7    A    
C11   H13   S    
C15   C25   A    
C41   N12   A    
Cu1   O3    S    
C27   O8    A    
C7    C27   S    
C51   C56   A    
C43   O9    S    
C45   C47   A    
C19   H19   S    
C24   C29   S    
C29   N4    A    
C37   H5    S    
C15   C19   A    
C20   C24   A    
C49   C51   A    
C46   O12   S    
C13   N2    S    
C50   C52   A    
Cu2   O6    S    
Cu2   N7    S    
C3    C13   A    
C52   C55   A    
C30   N6    A    
C47   C53   A    
C44   C52   A    
C48   C50   A    
C12   H14   S    
C34   C38   A    
C1    C25   S    
C18   C25   A    
C34   H26   S    
C44   N2    A    
C1    O4    A    
C55   H7    S    
C39   C42   S    
C38   H6    S    
C53   C55   A    
C16   C26   A    
Cu1   O7    S    
C46   C48   A    
C42   N11   A    
C43   N1    A    
C23   C30   S    
C36   C40   A    
Cu2   O4    S    
C4    C6    A    
C1    O1    A    
C5    C7    A    
C6    C8    A    
C27   O5    A    
C33   C37   A    
C36   H4    S    
C19   C23   A    
C33   H25   S    
C41   N10   A    
C16   C20   A    
Cu1   O1    S    
C21   H21   S    
C35   H3    S    
C9    C11   A    
C10   C12   A    
C10   H12   S    
C40   C41   S    
C15   H15   S    
C12   C14   A    
C2    O3    A    
N9    N12   A    
C31   N7    A    
N3    N5    A    
C8    C28   S    
C31   C35   A    
Cu2   O8    S    
C32   H24   S    
C7    C9    A    
C4    F2    S    
C18   H18   S    
C18   C22   A    
C14   N1    S    
N4    N6    A    
C3    C5    A    
C2    C26   S    
C54   C56   A    
C44   O10   S    
Cu1   O5    S    
C31   H23   S    
C20   H20   S    
C45   N1    A    
C22   H22   S    
C37   C39   A    
C38   C40   A    
C11   C13   A    
C28   O7    A    
C43   C51   A    
Cu1   Cu2   S    
C32   N8    A    
C3    F1    S    
C56   H8    S    
C6    H10   S    
C4    C14   A    
N10   N11   A    
C34   N8    A    
C28   O6    A    
C2    O2    A    
C8    C10   A    
C49   C50   A    
C21   C24   A    
C17   H17   S    
C22   C23   A    
C30   N3    A    
C45   O11   S    
C46   N2    A    
C17   C21   A    
