data_mof_unit_39820.cif
_audit_creation_date              2012-12-10T20:28:48-0500
_audit_creation_method            fapswitch 2.2
_symmetry_space_group_name_H-M    P1
_symmetry_Int_Tables_number       1
_space_group_crystal_system       triclinic
_cell_length_a                    10.703606
_cell_length_b                    10.746644
_cell_length_c                    9.897053
_cell_angle_alpha                 89.621345
_cell_angle_beta                  89.88385
_cell_angle_gamma                 95.088399
_cell_volume                      1133.92146568

loop_
_atom_site_label
_atom_site_type_symbol
_atom_type_description
_atom_site_fract_x
_atom_site_fract_y
_atom_site_fract_z
_atom_type_partial_charge
C1    C     C_R   0.495598 0.259261 0.500033 0.902231
C2    C     C_R   0.069130 0.585635 0.615406 0.086910
C3    C     C_R   0.131758 0.539884 0.501318 -0.181355
C4    C     C_R   0.071126 0.531298 0.376663 -0.254111
C5    C     C_R   0.943353 0.528391 0.369648 0.211299
C6    C     C_R   0.875652 0.547815 0.489383 -0.195143
C7    C     C_R   0.483569 0.057759 0.618361 0.120140
C8    C     C_R   0.484033 0.125165 0.498063 -0.169358
C9    C     C_R   0.466479 0.062253 0.374595 -0.262389
C10   C     C_R   0.447054 0.931890 0.371647 0.223802
C11   C     C_R   0.463126 0.866710 0.494317 -0.207435
C12   C     C_R   0.261010 0.510852 0.500953 0.873927
C13   C     C_R   0.471453 0.929555 0.615439 0.139552
C14   C     C_3   0.376417 0.918349 0.725784 -0.463437
C15   C     C_3   0.391664 0.058574 0.731973 -0.492953
C16   C     C_R   0.469011 0.392597 0.070988 0.122070
C17   C     C_R   0.546464 0.601374 0.073723 -0.284892
C18   C     C_R   0.550347 0.603532 0.927703 0.507859
C19   C     C_R   0.460372 0.395794 0.929853 0.033127
C20   C     C_3   0.332776 0.328010 0.931751 -0.536757
C21   C     C_3   0.355113 0.301575 0.080138 0.328844
C22   C     C_R   0.486100 0.737512 0.498583 0.835005
C23   C     C_R   0.741288 0.511055 0.498013 0.843699
C24   C     C_R   0.129158 0.624662 0.737987 -0.184872
C25   C     C_R   0.065189 0.685549 0.836422 -0.243125
C26   C     C_R   0.947054 0.722201 0.808781 -0.144844
C27   C     C_R   0.887832 0.689711 0.686546 0.314951
C28   C     C_R   0.940939 0.603468 0.600577 -0.010913
H1    H     H_    0.120946 0.514293 0.284103 0.233850
H2    H     H_    0.410424 0.871987 0.817215 0.226673
H3    H     H_    0.304881 0.101842 0.702964 0.201510
H4    H     H_    0.438527 0.092133 0.826632 0.197373
H5    H     H_    0.580235 0.679561 0.134999 0.161253
H6    H     H_    0.258339 0.392354 0.914224 0.223538
H7    H     H_    0.322378 0.243805 0.870051 0.168796
H8    H     H_    0.386511 0.206549 0.096840 0.022948
H9    H     H_    0.226198 0.617160 0.760370 0.187065
H10   H     H_    0.112384 0.715502 0.928895 0.153944
H11   H     H_    0.907012 0.784852 0.877812 0.145931
H12   H     H_    0.463571 0.115362 0.282329 0.175252
H13   H     H_    0.282085 0.880394 0.690480 0.200976
N1    N     N_R   0.499160 0.499140 0.142800 -0.099378
N2    N     N_R   0.499160 0.499180 0.857150 -0.129139
O1    O     O_R   0.500020 0.316790 0.614690 -0.603473
O2    O     O_R   0.500000 0.316760 0.385350 -0.618394
O3    O     O_R   0.316770 0.500020 0.614690 -0.643447
O4    O     O_R   0.316760 0.499980 0.385350 -0.571192
O5    O     O_R   0.500000 0.683240 0.614650 -0.565632
O6    O     O_R   0.499980 0.683210 0.385310 -0.636328
O7    O     O_R   0.683240 0.500020 0.614650 -0.597128
O8    O     O_R   0.683230 0.499980 0.385310 -0.615175
Zn1   Zn    Zn3+2 0.500010 0.500020 0.653130 0.982644
Zn2   Zn    Zn3+2 0.499990 0.499980 0.346870 0.965988
O9    O     O_3   0.604025 0.707821 0.854567 -0.579153
C29   C     C_3   0.640936 0.812464 0.937892 0.056740
H14   H     H_    0.718030 0.790451 0.006743 0.130300
H15   H     H_    0.559577 0.838175 0.997650 0.157545
C30   C     C_3   0.687872 0.928876 0.857105 -0.806550
H16   H     H_    0.667081 0.917219 0.749334 0.301624
H17   H     H_    0.642613 0.011419 0.893876 0.202696
H18   H     H_    0.790503 0.950141 0.868741 0.219052
O10   O     O_3   0.256721 0.333933 0.165040 -0.559803
C31   C     C_3   0.183918 0.221321 0.200126 0.111775
H19   H     H_    0.236356 0.166808 0.273304 0.144838
H20   H     H_    0.159690 0.163430 0.109003 0.130048
C32   C     C_3   0.061149 0.246486 0.266365 -0.860159
H21   H     H_    0.010503 0.308668 0.200504 0.269939
H22   H     H_    0.001804 0.157146 0.280183 0.206938
H23   H     H_    0.079028 0.287728 0.367519 0.254318
N3    N     N_2   0.800706 0.770384 0.634629 -0.272162
H24   H     H_    0.731334 0.729473 0.574546 0.247771
C33   C     C_3   0.859668 0.882098 0.570241 -0.869664
H25   H     H_    0.915174 0.857020 0.480926 0.246327
H26   H     H_    0.921984 0.936341 0.642491 0.256681
H27   H     H_    0.786580 0.942200 0.535659 0.241615
N4    N     N_2   0.887835 0.503292 0.241018 -0.299704
H28   H     H_    0.822279 0.427520 0.233298 0.247411
C34   C     C_3   0.864935 0.612548 0.162183 -0.754835
H29   H     H_    0.797048 0.667773 0.214989 0.238820
H30   H     H_    0.826434 0.583397 0.062073 0.235969
H31   H     H_    0.954029 0.672044 0.145849 0.232651
N5    N     N_2   0.406375 0.865778 0.251437 -0.278473
H32   H     H_    0.345523 0.787638 0.270200 0.250604
C35   C     C_3   0.367853 0.933723 0.134190 -0.896614
H33   H     H_    0.286510 0.985975 0.159741 0.232626
H34   H     H_    0.338167 0.866608 0.053135 0.240096
H35   H     H_    0.447048 0.997170 0.094464 0.240446

loop_
_geom_bond_atom_site_label_1
_geom_bond_atom_site_label_2
_ccdc_geom_bond_type
C32   H22   S    
C29   H14   S    
C31   H20   S    
C16   C21   S    
C1    C8    S    
C22   O5    A    
C19   C20   S    
C35   H35   S    
C7    C8    A    
C21   H8    S    
C26   C27   A    
C35   H34   S    
C33   H27   S    
N1    Zn2   S    
C5    C6    A    
C34   H30   S    
N2    Zn1   S    
C32   H23   S    
C30   H17   S    
O3    Zn1   S    
C17   N1    A    
C3    C12   S    
C20   H7    S    
C35   H33   S    
C6    C28   A    
C8    C9    A    
O7    Zn1   S    
N3    H24   S    
C9    C10   A    
C4    H1    S    
O4    Zn2   S    
C20   H6    S    
O1    Zn1   S    
C30   H18   S    
C7    C15   S    
C32   H21   S    
C31   C32   S    
O2    Zn2   S    
C13   C14   S    
C17   H5    S    
C14   H2    S    
C12   O4    A    
C19   N2    A    
C24   H9    S    
C15   H4    S    
C24   C25   A    
C12   O3    A    
C34   H29   S    
C4    C5    A    
C23   O7    A    
C25   C26   A    
C10   N5    S    
C9    H12   S    
O8    Zn2   S    
O10   C31   S    
C25   H10   S    
C1    O1    A    
C23   O8    A    
C7    C13   A    
C17   C18   A    
N4    H28   S    
C21   O10   S    
C27   N3    S    
C14   H13   S    
C33   H26   S    
N5    C35   S    
C29   H15   S    
C2    C24   A    
C3    C4    A    
C16   N1    A    
C22   O6    A    
O9    C29   S    
N4    C34   S    
C33   H25   S    
N3    C33   S    
C15   H3    S    
C11   C22   S    
C5    N4    S    
C2    C3    A    
C30   H16   S    
C18   N2    A    
C11   C13   A    
C34   H31   S    
C1    O2    A    
C16   C19   A    
O6    Zn2   S    
C6    C23   S    
C26   H11   S    
C10   C11   A    
C18   O9    S    
C31   H19   S    
O5    Zn1   S    
C20   C21   S    
N5    H32   S    
C29   C30   S    
C27   C28   A    
C14   C15   S    
C2    C28   A    
