data_mof_unit_48307.cif
_audit_creation_date              2012-12-10T17:21:12-0500
_audit_creation_method            fapswitch 2.2
_symmetry_space_group_name_H-M    P1
_symmetry_Int_Tables_number       1
_space_group_crystal_system       triclinic
_cell_length_a                    10.189752
_cell_length_b                    10.709789
_cell_length_c                    10.899937
_cell_angle_alpha                 90.822176
_cell_angle_beta                  94.796927
_cell_angle_gamma                 82.846209
_cell_volume                      1176.10802329

loop_
_atom_site_label
_atom_site_type_symbol
_atom_type_description
_atom_site_fract_x
_atom_site_fract_y
_atom_site_fract_z
_atom_type_partial_charge
C1    C     C_R   0.445698 0.508588 0.267740 0.941093
C2    C     C_3   0.496228 0.879026 0.493540 -0.022487
C3    C     C_3   0.581548 0.919933 0.608700 0.381154
C4    C     C_3   0.351163 0.944122 0.501144 -0.487116
C5    C     C_2   0.421267 0.524728 0.136024 -0.518924
C6    C     C_2   0.524063 0.506563 0.064867 0.580930
C7    C     C_2   0.588293 0.484239 0.859554 -0.353080
C8    C     C_2   0.498045 0.529628 0.934972 -0.281319
C9    C     C_2   0.069619 0.500844 0.480944 -0.170415
C10   C     C_2   0.927345 0.513050 0.508572 -0.011408
C11   C     C_R   0.497707 0.258263 0.498533 0.857843
C12   C     C_R   0.555407 0.492540 0.730818 0.947275
C13   C     C_R   0.499503 0.741915 0.496148 0.922994
C14   C     C_3   0.549334 0.064458 0.372961 -0.245108
C15   C     C_3   0.542180 0.919946 0.369159 0.268420
C16   C     C_3   0.584044 0.063551 0.607940 -0.473048
C17   C     C_3   0.347921 0.087485 0.501132 -0.163723
C18   C     C_3   0.494771 0.122135 0.496837 -0.016714
H1    H     H_    0.309128 0.912138 0.584700 0.250440
H2    H     H_    0.554949 0.108389 0.695115 0.175631
H3    H     H_    0.402355 0.578831 0.900494 0.168898
H4    H     H_    0.684921 0.435890 0.891320 0.177332
H5    H     H_    0.321768 0.559948 0.097768 0.116541
H6    H     H_    0.100898 0.447315 0.400955 0.151838
H7    H     H_    0.878119 0.389008 0.380422 0.171798
H8    H     H_    0.475179 0.104346 0.298290 0.066251
H9    H     H_    0.133001 0.594471 0.632546 0.201295
H10   H     H_    0.461448 0.901415 0.297314 0.061656
H11   H     H_    0.687023 0.085639 0.606425 0.134049
H12   H     H_    0.683546 0.873054 0.602987 0.114525
H13   H     H_    0.295968 0.119534 0.410888 0.115084
H14   H     H_    0.285213 0.915222 0.421753 0.148509
N1    N     N_2   0.157300 0.551950 0.551120 -0.195582
N2    N     N_2   0.842730 0.448000 0.448950 -0.232874
O1    O     O_R   0.568940 0.489540 0.307530 -0.549170
O2    O     O_R   0.348880 0.522880 0.340350 -0.633450
O3    O     O_R   0.610030 0.298130 0.483570 -0.617501
O4    O     O_R   0.389960 0.331470 0.516390 -0.616049
O5    O     O_R   0.651120 0.477120 0.659650 -0.639027
O6    O     O_R   0.431060 0.510460 0.692470 -0.595716
O7    O     O_R   0.610040 0.668530 0.483610 -0.585448
O8    O     O_R   0.389970 0.701870 0.516430 -0.624664
Zn1   Zn    Zn3+2 0.646940 0.477740 0.478080 0.958801
Zn2   Zn    Zn3+2 0.353060 0.522260 0.521920 0.945849
C19   C     C_R   0.684418 0.098221 0.338026 0.224513
C20   C     C_R   0.806257 0.047455 0.400164 -0.032099
C21   C     C_R   0.926973 0.065678 0.355799 -0.192739
C22   C     C_R   0.929171 0.136637 0.250051 -0.203395
C23   C     C_R   0.810289 0.188399 0.187698 -0.104934
C24   C     C_R   0.688837 0.170315 0.231480 -0.117931
H15   H     H_    0.809530 0.985740 0.477620 0.118411
H16   H     H_    0.018981 0.021862 0.402040 0.134801
H17   H     H_    0.022949 0.149856 0.215370 0.124004
H18   H     H_    0.812469 0.240259 0.103680 0.161940
H19   H     H_    0.598097 0.209256 0.179577 0.134337
O9    O     O_3   0.524639 0.884699 0.715817 -0.623333
C25   C     C_3   0.621819 0.851814 0.812987 -0.374212
H20   H     H_    0.694254 0.921520 0.825842 0.166405
H21   H     H_    0.671604 0.755743 0.796898 0.212047
H22   H     H_    0.572083 0.849480 0.899505 0.183163
O10   O     O_3   0.647525 0.444859 0.108216 -0.590976
C26   C     C_3   0.745964 0.527562 0.112732 -0.350929
H23   H     H_    0.724194 0.607707 0.047017 0.138995
H24   H     H_    0.840947 0.473270 0.090176 0.155397
H25   H     H_    0.761992 0.564216 0.207721 0.215499
C27   C     C_R   0.890288 0.601107 0.609433 0.261444
C28   C     C_R   0.901001 0.554437 0.730374 -0.142336
C29   C     C_R   0.924490 0.633194 0.831121 -0.212099
C30   C     C_R   0.939955 0.759040 0.812440 -0.134899
C31   C     C_R   0.927896 0.807182 0.693128 -0.214224
C32   C     C_R   0.901948 0.729052 0.592196 -0.192463
H26   H     H_    0.900355 0.455339 0.746724 0.131330
H27   H     H_    0.935364 0.595552 0.923460 0.129526
H28   H     H_    0.960644 0.819353 0.890372 0.132758
H29   H     H_    0.940900 0.904521 0.678613 0.143194
H30   H     H_    0.902605 0.765352 0.500057 0.165283
O11   O     O_3   0.664332 0.849152 0.343361 -0.599988
C33   C     C_3   0.668505 0.828368 0.215394 -0.338998
H31   H     H_    0.642617 0.916761 0.161666 0.155841
H32   H     H_    0.599977 0.759485 0.183348 0.162239
H33   H     H_    0.771097 0.789806 0.196940 0.182266
C34   C     C_R   0.258958 0.144752 0.600673 0.212121
C35   C     C_R   0.288549 0.121310 0.727952 -0.142241
C36   C     C_R   0.195220 0.158021 0.812573 -0.154274
C37   C     C_R   0.068649 0.213751 0.771892 -0.137958
C38   C     C_R   0.036296 0.235299 0.646721 -0.156812
C39   C     C_R   0.131421 0.204799 0.562391 -0.135525
H34   H     H_    0.379268 0.068801 0.763977 0.187370
H35   H     H_    0.219575 0.138584 0.909566 0.123903
H36   H     H_    0.994962 0.238084 0.837088 0.113852
H37   H     H_    0.936417 0.273590 0.614764 0.149068
H38   H     H_    0.102920 0.222841 0.465911 0.107272

loop_
_geom_bond_atom_site_label_1
_geom_bond_atom_site_label_2
_ccdc_geom_bond_type
C11   C18   S    
O3    Zn1   S    
C3    H12   S    
C14   C18   S    
C13   O7    A    
C15   H10   S    
C7    C8    D    
C15   O11   S    
C19   C20   A    
H9    N1    S    
C1    C5    S    
C6    O10   S    
C17   C34   S    
C38   H37   S    
C5    C6    D    
C33   H32   S    
C25   H21   S    
C23   H18   S    
O9    C25   S    
C28   H26   S    
C11   O3    A    
C2    C13   S    
C26   H24   S    
C4    H1    S    
C35   C36   A    
C29   C30   A    
C31   C32   A    
O1    Zn1   S    
C9    C10   S    
O10   C26   S    
O11   C33   S    
H7    N2    S    
C35   H34   S    
C39   H38   S    
C9    N1    D    
O7    Zn1   S    
C7    C12   S    
O8    Zn2   S    
C13   O8    A    
C8    H3    S    
C14   C19   S    
C10   C27   S    
C22   H17   S    
C28   C29   A    
C21   C22   A    
C36   C37   A    
C33   H31   S    
C25   H22   S    
O5    Zn1   S    
C16   H11   S    
C37   C38   A    
C20   H15   S    
C12   O6    A    
C11   O4    A    
C2    C4    S    
O4    Zn2   S    
C26   H23   S    
C3    O9    S    
C27   C32   A    
C5    H5    S    
C16   H2    S    
C17   C18   S    
C30   H28   S    
C10   N2    D    
C14   H8    S    
C2    C15   S    
C4    H14   S    
C4    C17   S    
C22   C23   A    
C23   C24   A    
C17   H13   S    
O2    Zn2   S    
C36   H35   S    
C1    O1    A    
C20   C21   A    
C26   H25   S    
C38   C39   A    
N1    Zn2   S    
N2    Zn1   S    
C6    C8    S    
C37   H36   S    
C9    H6    S    
C21   H16   S    
C7    H4    S    
C24   H19   S    
C12   O5    A    
C2    C3    S    
C29   H27   S    
C33   H33   S    
C25   H20   S    
C32   H30   S    
C19   C24   A    
C27   C28   A    
C30   C31   A    
O6    Zn2   S    
C16   C18   S    
C34   C35   A    
C31   H29   S    
C14   C15   S    
C3    C16   S    
C34   C39   A    
C1    O2    A    
