data_mof_unit_8030.cif
_audit_creation_date              2012-12-11T15:45:03-0500
_audit_creation_method            fapswitch 2.2
_symmetry_space_group_name_H-M    P1
_symmetry_Int_Tables_number       1
_space_group_crystal_system       triclinic
_cell_length_a                    19.950267
_cell_length_b                    11.547964
_cell_length_c                    18.857115
_cell_angle_alpha                 90.005365
_cell_angle_beta                  90.25441
_cell_angle_gamma                 90.876713
_cell_volume                      4343.84432069

loop_
_atom_site_label
_atom_site_type_symbol
_atom_type_description
_atom_site_fract_x
_atom_site_fract_y
_atom_site_fract_z
_atom_type_partial_charge
C1    C     C_R   0.759899 0.526023 0.646863 0.535879
C2    C     C_R   0.176403 0.047727 0.542737 0.113606
C3    C     C_R   0.474176 0.943273 0.970449 0.041427
C4    C     C_R   0.980922 0.235795 0.968128 -0.160239
C5    C     C_R   0.989125 0.235259 0.042170 -0.166000
C6    C     C_R   0.480922 0.735795 0.968129 -0.160238
C7    C     C_R   0.489124 0.735258 0.042171 -0.166001
C8    C     C_3   0.018441 0.558563 0.040353 -0.267043
C9    C     C_3   0.008757 0.557513 0.960825 -0.275919
C10   C     C_3   0.518438 0.058564 0.040354 -0.267043
C11   C     C_3   0.508753 0.057515 0.960826 -0.275917
C12   C     C_R   0.763071 0.523166 0.854380 0.543256
C13   C     C_R   0.302771 0.516440 0.467548 0.112202
C14   C     C_R   0.239137 0.529126 0.148197 0.534895
C15   C     C_R   0.263072 0.023165 0.854381 0.543258
C16   C     C_R   0.739137 0.029126 0.148197 0.534893
C17   C     C_R   0.775839 0.134728 0.854993 0.552484
C18   C     C_R   0.226468 0.127896 0.147394 0.537830
C19   C     C_R   0.275839 0.634728 0.854993 0.552483
C20   C     C_R   0.726468 0.627896 0.147394 0.537836
C21   C     C_R   0.963833 0.347913 0.855659 0.546947
C22   C     C_R   0.031271 0.347118 0.147185 0.540695
C23   C     C_R   0.463833 0.847913 0.855660 0.546946
C24   C     C_R   0.676401 0.547723 0.542737 0.113606
C25   C     C_R   0.531271 0.847118 0.147185 0.540693
C26   C     C_R   0.765886 0.084003 0.419959 0.020180
C27   C     C_R   0.241105 0.059389 0.576515 0.016293
C28   C     C_R   0.265878 0.583995 0.419963 0.020181
C29   C     C_R   0.741103 0.559392 0.576516 0.016297
C30   C     C_R   0.754559 0.195871 0.440908 0.000180
C31   C     C_R   0.293430 0.085696 0.534089 -0.018093
C32   C     C_R   0.254559 0.695864 0.440910 0.000196
C33   C     C_R   0.793427 0.585705 0.534091 -0.018082
C34   C     C_R   0.762750 0.226057 0.513022 -0.006328
C35   C     C_3   0.688742 0.244028 0.435611 -0.000877
C36   C     C_R   0.290424 0.109537 0.464927 0.014028
C37   C     C_R   0.262750 0.726052 0.513023 -0.006332
C38   C     C_R   0.790421 0.609533 0.464928 0.014052
C39   C     C_3   0.867503 0.867071 0.421858 -0.238551
C40   C     C_3   0.104870 0.909499 0.629476 -0.192427
C41   C     C_3   0.367491 0.367064 0.421869 -0.238557
C42   C     C_3   0.604870 0.409501 0.629479 -0.192426
C43   C     C_3   0.703326 0.335230 0.321143 -0.285147
C44   C     C_3   0.326309 0.270037 0.622403 -0.293232
C45   C     C_3   0.203366 0.835231 0.321148 -0.285181
C46   C     C_3   0.364358 0.098007 0.544411 0.050845
C47   C     C_3   0.826298 0.770052 0.622401 -0.293254
C48   C     C_3   0.669294 0.031610 0.550559 -0.268079
C49   C     C_3   0.378020 0.004698 0.351107 -0.284551
C50   C     C_3   0.169290 0.531621 0.550570 -0.268074
C51   C     C_3   0.877974 0.504611 0.351122 -0.284721
C52   C     C_3   0.026384 0.931345 0.366627 -0.330972
C53   C     C_3   0.955218 0.962233 0.668957 -0.282211
C54   C     C_3   0.526375 0.431323 0.366636 -0.330973
C55   C     C_3   0.455216 0.462237 0.668965 -0.282196
C56   C     C_3   0.892734 0.215429 0.347129 -0.301321
C57   C     C_3   0.188745 0.744038 0.435612 -0.000866
C58   C     C_3   0.115942 0.230043 0.647200 -0.289838
C59   C     C_3   0.392733 0.715387 0.347113 -0.301337
C60   C     C_3   0.615941 0.730042 0.647198 -0.289838
C61   C     C_3   0.864355 0.598026 0.544412 0.050827
C62   C     C_3   0.691555 0.249204 0.516241 0.017161
C63   C     C_3   0.365778 0.104553 0.462749 0.017630
C64   C     C_3   0.191557 0.749211 0.516243 0.017167
C65   C     C_R   0.240280 0.529953 0.353399 0.529278
C66   C     C_3   0.865775 0.604551 0.462748 0.017637
C67   C     C_R   0.797818 0.160226 0.560932 -0.019605
C68   C     C_R   0.229440 0.113949 0.431276 0.015530
C69   C     C_R   0.297816 0.660219 0.560933 -0.019596
C70   C     C_R   0.729439 0.613943 0.431275 0.015545
C71   C     C_R   0.015556 0.349441 0.430771 0.006793
C72   C     C_R   0.002051 0.352848 0.578993 -0.023786
C73   C     C_R   0.515550 0.849439 0.430769 0.006799
C74   C     C_R   0.502051 0.852844 0.578993 -0.023784
C75   C     C_R   0.978105 0.144743 0.434459 0.175863
C76   C     C_R   0.259899 0.026021 0.646862 0.535884
C77   C     C_R   0.017332 0.149283 0.578632 0.222518
C78   C     C_R   0.478103 0.644736 0.434459 0.175867
C79   C     C_R   0.517329 0.649281 0.578632 0.222521
C80   C     C_R   0.985283 0.043020 0.473727 0.132577
C81   C     C_R   0.989248 0.048628 0.549588 0.166359
C82   C     C_R   0.485277 0.543014 0.473731 0.132571
C83   C     C_R   0.489242 0.548627 0.549592 0.166352
C84   C     C_R   0.007288 0.250421 0.541511 -0.061174
C85   C     C_R   0.997410 0.249086 0.467573 -0.061012
C86   C     C_R   0.507286 0.750418 0.541510 -0.061171
C87   C     C_R   0.740282 0.029955 0.353398 0.529267
C88   C     C_R   0.497406 0.749081 0.467572 -0.061009
C89   C     C_R   0.011950 0.458102 0.542977 0.000705
C90   C     C_R   0.025501 0.453021 0.470747 0.026458
C91   C     C_R   0.511951 0.958097 0.542978 0.000706
C92   C     C_R   0.525493 0.953021 0.470746 0.026481
C93   C     C_R   0.793972 0.172073 0.640280 0.566427
C94   C     C_R   0.221189 0.137723 0.356994 0.557515
C95   C     C_R   0.293972 0.672073 0.640281 0.566421
C96   C     C_R   0.721189 0.637719 0.356993 0.557540
C97   C     C_R   0.015371 0.569476 0.576017 -0.088042
C98   C     C_R   0.826885 0.062155 0.531354 -0.144091
C99   C     C_R   0.051935 0.553539 0.441620 -0.043649
C100  C     C_R   0.515380 0.069465 0.576024 -0.088028
C101  C     C_R   0.551926 0.053542 0.441619 -0.043634
C102  C     C_R   0.016561 0.667612 0.534665 -0.128612
C103  C     C_R   0.036047 0.658855 0.466077 -0.107462
C104  C     C_R   0.516568 0.167606 0.534678 -0.128614
C105  C     C_R   0.536052 0.158858 0.466090 -0.107490
C106  C     C_R   0.753556 0.082724 0.079178 0.016430
C107  C     C_R   0.257434 0.051360 0.929892 0.018961
C108  C     C_R   0.253556 0.582723 0.079178 0.016429
C109  C     C_R   0.171607 0.092668 0.473192 -0.167564
C110  C     C_R   0.757433 0.551362 0.929891 0.018961
C111  C     C_R   0.811353 0.051260 0.042349 0.030842
C112  C     C_R   0.206997 0.995668 0.968609 0.042045
C113  C     C_R   0.311352 0.551257 0.042348 0.030843
C114  C     C_R   0.706997 0.495670 0.968608 0.042046
C115  C     C_R   0.816253 0.066237 0.970289 0.041123
C116  C     C_R   0.201402 0.009808 0.040647 0.029092
C117  C     C_R   0.316252 0.566235 0.970288 0.041123
C118  C     C_R   0.701401 0.509809 0.040646 0.029092
C119  C     C_R   0.710708 0.163015 0.968137 -0.160098
C120  C     C_R   0.326878 0.562142 0.531356 -0.144087
C121  C     C_R   0.304170 0.121274 0.042573 -0.166015
C122  C     C_R   0.210709 0.663015 0.968137 -0.160099
C123  C     C_R   0.804170 0.621275 0.042572 -0.166015
C124  C     C_R   0.705526 0.148111 0.042189 -0.165314
C125  C     C_R   0.309477 0.107067 0.968490 -0.160355
C126  C     C_R   0.205526 0.648112 0.042189 -0.165316
C127  C     C_R   0.809477 0.607069 0.968490 -0.160355
C128  C     C_3   0.848150 0.939222 0.039104 -0.267185
C129  C     C_3   0.133000 0.992795 0.956992 -0.276966
C130  C     C_3   0.348147 0.439218 0.039103 -0.267184
C131  C     C_R   0.671605 0.592663 0.473191 -0.167569
C132  C     C_3   0.633000 0.492797 0.956992 -0.276966
C133  C     C_3   0.853622 0.956747 0.959804 -0.276038
C134  C     C_3   0.126372 0.009063 0.036290 -0.268056
C135  C     C_3   0.353620 0.456744 0.959804 -0.276040
C136  C     C_3   0.626372 0.509065 0.036290 -0.268057
C137  C     C_R   0.764127 0.112979 0.930560 0.017109
C138  C     C_R   0.246513 0.080734 0.078498 0.016176
C139  C     C_R   0.264127 0.612978 0.930560 0.017109
C140  C     C_R   0.746512 0.580735 0.078497 0.016177
C141  C     C_R   0.969337 0.349493 0.648307 0.545514
C142  C     C_R   0.802784 0.016452 0.467543 0.112227
C143  C     C_R   0.035877 0.348116 0.355482 0.546423
C144  C     C_R   0.469337 0.849492 0.648307 0.545515
C145  C     C_R   0.535872 0.848115 0.355480 0.546431
C146  C     C_R   0.996468 0.340741 0.079108 0.017404
C147  C     C_R   0.979253 0.341863 0.931016 0.020167
C148  C     C_R   0.496468 0.840741 0.079109 0.017403
C149  C     C_R   0.479252 0.841864 0.931017 0.020168
C150  C     C_R   0.982521 0.443387 0.042576 0.030309
C151  C     C_R   0.974179 0.443273 0.970448 0.041427
C152  C     C_R   0.482519 0.943387 0.042577 0.030310
Cr1   Cr    Cr6+3 0.885860 0.491680 0.749630 0.970903
Cr2   Cr    Cr6+3 0.112430 0.179310 0.249850 0.963727
Cr3   Cr    Cr6+3 0.387570 0.679310 0.750150 0.950931
Cr4   Cr    Cr6+3 0.612430 0.679310 0.249850 0.963732
Cr5   Cr    Cr6+3 0.114140 0.491680 0.250370 0.969833
Cr6   Cr    Cr6+3 0.385860 0.991680 0.749630 0.970901
Cr7   Cr    Cr6+3 0.614140 0.991680 0.250370 0.969840
Cr8   Cr    Cr6+3 0.730490 0.332970 0.748720 0.959161
Cr9   Cr    Cr6+3 0.269510 0.332970 0.251280 0.981154
Cr10  Cr    Cr6+3 0.230490 0.832970 0.748720 0.959162
Cr11  Cr    Cr6+3 0.769510 0.832970 0.251280 0.981144
Cr12  Cr    Cr6+3 0.887570 0.179310 0.750150 0.950932
H1    H     H_    0.856891 0.008430 0.562714 0.169169
H2    H     H_    0.352835 0.142711 0.941486 0.128113
H3    H     H_    0.171251 0.498768 0.495770 0.147240
H4    H     H_    0.867639 0.424113 0.450740 0.250421
H5    H     H_    0.918813 0.457865 0.325675 0.169642
H6    H     H_    0.881684 0.594892 0.330881 0.150714
H7    H     H_    0.829151 0.465970 0.334731 0.141908
H8    H     H_    0.009482 0.871968 0.471806 0.241496
H9    H     H_    0.058232 0.007390 0.354098 0.197620
H10   H     H_    0.984692 0.920383 0.328096 0.127320
H11   H     H_    0.057207 0.854554 0.358508 0.115601
H12   H     H_    0.942056 0.889087 0.567571 0.253157
H13   H     H_    0.162085 0.681019 0.069271 0.121897
H14   H     H_    0.942636 0.049682 0.684024 0.227767
H15   H     H_    0.997238 0.935097 0.702662 0.080341
H16   H     H_    0.914345 0.904483 0.686107 0.127503
H17   H     H_    0.509464 0.371955 0.471817 0.241490
H18   H     H_    0.558235 0.507355 0.354109 0.197595
H19   H     H_    0.484682 0.420376 0.328103 0.127330
H20   H     H_    0.557187 0.354519 0.358516 0.115594
H21   H     H_    0.442060 0.389074 0.567582 0.253149
H22   H     H_    0.442636 0.549687 0.684031 0.227772
H23   H     H_    0.497237 0.435101 0.702669 0.080332
H24   H     H_    0.852835 0.642712 0.941485 0.128114
H25   H     H_    0.414341 0.404492 0.686117 0.127502
H26   H     H_    0.970191 0.105743 0.322740 0.266589
H27   H     H_    0.851487 0.163683 0.323268 0.150790
H28   H     H_    0.909863 0.275222 0.305009 0.134982
H29   H     H_    0.874345 0.262076 0.393856 0.158070
H30   H     H_    0.040585 0.123785 0.689540 0.248160
H31   H     H_    0.102302 0.306908 0.679033 0.128910
H32   H     H_    0.134017 0.258436 0.594263 0.137945
H33   H     H_    0.157513 0.186661 0.675249 0.150616
H34   H     H_    0.470208 0.605733 0.322739 0.266597
H35   H     H_    0.815706 0.863932 0.053175 0.162916
H36   H     H_    0.351485 0.663612 0.323280 0.150824
H37   H     H_    0.409847 0.775133 0.304961 0.134940
H38   H     H_    0.374353 0.762082 0.393826 0.158048
H39   H     H_    0.540586 0.623782 0.689540 0.248158
H40   H     H_    0.602302 0.806908 0.679031 0.128909
H41   H     H_    0.634015 0.758433 0.594261 0.137944
H42   H     H_    0.657512 0.686659 0.675247 0.150615
H43   H     H_    0.114505 0.906683 0.938428 0.134187
H44   H     H_    0.315702 0.363930 0.053173 0.162916
H45   H     H_    0.614505 0.406685 0.938427 0.134187
H46   H     H_    0.897350 0.944070 0.066956 0.129339
H47   H     H_    0.115105 0.067970 0.925676 0.135877
H48   H     H_    0.397348 0.444063 0.066955 0.129338
H49   H     H_    0.122475 0.096245 0.449022 0.149903
H50   H     H_    0.615104 0.567972 0.925675 0.135876
H51   H     H_    0.905937 0.972816 0.941910 0.134105
H52   H     H_    0.104980 0.094065 0.050411 0.161978
H53   H     H_    0.405936 0.472813 0.941910 0.134105
H54   H     H_    0.604980 0.594067 0.050411 0.161978
H55   H     H_    0.824744 0.891226 0.928453 0.138257
H56   H     H_    0.103454 0.932824 0.063442 0.128855
H57   H     H_    0.324742 0.391225 0.928451 0.138257
H58   H     H_    0.603454 0.432825 0.063442 0.128854
H59   H     H_    0.071994 0.552899 0.055766 0.164157
H60   H     H_    0.356886 0.508420 0.562715 0.169170
H61   H     H_    0.974321 0.625591 0.941766 0.134907
H62   H     H_    0.571991 0.052903 0.055766 0.164155
H63   H     H_    0.474316 0.125591 0.941768 0.134906
H64   H     H_    0.989895 0.627730 0.067268 0.128819
H65   H     H_    0.056524 0.550852 0.930986 0.138159
H66   H     H_    0.489891 0.127729 0.067270 0.128817
H67   H     H_    0.556520 0.050856 0.930987 0.138159
H68   H     H_    0.153093 0.686846 0.411496 0.150817
H69   H     H_    0.886514 0.519528 0.567590 0.173150
H70   H     H_    0.653098 0.186823 0.411496 0.150832
H71   H     H_    0.622473 0.596241 0.449021 0.149895
H72   H     H_    0.386514 0.019501 0.567582 0.173149
H73   H     H_    0.689424 0.332758 0.539296 0.167796
H74   H     H_    0.399351 0.171818 0.445208 0.160561
H75   H     H_    0.189435 0.832765 0.539301 0.167796
H76   H     H_    0.899341 0.671811 0.445188 0.160555
H77   H     H_    0.092862 0.549660 0.406912 0.164101
H78   H     H_    0.022616 0.586162 0.631807 0.139433
H79   H     H_    0.592854 0.049663 0.406913 0.164091
H80   H     H_    0.522635 0.086140 0.631814 0.139430
H81   H     H_    0.013232 0.749640 0.558040 0.103800
H82   H     H_    0.672094 0.210089 0.940420 0.130721
H83   H     H_    0.054036 0.730518 0.437339 0.101122
H84   H     H_    0.513246 0.249630 0.558059 0.103795
H85   H     H_    0.554061 0.230527 0.437371 0.101140
H86   H     H_    0.978304 0.154034 0.940110 0.130114
H87   H     H_    0.994937 0.153363 0.069223 0.123439
H88   H     H_    0.478303 0.654034 0.940110 0.130115
H89   H     H_    0.494937 0.653363 0.069224 0.123439
H90   H     H_    0.792345 0.844735 0.497084 0.250509
H91   H     H_    0.901662 0.841905 0.464084 0.148668
H92   H     H_    0.888542 0.940479 0.391173 0.223782
H93   H     H_    0.342669 0.170313 0.070490 0.121773
H94   H     H_    0.858208 0.799418 0.381694 0.169248
H95   H     H_    0.098358 0.935551 0.522422 0.242772
H96   H     H_    0.060992 0.855590 0.625510 0.110356
H97   H     H_    0.102103 0.963819 0.677520 0.187772
H98   H     H_    0.138943 0.838807 0.638479 0.156118
H99   H     H_    0.292328 0.344724 0.497087 0.250493
H100  H     H_    0.401647 0.341912 0.464101 0.148666
H101  H     H_    0.388531 0.440470 0.391183 0.223782
H102  H     H_    0.358203 0.299404 0.381707 0.169261
H103  H     H_    0.598349 0.435556 0.522425 0.242771
H104  H     H_    0.172095 0.710090 0.940421 0.130722
H105  H     H_    0.560990 0.355600 0.625520 0.110355
H106  H     H_    0.602106 0.463823 0.677523 0.187772
H107  H     H_    0.638941 0.338804 0.638478 0.156115
H108  H     H_    0.654563 0.404268 0.407891 0.267888
H109  H     H_    0.716008 0.417689 0.294653 0.179098
H110  H     H_    0.657138 0.298005 0.296518 0.133013
H111  H     H_    0.745745 0.276855 0.310469 0.137502
H112  H     H_    0.419245 0.201800 0.615320 0.255135
H113  H     H_    0.335037 0.362462 0.619198 0.136539
H114  H     H_    0.327161 0.247949 0.679641 0.161341
H115  H     H_    0.842669 0.670313 0.070490 0.121774
H116  H     H_    0.274877 0.262259 0.601295 0.117233
H117  H     H_    0.154575 0.904275 0.407876 0.267899
H118  H     H_    0.215993 0.917704 0.294643 0.179095
H119  H     H_    0.157206 0.797896 0.296520 0.133062
H120  H     H_    0.245832 0.776946 0.310496 0.137495
H121  H     H_    0.919240 0.701839 0.615309 0.255122
H122  H     H_    0.835025 0.862479 0.619204 0.136548
H123  H     H_    0.827148 0.747950 0.679637 0.161350
H124  H     H_    0.774867 0.762275 0.601288 0.117232
H125  H     H_    0.636549 0.175210 0.602714 0.255594
H126  H     H_    0.662084 0.181017 0.069271 0.121897
H127  H     H_    0.631076 0.980840 0.579013 0.122468
H128  H     H_    0.713362 0.008307 0.582265 0.149865
H129  H     H_    0.671253 0.998771 0.495756 0.147237
H130  H     H_    0.367605 0.924126 0.450691 0.250429
H131  H     H_    0.418768 0.957704 0.325672 0.169522
H132  H     H_    0.381930 0.094974 0.330888 0.150624
H133  H     H_    0.329124 0.966359 0.334688 0.141978
H134  H     H_    0.136536 0.675227 0.602708 0.255582
H135  H     H_    0.131070 0.480858 0.579025 0.122468
H136  H     H_    0.213354 0.508323 0.582281 0.149871
N1    N     N_2   0.806551 0.896801 0.455729 -0.504514
N2    N     N_2   0.385267 0.999432 0.427665 -0.528494
N3    N     N_2   0.154343 0.655277 0.553599 -0.515511
N4    N     N_2   0.885261 0.499416 0.427677 -0.528476
N5    N     N_2   0.000451 0.938046 0.438526 -0.577183
N6    N     N_2   0.969037 0.952292 0.593018 -0.558124
N7    N     N_2   0.500440 0.438035 0.438533 -0.577173
N8    N     N_2   0.469033 0.452292 0.593026 -0.558124
N9    N     N_2   0.946391 0.139599 0.365859 -0.503922
N10   N     N_2   0.059044 0.150387 0.641489 -0.472195
N11   N     N_2   0.446399 0.639584 0.365854 -0.503918
N12   N     N_2   0.119275 0.977063 0.565248 -0.471660
N13   N     N_2   0.559043 0.650387 0.641489 -0.472191
N14   N     N_2   0.306536 0.396789 0.455732 -0.504510
N15   N     N_2   0.619271 0.477064 0.565250 -0.471666
N16   N     N_2   0.693939 0.351682 0.397067 -0.534505
N17   N     N_2   0.378082 0.207609 0.582842 -0.534693
N18   N     N_2   0.193954 0.851691 0.397068 -0.534517
N19   N     N_2   0.878073 0.707636 0.582835 -0.534703
N20   N     N_2   0.654348 0.155266 0.553600 -0.515519
O1    O     O_R   0.957020 0.451640 0.669920 -0.559914
O2    O     O_R   0.168040 0.093290 0.169870 -0.531294
O3    O     O_R   0.331960 0.593290 0.830130 -0.524341
O4    O     O_R   0.668040 0.593290 0.169870 -0.531291
O5    O     O_R   0.945600 0.250580 0.824860 -0.521257
O6    O     O_R   0.054400 0.250580 0.175140 -0.516471
O7    O     O_R   0.445600 0.750580 0.824860 -0.521258
O8    O     O_R   0.554400 0.750580 0.175140 -0.516474
O9    O     O_3   0.834640 0.334650 0.749500 -0.292499
O10   O     O_3   0.165360 0.334650 0.250500 -0.268730
O11   O     O_3   0.334640 0.834650 0.749500 -0.292501
O12   O     O_R   0.042980 0.451640 0.330080 -0.553072
O13   O     O_3   0.665360 0.834650 0.250500 -0.268728
O14   O     O_R   0.821450 0.543440 0.674610 -0.511458
O15   O     O_R   0.178550 0.543440 0.325390 -0.548581
O16   O     O_R   0.321450 0.043440 0.674610 -0.511449
O17   O     O_R   0.678550 0.043440 0.325390 -0.548579
O18   O     O_R   0.715320 0.458650 0.668100 -0.554644
O19   O     O_R   0.284680 0.458650 0.331900 -0.504272
O20   O     O_R   0.215320 0.958650 0.668100 -0.554647
O21   O     O_R   0.784680 0.958650 0.331900 -0.504257
O22   O     O_R   0.737170 0.209590 0.674530 -0.517303
O23   O     O_R   0.457020 0.951640 0.669920 -0.559913
O24   O     O_R   0.262830 0.209590 0.325470 -0.514707
O25   O     O_R   0.237170 0.709590 0.674530 -0.517297
O26   O     O_R   0.762830 0.709590 0.325470 -0.514756
O27   O     O_R   0.832710 0.092740 0.669580 -0.566552
O28   O     O_R   0.167290 0.092740 0.330420 -0.567392
O29   O     O_R   0.332710 0.592740 0.669580 -0.566550
O30   O     O_R   0.667290 0.592740 0.330420 -0.567364
O31   O     O_R   0.946290 0.250060 0.676040 -0.533645
O32   O     O_R   0.053710 0.250060 0.323960 -0.512138
O33   O     O_R   0.446290 0.750060 0.676040 -0.533645
O34   O     O_R   0.542980 0.951640 0.330080 -0.553042
O35   O     O_R   0.553710 0.750060 0.323960 -0.512139
O36   O     O_R   0.956270 0.452200 0.830470 -0.521792
O37   O     O_R   0.043730 0.452200 0.169530 -0.525488
O38   O     O_R   0.456270 0.952200 0.830470 -0.521793
O39   O     O_R   0.543730 0.952200 0.169530 -0.525486
O40   O     O_R   0.820760 0.543950 0.823440 -0.513193
O41   O     O_R   0.179240 0.543950 0.176560 -0.513802
O42   O     O_R   0.320760 0.043950 0.823440 -0.513194
O43   O     O_R   0.679240 0.043950 0.176560 -0.513800
O44   O     O_R   0.714570 0.459210 0.828640 -0.529905
O45   O     O_R   0.736470 0.210100 0.823360 -0.508631
O46   O     O_R   0.285430 0.459210 0.171360 -0.528924
O47   O     O_R   0.214570 0.959210 0.828640 -0.529905
O48   O     O_R   0.785430 0.959210 0.171360 -0.528924
O49   O     O_R   0.263530 0.210100 0.176640 -0.515275
O50   O     O_R   0.236470 0.710100 0.823360 -0.508631
O51   O     O_R   0.763530 0.710100 0.176640 -0.515278
O52   O     O_R   0.831960 0.093290 0.830130 -0.524339

loop_
_geom_bond_atom_site_label_1
_geom_bond_atom_site_label_2
_ccdc_geom_bond_type
C82   N7    S    
C99   C103  A    
C45   H119  S    
C37   C69   A    
Cr10  O50   S    
C107  C112  A    
C41   H101  S    
Cr7   O17   S    
C93   O27   A    
C80   N5    S    
C38   C70   A    
C58   H33   S    
C133  H55   S    
C49   N2    S    
Cr2   O10   S    
C119  H82   S    
C122  C139  A    
C124  H126  S    
C86   C88   A    
C60   H41   S    
C39   H91   S    
Cr12  O9    S    
C135  H53   S    
C29   C33   A    
C58   H31   S    
C100  C104  A    
C16   O48   A    
Cr8   O44   S    
C14   O46   A    
C50   H136  S    
Cr6   O23   S    
C146  C150  A    
H21   N8    S    
C112  C129  S    
H99   N14   S    
C23   C149  S    
C56   H27   S    
C117  C139  A    
C32   C57   S    
C118  C140  A    
C104  C105  A    
Cr4   O4    S    
Cr9   O24   S    
C3    C149  A    
Cr2   O28   S    
C133  H51   S    
C28   C32   A    
C131  H71   S    
C22   O6    A    
C103  H83   S    
C46   H72   S    
C108  C113  A    
C8    C150  S    
C73   C88   A    
C145  O34   A    
C78   C82   A    
C94   O24   A    
Cr10  O11   S    
C1    C29   S    
C35   H70   S    
C49   H133  S    
C52   H11   S    
Cr5   O41   S    
C72   C84   A    
C8    H59   S    
Cr7   O13   S    
C142  N1    S    
C47   N19   S    
C48   N20   S    
Cr8   O45   S    
C117  C135  S    
C118  C136  S    
C71   C143  S    
C143  O32   A    
C9    C151  S    
C136  H54   S    
C11   H67   S    
Cr5   O10   S    
C66   H76   S    
C132  H45   S    
C4    C5    A    
C40   N12   S    
C36   C68   A    
C6    C7    A    
Cr1   O36   S    
C33   C38   A    
Cr8   O22   S    
C128  H35   S    
C48   H127  S    
H26   N9    S    
Cr4   O13   S    
Cr9   O19   S    
C24   C131  A    
Cr4   O35   S    
C49   H131  S    
C123  H115  S    
C3    C11   S    
C46   N17   S    
Cr12  O52   S    
C23   O7    A    
C136  H58   S    
C19   C139  S    
C106  C124  A    
H4    N4    S    
C31   C36   A    
C25   O39   A    
C17   C137  S    
C108  C126  A    
Cr7   O43   S    
C2    C109  A    
C99   H77   S    
C61   H69   S    
C147  C151  A    
C58   N10   S    
C12   C110  S    
C8    H64   S    
C122  H104  S    
C25   O8    A    
Cr11  O21   S    
Cr12  O31   S    
C62   H73   S    
C43   N16   S    
C55   H25   S    
C47   H124  S    
Cr3   O3    S    
C10   H66   S    
H95   N12   S    
C67   C98   A    
C97   H78   S    
C6    C149  A    
C60   H40   S    
C44   H114  S    
Cr11  O48   S    
C115  C137  A    
C26   C87   S    
C31   C46   S    
C129  H47   S    
C110  C114  A    
C100  H80   S    
C68   C109  A    
C128  H46   S    
C120  H60   S    
Cr5   O12   S    
C98   C142  A    
C64   N3    S    
C53   H15   S    
C106  C111  A    
C135  H57   S    
C113  C130  S    
C30   C34   A    
C130  H44   S    
C54   N7    S    
C107  C125  A    
Cr7   O34   S    
C91   C92   A    
C57   H68   S    
C77   C84   A    
C68   C94   S    
C17   O52   A    
C73   C145  S    
C42   H106  S    
C144  O23   A    
C70   C96   S    
C121  C125  A    
C39   H94   S    
C20   O51   A    
C40   H97   S    
C123  C127  A    
C59   H36   S    
C132  C136  S    
C57   N18   S    
C32   C37   A    
C87   O17   A    
Cr4   O8    S    
Cr10  O20   S    
C113  C117  A    
C33   C61   S    
C95   O25   A    
C26   C30   A    
Cr2   O32   S    
C91   C100  A    
C65   O19   A    
C23   O38   A    
Cr1   O14   S    
Cr2   O2    S    
C52   H10   S    
C90   C99   A    
C112  C116  A    
C13   C120  A    
C61   N19   S    
C45   H118  S    
C54   H19   S    
Cr11  O13   S    
C41   H100  S    
C148  C152  A    
C73   C92   A    
C47   H122  S    
Cr5   O15   S    
C46   C63   S    
C93   O22   A    
Cr5   O37   S    
C59   H38   S    
C60   H42   S    
C44   H116  S    
C71   C90   A    
C83   N8    S    
H125  N20   S    
C134  H56   S    
C58   H32   S    
C96   O30   A    
H134  N3    S    
C102  C103  A    
C10   C11   S    
C75   N9    S    
C15   O47   A    
C63   N2    S    
C11   H63   S    
C111  C128  S    
C67   C93   S    
C21   O36   A    
C150  C151  A    
C9    H61   S    
C13   N14   S    
C1    O18   A    
C121  H93   S    
C35   N16   S    
C56   H28   S    
Cr1   O40   S    
Cr8   O18   S    
Cr9   O49   S    
C130  C135  S    
Cr10  O25   S    
H39   N13   S    
Cr6   O11   S    
C66   N4    S    
C3    C152  A    
Cr1   O9    S    
H103  N15   S    
C43   H111  S    
Cr11  O26   S    
C34   C62   S    
C134  H52   S    
C55   H22   S    
C15   C107  S    
H112  N17   S    
C18   C138  S    
C24   C29   A    
Cr9   O46   S    
C10   C152  S    
C75   C85   A    
C104  H84   S    
C17   O45   A    
H8    N5    S    
C13   C28   A    
C2    C27   A    
C97   C102  A    
C14   C108  S    
C45   H120  S    
C141  O1    A    
C41   H102  S    
C102  H81   S    
C141  O31   A    
C40   H96   S    
C72   C141  S    
H34   N11   S    
C84   C85   A    
C43   H110  S    
C50   N3    S    
C39   H92   S    
C115  C133  S    
C4    C147  A    
C27   C31   A    
C74   C91   A    
C50   H135  S    
C48   H128  S    
C51   H5    S    
Cr6   O16   S    
C143  O12   A    
Cr6   O42   S    
C116  C134  S    
C92   C101  A    
C12   O40   A    
C54   H20   S    
C27   C76   S    
C45   N18   S    
C37   C64   S    
C78   C88   A    
C74   C144  S    
C62   N20   S    
C51   H6    S    
C34   C67   A    
C60   N13   S    
C43   H109  S    
C69   C120  A    
C20   C140  S    
C28   C65   S    
C87   O21   A    
C105  H85   S    
C47   H123  S    
C79   C83   A    
C145  O35   A    
C95   O29   A    
C18   O49   A    
C25   C148  S    
H117  N18   S    
Cr2   O6    S    
H130  N2    S    
C129  C134  S    
Cr12  O5    S    
C82   C83   A    
C12   O44   A    
C79   N13   S    
C89   C90   A    
C79   C86   A    
C48   H129  S    
H121  N19   S    
C72   C89   A    
C5    H87   S    
C130  H48   S    
C53   H14   S    
C63   H74   S    
C119  C124  A    
C30   C35   S    
C49   H132  S    
C96   O26   A    
C21   C147  S    
C109  H49   S    
C51   N4    S    
C129  H43   S    
Cr9   O10   S    
C126  H13   S    
C9    H65   S    
H108  N16   S    
C42   H107  S    
C64   H75   S    
C71   C85   A    
C40   H98   S    
C61   C66   S    
C20   O4    A    
C69   C95   S    
C76   O16   A    
C8    C9    S    
C42   N15   S    
C54   H18   S    
C77   C81   A    
C44   N17   S    
C18   O2    A    
C36   C63   S    
C55   N8    S    
C16   C106  S    
C110  C127  A    
C94   O28   A    
C77   N10   S    
C2    N12   S    
C7    H89   S    
C24   N15   S    
H12   N6    S    
C81   N6    S    
C127  H24   S    
C116  C138  A    
C101  C105  A    
C144  O33   A    
C119  C137  A    
C22   C146  S    
Cr4   O30   S    
C123  C140  A    
C89   C97   A    
C121  C138  A    
C122  C126  A    
Cr11  O51   S    
C65   O15   A    
C59   H37   S    
C44   H113  S    
C76   O20   A    
C74   C86   A    
Cr10  O47   S    
C22   O37   A    
C114  C118  A    
H90   N1    S    
Cr3   O11   S    
C15   O42   A    
C41   N14   S    
C55   H23   S    
C132  H50   S    
C53   H16   S    
Cr1   O1    S    
C57   C64   S    
C7    C148  A    
C75   C80   A    
Cr8   O9    S    
C38   C66   S    
C5    C146  A    
C16   O43   A    
C52   N5    S    
C114  C132  S    
C14   O41   A    
C80   C81   A    
Cr7   O39   S    
C19   O3    A    
C6    H88   S    
C39   N1    S    
C53   N6    S    
Cr6   O38   S    
C42   H105  S    
C51   H7    S    
C125  H2    S    
H30   N10   S    
C4    H86   S    
C128  C133  S    
C59   N11   S    
C1    O14   A    
H17   N7    S    
Cr12  O27   S    
C70   C131  A    
C35   C62   S    
C101  H79   S    
Cr3   O29   S    
C98   H1    S    
C56   N9    S    
C56   H29   S    
Cr3   O7    S    
C78   N11   S    
C50   H3    S    
C10   H62   S    
Cr3   O33   S    
C111  C115  A    
C19   O50   A    
C26   C142  A    
C52   H9    S    
C21   O5    A    
