data_mof_unit_57851.cif
_audit_creation_date              2012-10-26T18:59:55-0400
_audit_creation_method            fapswitch 2.2
_symmetry_space_group_name_H-M    P1
_symmetry_Int_Tables_number       1
_space_group_crystal_system       triclinic
_cell_length_a                    9.545546
_cell_length_b                    10.83763
_cell_length_c                    17.036134
_cell_angle_alpha                 88.799337
_cell_angle_beta                  93.267639
_cell_angle_gamma                 89.555133
_cell_volume                      1759.08417578

loop_
_atom_site_label
_atom_site_type_symbol
_atom_type_description
_atom_site_fract_x
_atom_site_fract_y
_atom_site_fract_z
_atom_type_partial_charge
C1    C     C_R   0.500357 0.262398 0.498120 0.549366
C2    C     C_R   0.500440 0.129629 0.489966 -0.003617
C3    C     C_R   0.373101 0.066359 0.478291 -0.160762
C4    C     C_R   0.516717 0.500579 0.650979 0.560851
C5    C     C_R   0.372298 0.937738 0.479689 -0.159852
C6    C     C_R   0.498540 0.871194 0.493336 0.001366
C7    C     C_R   0.624763 0.935201 0.495793 0.004572
C8    C     C_3   0.745923 0.927650 0.555442 -0.238574
C9    C     C_3   0.752685 0.067700 0.548226 -0.105926
C10   C     C_R   0.066640 0.545605 0.436655 0.141115
C11   C     C_R   0.079456 0.438371 0.557187 0.070844
C12   C     C_R   0.653484 0.499170 0.780021 -0.164357
C13   C     C_R   0.931015 0.442197 0.558295 -0.039945
C14   C     C_R   0.919516 0.543928 0.436072 0.159448
C15   C     C_3   0.907647 0.670026 0.399650 -0.276268
C16   C     C_R   0.499483 0.737744 0.499504 0.548350
C17   C     C_3   0.066986 0.672740 0.401882 -0.279958
C18   C     C_R   0.483095 0.497805 0.349217 0.538495
C19   C     C_R   0.524438 0.510661 0.736849 -0.003569
C20   C     C_R   0.402792 0.538601 0.775689 -0.124653
C21   C     C_R   0.408343 0.554348 0.857065 0.044886
C22   C     C_R   0.538819 0.538175 0.900296 0.232906
C23   C     C_R   0.574834 0.553375 0.141243 -0.101035
C24   C     C_R   0.660321 0.513291 0.861123 -0.119952
C25   C     C_3   0.886075 0.118125 0.511581 -0.266271
C26   C     C_3   0.915118 0.070752 0.429764 -0.424683
C27   C     C_1   0.154832 0.362802 0.616040 0.215919
C28   C     C_3   0.273029 0.337217 0.266256 -0.261652
C29   C     C_3   0.190435 0.241726 0.218089 -0.463301
C30   C     C_3   0.275809 0.594722 0.894508 -0.259329
C31   C     C_3   0.172679 0.488318 0.900233 -0.427429
C32   C     C_R   0.573740 0.557926 0.222406 -0.171087
C33   C     C_R   0.476589 0.480778 0.098879 0.197035
C34   C     C_R   0.475250 0.490752 0.263218 0.009168
C35   C     C_R   0.376364 0.415154 0.221747 -0.015235
C36   C     C_R   0.378896 0.412499 0.139197 -0.087632
C37   C     C_R   0.626377 0.062492 0.491870 0.038972
Cu1   Cu    Cu3+1 0.640670 0.499980 0.500000 0.928049
Cu2   Cu    Cu3+1 0.359330 0.500020 0.500000 0.945825
H1    H     H_    0.649877 0.615245 0.253582 0.116456
H2    H     H_    0.652611 0.606855 0.112002 0.137305
H3    H     H_    0.112105 0.740912 0.443606 0.138276
H4    H     H_    0.760424 0.502768 0.893957 0.116414
H5    H     H_    0.749080 0.479069 0.751219 0.126975
H6    H     H_    0.305004 0.357777 0.104706 0.119349
H7    H     H_    0.303357 0.551695 0.742456 0.137497
H8    H     H_    0.273760 0.115563 0.471840 0.136037
H9    H     H_    0.935752 0.969935 0.431298 0.137709
H10   H     H_    0.825838 0.092660 0.387001 0.164259
H11   H     H_    0.009738 0.117064 0.408661 0.125165
H12   H     H_    0.272691 0.891334 0.473754 0.124154
H13   H     H_    0.875700 0.219612 0.506406 0.171496
H14   H     H_    0.978426 0.096936 0.552447 0.143929
H15   H     H_    0.117673 0.288051 0.173355 0.147593
H16   H     H_    0.263019 0.178689 0.189234 0.155230
H17   H     H_    0.126569 0.185623 0.257775 0.138017
H18   H     H_    0.331977 0.285835 0.314925 0.158048
H19   H     H_    0.196060 0.399513 0.292277 0.167952
H20   H     H_    0.140282 0.455089 0.840736 0.153246
H21   H     H_    0.221115 0.410616 0.935926 0.176753
H22   H     H_    0.077634 0.520327 0.928812 0.128555
H23   H     H_    0.713494 0.894937 0.613957 0.123254
H24   H     H_    0.298711 0.632343 0.953902 0.178256
H25   H     H_    0.224938 0.671220 0.858588 0.125011
H26   H     H_    0.838256 0.877769 0.535057 0.135464
H27   H     H_    0.729852 0.114014 0.603840 0.128372
H28   H     H_    0.879103 0.395946 0.605375 0.112453
H29   H     H_    0.858820 0.668906 0.338917 0.117328
H30   H     H_    0.861370 0.738139 0.438418 0.147295
H31   H     H_    0.109677 0.675159 0.342523 0.128139
N1    N     N_2   0.551267 0.546358 0.982917 -0.266179
N2    N     N_2   0.471235 0.473876 0.015722 -0.250615
N3    N     N_R   0.147870 0.500930 0.499500 -0.242987
N4    N     N_R   0.851960 0.500890 0.499500 -0.240727
N5    N     N_1   0.214091 0.301034 0.663462 -0.321304
O1    O     O_R   0.618810 0.319640 0.500000 -0.506272
O2    O     O_R   0.381230 0.319680 0.499990 -0.500609
O3    O     O_R   0.631790 0.498830 0.613930 -0.511915
O4    O     O_R   0.394210 0.498870 0.613920 -0.487374
O5    O     O_R   0.618770 0.680320 0.500010 -0.501020
O6    O     O_R   0.381190 0.680360 0.500000 -0.507488
O7    O     O_R   0.605790 0.501130 0.386080 -0.497608
O8    O     O_R   0.368210 0.501170 0.386070 -0.513969

loop_
_geom_bond_atom_site_label_1
_geom_bond_atom_site_label_2
_ccdc_geom_bond_type
C30   H25   S    
C1    O2    A    
C31   H22   S    
C35   C36   A    
C9    C25   S    
C7    C8    S    
Cu1   O1    S    
C28   H18   S    
Cu2   O2    S    
C28   C29   S    
C25   H14   S    
C34   C35   A    
C26   H11   S    
Cu1   N4    S    
Cu1   Cu2   S    
C10   N3    A    
C29   H15   S    
C10   C17   S    
C33   C36   A    
C1    C2    S    
C31   H20   S    
C17   H3    S    
C33   N2    S    
C9    H27   S    
C4    C19   S    
C19   C20   A    
C28   C35   S    
C8    C9    S    
C23   C33   A    
C26   H9    S    
C32   H1    S    
C17   H31   S    
C21   C22   A    
Cu1   O7    S    
C27   N5    T    
C15   H30   S    
Cu2   O6    S    
C4    O4    A    
C11   N3    A    
C26   H10   S    
C29   H16   S    
C25   C26   S    
C16   O5    A    
Cu2   O4    S    
C31   H21   S    
C4    O3    A    
C11   C27   S    
C30   C31   S    
C9    C37   S    
C18   O8    A    
C7    C37   A    
C36   H6    S    
C13   N4    A    
C18   C34   S    
C10   C14   A    
C22   C24   A    
C14   N4    A    
C22   N1    S    
C13   H28   S    
C15   C17   S    
C1    O1    A    
C3    C5    A    
C6    C7    A    
C29   H17   S    
C28   H19   S    
Cu1   O3    S    
C21   C30   S    
C12   C24   A    
C23   H2    S    
C23   C32   A    
C2    C3    A    
C25   H13   S    
Cu2   O8    S    
N1    N2    D    
C12   H5    S    
C11   C13   A    
C2    C37   A    
C5    C6    A    
Cu1   O5    S    
C15   H29   S    
C12   C19   A    
C3    H8    S    
C16   O6    A    
C18   O7    A    
Cu2   N3    S    
C6    C16   S    
C8    H26   S    
C20   C21   A    
C8    H23   S    
C24   H4    S    
C14   C15   S    
C5    H12   S    
C30   H24   S    
C20   H7    S    
C32   C34   A    
