data_mof_unit_53492.cif
_audit_creation_date              2012-12-11T15:37:13-0500
_audit_creation_method            fapswitch 2.2
_symmetry_space_group_name_H-M    P1
_symmetry_Int_Tables_number       1
_space_group_crystal_system       triclinic
_cell_length_a                    17.457933
_cell_length_b                    24.308622
_cell_length_c                    15.043528
_cell_angle_alpha                 90.329543
_cell_angle_beta                  126.138159
_cell_angle_gamma                 89.130005
_cell_volume                      5155.18477186

loop_
_atom_site_label
_atom_site_type_symbol
_atom_type_description
_atom_site_fract_x
_atom_site_fract_y
_atom_site_fract_z
_atom_type_partial_charge
C1    C     C_R   0.854455 0.653892 0.907806 -0.124485
C2    C     C_R   0.192110 0.375818 0.093676 -0.111625
C3    C     C_R   0.190388 0.624082 0.092795 -0.095569
C4    C     C_R   0.856850 0.345662 0.911590 -0.152883
C5    C     C_R   0.354940 0.153981 0.908009 -0.124442
C6    C     C_R   0.692577 0.876463 0.093675 -0.125959
C7    C     C_R   0.690074 0.124545 0.092799 -0.091195
C8    C     C_R   0.356787 0.845683 0.911226 -0.152350
C9    C     C_3   0.389784 0.500502 0.471166 -0.169632
C10   C     C_3   0.572306 0.502228 0.641977 -0.160962
C11   C     C_3   0.889518 0.001538 0.469649 -0.152399
C12   C     C_3   0.071984 0.001126 0.640138 -0.157518
C13   C     C_R   0.826561 0.221755 0.940231 0.021547
C14   C     C_R   0.267837 0.727796 0.077650 0.036496
C15   C     C_R   0.352532 0.317591 0.101065 0.040142
C16   C     C_R   0.795995 0.774824 0.898116 0.035272
C17   C     C_R   0.325526 0.721703 0.938165 0.024837
C18   C     C_R   0.764388 0.229031 0.075236 0.037552
C19   C     C_R   0.852634 0.817694 0.100907 0.042477
C20   C     C_R   0.296046 0.274674 0.898368 0.036196
C21   C     C_R   0.271426 0.679691 0.936937 -0.247194
C22   C     C_R   0.820448 0.269249 0.079198 -0.254378
C23   C     C_R   0.898990 0.771613 0.096935 -0.251663
C24   C     C_R   0.247454 0.319314 0.902655 -0.235782
C25   C     C_R   0.772314 0.179757 0.938605 -0.238957
C26   C     C_R   0.323799 0.767948 0.081189 -0.254675
C27   C     C_R   0.399165 0.271611 0.097224 -0.252113
C28   C     C_R   0.747655 0.819615 0.902501 -0.235268
C29   C     C_R   0.242509 0.683031 0.005986 0.110464
C30   C     C_R   0.849610 0.266555 0.010705 0.115489
C31   C     C_R   0.864016 0.745836 0.996431 0.109886
C32   C     C_R   0.267110 0.336250 0.003101 0.116543
C33   C     C_R   0.741341 0.183671 0.005551 0.105823
C34   C     C_R   0.350583 0.765979 0.010366 0.115206
C35   C     C_R   0.364201 0.245779 0.996754 0.110629
C36   C     C_R   0.767391 0.836598 0.002989 0.116860
C37   C     C_R   0.861368 0.478391 0.440030 -0.121312
C38   C     C_R   0.026202 0.522766 0.479036 -0.097104
C39   C     C_R   0.873131 0.478175 0.356889 -0.201772
C40   C     C_R   0.014352 0.523321 0.560928 -0.209747
C41   C     C_R   0.515485 0.977630 0.562308 -0.208745
C42   C     C_R   0.373375 0.023664 0.357778 -0.202673
C43   C     C_R   0.528894 0.979478 0.481712 -0.090022
C44   C     C_R   0.360199 0.022368 0.439739 -0.120664
C45   C     C_R   0.955031 0.501044 0.377300 0.148609
C46   C     C_R   0.931872 0.501605 0.540752 0.112677
C47   C     C_R   0.457237 0.001536 0.379655 0.143197
C48   C     C_R   0.431121 0.998646 0.540640 0.107786
C49   C     C_R   0.950070 0.348204 0.093631 -0.159559
C50   C     C_R   0.094003 0.627359 0.907781 -0.153889
C51   C     C_R   0.099530 0.377584 0.909343 -0.140653
C52   C     C_R   0.948208 0.653741 0.089295 -0.139408
C53   C     C_R   0.450738 0.847878 0.093136 -0.162224
C54   C     C_R   0.593721 0.127531 0.907669 -0.148178
C55   C     C_R   0.599649 0.877757 0.909329 -0.138303
C56   C     C_R   0.447817 0.153563 0.089623 -0.141640
C57   C     C_R   0.991564 0.546580 0.260678 0.036478
C58   C     C_R   0.945769 0.454704 0.693336 0.009479
C59   C     C_R   0.945369 0.546064 0.694282 0.007315
C60   C     C_R   0.992813 0.454231 0.262103 0.042878
C61   C     C_R   0.492876 0.046743 0.262260 0.049880
C62   C     C_R   0.444522 0.954230 0.693650 0.003623
C63   C     C_R   0.445348 0.045531 0.693432 0.016788
C64   C     C_R   0.493672 0.954440 0.262913 0.035790
C65   C     C_R   0.730310 0.455653 0.748474 0.089306
C66   C     C_R   0.247926 0.545144 0.308092 -0.000110
C67   C     C_R   0.250924 0.454207 0.307356 0.023342
C68   C     C_R   0.730932 0.546878 0.746295 0.060774
C69   C     C_R   0.230370 0.955181 0.746596 0.090429
C70   C     C_R   0.747861 0.045757 0.307223 -0.005208
C71   C     C_R   0.750012 0.954770 0.308667 0.017378
C72   C     C_R   0.230610 0.046466 0.746116 0.060922
C73   C     C_R   0.887091 0.686773 0.997564 0.060859
C74   C     C_R   0.191072 0.364404 0.002518 0.061867
C75   C     C_R   0.182359 0.641643 0.000998 0.064036
C76   C     C_R   0.890450 0.315792 0.004838 0.084046
C77   C     C_R   0.387212 0.186725 0.997889 0.061039
C78   C     C_R   0.691392 0.864863 0.002460 0.071309
C79   C     C_R   0.681890 0.142012 0.000853 0.065311
C80   C     C_R   0.390873 0.815528 0.004273 0.084769
C81   C     C_R   0.969222 0.500739 0.294004 -0.008591
C82   C     C_R   0.926103 0.500713 0.630511 0.102458
C83   C     C_R   0.471235 0.000985 0.296188 -0.009676
C84   C     C_R   0.424713 0.999689 0.629922 0.104182
C85   C     C_R   0.674047 0.502050 0.721937 0.065358
C86   C     C_R   0.293482 0.499674 0.372244 0.126747
C87   C     C_R   0.173735 0.001280 0.720131 0.059679
C88   C     C_R   0.792709 0.000607 0.372098 0.152292
C89   C     C_3   0.501030 0.458082 0.620829 -0.118859
C90   C     C_3   0.461565 0.544884 0.493204 -0.140978
C91   C     C_3   0.464615 0.455634 0.500307 -0.117891
C92   C     C_3   0.498157 0.547267 0.614239 -0.125370
C93   C     C_3   0.000756 0.955690 0.613688 -0.118526
C94   C     C_3   0.961059 0.047068 0.496718 -0.142855
C95   C     C_3   0.964123 0.957743 0.493131 -0.120622
C96   C     C_3   0.997847 0.044956 0.617885 -0.121736
C97   C     C_3   0.426456 0.503010 0.592844 0.608363
C98   C     C_3   0.534508 0.499731 0.519708 0.607105
C99   C     C_3   0.926365 0.999435 0.591270 0.558744
C100  C     C_3   0.033937 0.003057 0.517739 0.609664
H1    H     H_    0.823186 0.667759 0.825775 0.112832
H2    H     H_    0.249293 0.370802 0.178863 0.113419
H3    H     H_    0.250826 0.628460 0.177202 0.097576
H4    H     H_    0.820858 0.328672 0.830157 0.095075
H5    H     H_    0.324536 0.167939 0.826203 0.112928
H6    H     H_    0.750538 0.872380 0.179023 0.111629
H7    H     H_    0.750101 0.129542 0.177218 0.098851
H8    H     H_    0.320920 0.828879 0.829669 0.094894
H9    H     H_    0.999063 0.332919 0.176345 0.098851
H10   H     H_    0.065673 0.637179 0.823830 0.098815
H11   H     H_    0.074030 0.373761 0.824909 0.095270
H12   H     H_    0.000225 0.669396 0.170378 0.086286
H13   H     H_    0.500630 0.832244 0.175388 0.096821
H14   H     H_    0.565181 0.137436 0.823689 0.101726
H15   H     H_    0.574104 0.873888 0.824865 0.090904
H16   H     H_    0.499150 0.168983 0.171126 0.086354
H17   H     H_    0.250892 0.645186 0.881544 0.136674
H18   H     H_    0.835168 0.304873 0.130513 0.126011
H19   H     H_    0.958265 0.754386 0.173992 0.120042
H20   H     H_    0.189888 0.337647 0.825761 0.123444
H21   H     H_    0.753432 0.144760 0.884704 0.146790
H22   H     H_    0.339992 0.803113 0.133990 0.126872
H23   H     H_    0.458622 0.254496 0.174288 0.120232
H24   H     H_    0.690220 0.838062 0.825655 0.120633
H25   H     H_    0.798624 0.460830 0.426533 0.167132
H26   H     H_    0.090980 0.538602 0.495097 0.178265
H27   H     H_    0.819334 0.460567 0.277539 0.128407
H28   H     H_    0.070165 0.539717 0.640749 0.133861
H29   H     H_    0.571557 0.960926 0.642362 0.138327
H30   H     H_    0.318962 0.041289 0.278051 0.131837
H31   H     H_    0.594858 0.963945 0.498679 0.184364
H32   H     H_    0.296078 0.039552 0.425251 0.171017
N1    N     N_R   0.892620 0.603790 0.941800 -0.048144
N2    N     N_R   0.107380 0.396210 0.058200 -0.040874
N3    N     N_R   0.107380 0.603790 0.058200 -0.042262
N4    N     N_R   0.892620 0.396210 0.941800 -0.049303
N5    N     N_R   0.392620 0.103790 0.941800 -0.048402
N6    N     N_R   0.607380 0.896210 0.058200 -0.043663
N7    N     N_R   0.607380 0.103790 0.058200 -0.042291
N8    N     N_R   0.392620 0.896210 0.941800 -0.048920
N9    N     N_R   0.952210 0.397600 0.057910 -0.040167
N10   N     N_R   0.047790 0.602400 0.942090 -0.043460
N11   N     N_R   0.047790 0.397600 0.942090 -0.042688
N12   N     N_R   0.952210 0.602400 0.057910 -0.041776
N13   N     N_R   0.452210 0.897600 0.057910 -0.040065
N14   N     N_R   0.547790 0.102400 0.942090 -0.044403
N15   N     N_R   0.547790 0.897600 0.942090 -0.041582
N16   N     N_R   0.452210 0.102400 0.057910 -0.043050
N17   N     N_R   0.026300 0.529110 0.206760 -0.057887
N18   N     N_R   0.973700 0.470890 0.793240 -0.064012
N19   N     N_R   0.973700 0.529110 0.793240 -0.064237
N20   N     N_R   0.026300 0.470890 0.206760 -0.061383
N21   N     N_R   0.526300 0.029110 0.206760 -0.059947
N22   N     N_R   0.473700 0.970890 0.793240 -0.064652
N23   N     N_R   0.473700 0.029110 0.793240 -0.063064
N24   N     N_R   0.526300 0.970890 0.206760 -0.059023
N25   N     N_R   0.818530 0.472270 0.792960 -0.065603
N26   N     N_R   0.181470 0.527730 0.207040 -0.055924
N27   N     N_R   0.181470 0.472270 0.207040 -0.056397
N28   N     N_R   0.818530 0.527730 0.792960 -0.059464
N29   N     N_R   0.318530 0.972270 0.792960 -0.066427
N30   N     N_R   0.681470 0.027730 0.207040 -0.054235
N31   N     N_R   0.681470 0.972270 0.207040 -0.061774
N32   N     N_R   0.318530 0.027730 0.792960 -0.059715
Ni1   Ni    Ni4+2 0.934150 0.565840 0.869060 0.208811
Ni2   Ni    Ni4+2 0.065850 0.434160 0.130940 0.211360
Ni3   Ni    Ni4+2 0.065850 0.565840 0.130940 0.210276
Ni4   Ni    Ni4+2 0.934150 0.434160 0.869060 0.208664
Ni5   Ni    Ni4+2 0.434150 0.065840 0.869060 0.209460
Ni6   Ni    Ni4+2 0.565850 0.934160 0.130940 0.206681
Ni7   Ni    Ni4+2 0.565850 0.065840 0.130940 0.211375
Ni8   Ni    Ni4+2 0.434150 0.934160 0.869060 0.207892
N33   N     N_3   0.006950 0.599717 0.309162 -0.218282
H33   H     H_    0.065648 0.617346 0.319011 0.117164
H34   H     H_    0.946079 0.623807 0.257404 0.110343
N34   N     N_3   0.906167 0.402041 0.647416 -0.194658
H35   H     H_    0.903926 0.379216 0.704492 0.105472
H36   H     H_    0.952036 0.381579 0.634763 0.092520
N35   N     N_3   0.904122 0.599136 0.649351 -0.184852
H37   H     H_    0.900694 0.621424 0.706541 0.100580
H38   H     H_    0.949436 0.619774 0.637373 0.094788
N36   N     N_3   0.016550 0.402860 0.318967 -0.200617
H39   H     H_    0.074185 0.384829 0.325146 0.118226
H40   H     H_    0.957422 0.377624 0.274565 0.090432
N37   N     N_3   0.512034 0.099154 0.314307 -0.200986
H41   H     H_    0.569532 0.116585 0.321120 0.119548
H42   H     H_    0.451659 0.124069 0.265590 0.099531
N38   N     N_3   0.404434 0.901477 0.648963 -0.184679
H43   H     H_    0.403758 0.878902 0.707402 0.102866
H44   H     H_    0.449197 0.880747 0.634883 0.091254
N39   N     N_3   0.404752 0.098603 0.647866 -0.195521
H45   H     H_    0.400141 0.121028 0.704062 0.101525
H46   H     H_    0.451087 0.118979 0.637223 0.098865
N40   N     N_3   0.512665 0.901907 0.314638 -0.216025
H47   H     H_    0.571060 0.883526 0.323103 0.119482
H48   H     H_    0.452311 0.877936 0.266333 0.097786
N41   N     N_3   0.694760 0.403667 0.695963 -0.185860
H49   H     H_    0.743167 0.385196 0.685197 0.129860
H50   H     H_    0.686608 0.379143 0.746397 0.100097
N42   N     N_3   0.234798 0.594886 0.349768 -0.210971
H51   H     H_    0.250465 0.628488 0.320834 0.070131
H52   H     H_    0.282104 0.595543 0.435504 0.163426
N43   N     N_3   0.242741 0.403231 0.348574 -0.221992
H53   H     H_    0.285685 0.373458 0.347481 0.092409
H54   H     H_    0.267244 0.407954 0.430443 0.161686
N44   N     N_3   0.700287 0.600579 0.697630 -0.227849
H55   H     H_    0.747513 0.613386 0.680995 0.124352
H56   H     H_    0.636820 0.597585 0.619450 0.153825
N45   N     N_3   0.195942 0.903544 0.691935 -0.184275
H57   H     H_    0.245595 0.885855 0.682422 0.126321
H58   H     H_    0.187234 0.878090 0.740777 0.099801
N46   N     N_3   0.733838 0.095750 0.347407 -0.214229
H59   H     H_    0.757454 0.128819 0.326418 0.068507
H60   H     H_    0.773915 0.094617 0.433211 0.161202
N47   N     N_3   0.738532 0.906340 0.353548 -0.194647
H61   H     H_    0.712485 0.874671 0.296053 0.082603
H62   H     H_    0.804163 0.893277 0.423126 0.141437
N48   N     N_3   0.200202 0.100883 0.701348 -0.226994
H63   H     H_    0.244339 0.113624 0.680049 0.130468
H64   H     H_    0.134018 0.099453 0.625888 0.151616
S1    S     S_3+6 0.356311 0.505140 0.643640 -0.080468
O1    O     O_2   0.296458 0.556765 0.604323 -0.333050
O2    O     O_2   0.293291 0.455880 0.603211 -0.338055
O3    O     O_3   0.428734 0.504521 0.781952 -0.549940
H65   H     H_    0.385818 0.505627 0.804713 0.373179
S2    S     S_3+6 0.596824 0.496470 0.458188 -0.083484
O4    O     O_2   0.662031 0.544397 0.493690 -0.317473
O5    O     O_2   0.653571 0.443835 0.490566 -0.342682
O6    O     O_3   0.516772 0.498282 0.320612 -0.558774
H66   H     H_    0.554469 0.493587 0.291255 0.372337
S3    S     S_3+6 0.853959 0.996795 0.638881 -0.059267
O7    O     O_2   0.789303 0.046405 0.598243 -0.282431
O8    O     O_2   0.794934 0.945818 0.595919 -0.352605
O9    O     O_3   0.923112 0.996263 0.777284 -0.517566
H67   H     H_    0.939800 0.957057 0.798527 0.339706
S4    S     S_3+6 0.096519 0.003828 0.456560 -0.083248
O10   O     O_2   0.155719 0.054445 0.489882 -0.331007
O11   O     O_2   0.159415 0.953634 0.491686 -0.328618
O12   O     O_3   0.016760 0.003632 0.318914 -0.557966
H68   H     H_    0.055068 0.001667 0.289981 0.373794
N49   N     N_3   0.521376 0.410289 0.689804 -0.206642
H69   H     H_    0.457546 0.389875 0.655905 0.149149
H70   H     H_    0.543426 0.424732 0.766972 0.163992
N50   N     N_3   0.449162 0.593025 0.428176 -0.180524
H71   H     H_    0.413821 0.623830 0.439968 0.093303
H72   H     H_    0.407986 0.582101 0.345166 0.164726
N51   N     N_3   0.450702 0.404581 0.441867 -0.218038
H73   H     H_    0.515740 0.383483 0.484123 0.153786
H74   H     H_    0.433482 0.415165 0.364837 0.165956
N52   N     N_3   0.512102 0.596799 0.677218 -0.166391
H75   H     H_    0.529049 0.629296 0.646985 0.105770
H76   H     H_    0.569955 0.589687 0.758806 0.150003
N53   N     N_3   0.020748 0.905376 0.676354 -0.206835
H77   H     H_    0.956420 0.885479 0.642015 0.142585
H78   H     H_    0.046028 0.916763 0.756273 0.118599
N54   N     N_3   0.949069 0.097788 0.438207 -0.182910
H79   H     H_    0.915388 0.127118 0.455473 0.096708
H80   H     H_    0.907014 0.089837 0.353845 0.158742
N55   N     N_3   0.948745 0.909229 0.427444 -0.221393
H81   H     H_    0.013956 0.888754 0.464696 0.155505
H82   H     H_    0.928493 0.923024 0.350704 0.169193
N56   N     N_3   0.012203 0.091780 0.687121 -0.164949
H83   H     H_    0.030173 0.126030 0.661864 0.105953
H84   H     H_    0.069640 0.082357 0.767783 0.146172
N57   N     N_3   0.857699 0.219111 0.870991 -0.220348
H85   H     H_    0.797710 0.216242 0.789399 0.112179
H86   H     H_    0.897857 0.182953 0.890098 0.139664
N58   N     N_3   0.231337 0.734814 0.141175 -0.221103
H87   H     H_    0.288753 0.737957 0.224133 0.098433
H88   H     H_    0.192648 0.771820 0.117492 0.115491
N59   N     N_3   0.391557 0.343804 0.204547 -0.226779
H89   H     H_    0.398210 0.314512 0.259469 0.091152
H90   H     H_    0.459650 0.357046 0.235100 0.140122
N60   N     N_3   0.772661 0.758696 0.793317 -0.232292
H91   H     H_    0.700242 0.750047 0.741362 0.100954
H92   H     H_    0.784948 0.792008 0.759798 0.125290
N61   N     N_3   0.354410 0.719599 0.866705 -0.220431
H93   H     H_    0.293399 0.717350 0.785658 0.109627
H94   H     H_    0.393788 0.683303 0.883725 0.135686
N62   N     N_3   0.725768 0.236364 0.136458 -0.220670
H95   H     H_    0.782118 0.240184 0.219741 0.097577
H96   H     H_    0.686330 0.273132 0.110873 0.115246
N63   N     N_3   0.891790 0.843728 0.204555 -0.227803
H97   H     H_    0.897999 0.814406 0.259170 0.092878
H98   H     H_    0.960071 0.856715 0.235367 0.137298
N64   N     N_3   0.272726 0.258556 0.793569 -0.232086
H99   H     H_    0.200363 0.249755 0.741687 0.101271
H100  H     H_    0.284784 0.291915 0.759932 0.127720

loop_
_geom_bond_atom_site_label_1
_geom_bond_atom_site_label_2
_ccdc_geom_bond_type
C16   C28   A    
N40   H48   S    
N43   H53   S    
N50   H72   S    
N7    N14   A    
C6    N6    A    
C39   C45   A    
C58   N34   S    
C90   N50   S    
N6    Ni6   S    
C70   N46   S    
C62   N22   A    
N5    N16   A    
C19   C23   A    
O12   H68   S    
N17   Ni3   S    
C59   C82   A    
C70   C88   A    
O3    H65   S    
C9    C91   S    
C49   N9    A    
N39   H46   S    
N37   H41   S    
C15   C32   A    
C10   C85   S    
C5    H5    S    
N33   H33   S    
S4    O10   D    
C16   C31   A    
C95   N55   S    
N43   H54   S    
N9    Ni2   S    
N4    N9    A    
C62   N38   S    
C71   N31   A    
N38   H44   S    
N20   Ni2   S    
C38   C40   A    
C69   N29   A    
N60   H91   S    
S1    O3    S    
N1    Ni1   S    
C19   C36   A    
N47   H62   S    
C32   C74   S    
N53   H77   S    
N44   H56   S    
N37   H42   S    
N63   H98   S    
C52   H12   S    
C11   C95   S    
N59   H89   S    
C40   H28   S    
C96   C99   S    
C8    H8    S    
C18   C33   A    
C50   H10   S    
N16   Ni7   S    
N50   H71   S    
N64   H100  S    
C11   C99   S    
N49   H69   S    
C60   N20   A    
N24   Ni6   S    
C10   C98   S    
N31   Ni6   S    
N36   H39   S    
C38   C45   A    
C21   H17   S    
C34   C80   S    
N2    N11   A    
C46   C82   S    
N29   Ni8   S    
N48   H64   S    
C26   C34   A    
N3    N10   A    
N30   Ni7   S    
C20   C24   A    
C10   C89   S    
C97   S1    S    
N42   H51   S    
N1    N12   A    
C2    N2    A    
C64   N40   S    
C92   C97   S    
C51   H11   S    
N2    Ni2   S    
N7    Ni7   S    
C89   N49   S    
C47   C83   S    
C89   C91   S    
C3    C75   A    
N57   H85   S    
C11   C88   S    
N5    Ni5   S    
C69   C87   A    
C4    N4    A    
C93   C99   S    
C62   C84   A    
N34   H36   S    
N40   H47   S    
C10   C92   S    
C93   C95   S    
C18   C22   A    
N61   H93   S    
C7    H7    S    
C68   C85   A    
C20   C35   A    
C13   C25   A    
N32   Ni5   S    
C93   N53   S    
C42   C44   A    
C15   N59   S    
C70   N30   A    
N25   Ni4   S    
C61   N37   S    
N29   N32   A    
C38   H26   S    
C53   H13   S    
N26   Ni3   S    
S4    O12   S    
C37   H25   S    
N51   H74   S    
C60   N36   S    
C90   C92   S    
C37   C39   A    
C91   N51   S    
C1    N1    A    
C3    N3    A    
C24   H20   S    
N12   Ni3   S    
C68   N28   A    
N39   H45   S    
C13   C30   A    
N46   H60   S    
C53   C80   A    
C39   H27   S    
N62   H95   S    
C58   C82   A    
C65   N25   A    
C52   C73   A    
C61   C83   A    
N17   N20   A    
N53   H78   S    
C55   C78   A    
C27   H23   S    
C95   C100  S    
C33   C79   S    
C57   N17   A    
N56   H84   S    
N4    Ni4   S    
C27   C35   A    
N52   H75   S    
N19   Ni1   S    
C21   C29   A    
C35   C77   S    
C50   N10   A    
C17   C21   A    
C56   C77   A    
C48   C84   S    
C51   C74   A    
N54   H80   S    
N38   H43   S    
N49   H70   S    
C23   C31   A    
C56   N16   A    
C40   C46   A    
N47   H61   S    
C24   C32   A    
C64   C83   A    
O6    H66   S    
C94   N54   S    
C9    C86   S    
C41   H29   S    
S1    O1    D    
C30   C76   S    
C60   C81   A    
N23   Ni5   S    
C15   C27   A    
C17   N61   S    
C2    H2    S    
C94   C100  S    
N6    N15   A    
N18   Ni4   S    
N54   H79   S    
N21   Ni7   S    
C53   N13   A    
N45   H57   S    
C56   H16   S    
C49   C76   A    
N22   Ni8   S    
C42   H30   S    
C20   N64   S    
N28   Ni1   S    
C14   C26   A    
N41   H50   S    
C94   C96   S    
C6    H6    S    
N22   N23   A    
N56   H83   S    
N33   H34   S    
C52   N12   A    
C57   N33   S    
C55   N15   A    
C11   C94   S    
C16   N60   S    
N34   H35   S    
S3    O7    D    
C31   C73   S    
N58   H88   S    
N25   N28   A    
S2    O5    D    
C25   H21   S    
N61   H94   S    
C68   N44   S    
N26   N27   A    
C4    C76   A    
C65   N41   S    
C12   C93   S    
C100  S4    S    
C69   N45   S    
O9    H67   S    
C14   C29   A    
C5    C77   A    
N55   H81   S    
C1    H1    S    
C66   N26   A    
C72   C87   A    
C72   N48   S    
N15   Ni8   S    
C7    C79   A    
N30   N31   A    
C3    H3    S    
N59   H90   S    
C22   H18   S    
N13   Ni6   S    
C67   C86   A    
C96   N56   S    
C22   C30   A    
C12   C87   S    
N44   H55   S    
C45   C81   S    
C41   C43   A    
N62   H96   S    
C43   C47   A    
N55   H82   S    
C54   C79   A    
C13   N57   S    
C9    C90   S    
C66   C86   A    
C99   S3    S    
N51   H73   S    
C28   H24   S    
C65   C85   A    
C72   N32   A    
C29   C75   S    
C59   N19   A    
N35   H37   S    
C44   H32   S    
S2    O6    S    
C19   N63   S    
C64   N24   A    
N8    N13   A    
N27   Ni2   S    
C54   N14   A    
C63   C84   A    
C8    N8    A    
C1    C73   A    
C92   N52   S    
C14   N58   S    
N58   H87   S    
C59   N35   S    
C18   N62   S    
C49   H9    S    
C63   N23   A    
C5    N5    A    
S1    O2    D    
N57   H86   S    
C36   C78   S    
C50   C75   A    
N10   Ni1   S    
C7    N7    A    
N21   N24   A    
N48   H63   S    
N64   H99   S    
C55   H15   S    
C71   N47   S    
C54   H14   S    
C43   H31   S    
N45   H58   S    
C41   C48   A    
S4    O11   D    
C4    H4    S    
S3    O9    S    
N60   H92   S    
C42   C47   A    
C51   N11   A    
C91   C98   S    
N41   H49   S    
C57   C81   A    
N36   H40   S    
N11   Ni4   S    
C12   C100  S    
C6    C78   A    
S3    O8    D    
C71   C88   A    
C9    C97   S    
C44   C48   A    
N46   H59   S    
C28   C36   A    
N8    Ni8   S    
S2    O4    D    
C17   C34   A    
N14   Ni5   S    
C89   C97   S    
N63   H97   S    
C8    C80   A    
C67   N43   S    
N3    Ni3   S    
N18   N19   A    
C12   C96   S    
C23   H19   S    
C61   N21   A    
C26   H22   S    
C2    C74   A    
N35   H38   S    
C37   C46   A    
C63   N39   S    
N52   H76   S    
C90   C98   S    
N42   H52   S    
C66   N42   S    
C58   N18   A    
C25   C33   A    
C67   N27   A    
C98   S2    S    
