data_mof_unit_50681.cif
_audit_creation_date              2012-12-10T18:54:29-0500
_audit_creation_method            fapswitch 2.2
_symmetry_space_group_name_H-M    P1
_symmetry_Int_Tables_number       1
_space_group_crystal_system       triclinic
_cell_length_a                    10.702871
_cell_length_b                    9.815249
_cell_length_c                    23.346622
_cell_angle_alpha                 89.884186
_cell_angle_beta                  90.156306
_cell_angle_gamma                 89.948594
_cell_volume                      2452.57888002

loop_
_atom_site_label
_atom_site_type_symbol
_atom_type_description
_atom_site_fract_x
_atom_site_fract_y
_atom_site_fract_z
_atom_type_partial_charge
C1    C     C_R   0.259817 0.500045 0.499953 0.875614
C2    C     C_R   0.740186 0.499962 0.500057 0.870467
C3    C     C_R   0.575962 0.370736 0.243205 -0.135750
C4    C     C_R   0.585221 0.370838 0.756269 -0.132392
C5    C     C_R   0.564837 0.381706 0.301827 -0.226104
C6    C     C_R   0.569396 0.380991 0.697799 -0.225188
C7    C     C_R   0.509557 0.497102 0.326408 -0.124801
C8    C     C_R   0.513467 0.496751 0.673492 -0.123281
C9    C     C_R   0.465717 0.604307 0.290940 -0.054412
C10   C     C_R   0.473823 0.605226 0.709041 -0.061387
C11   C     C_R   0.478121 0.593761 0.230834 0.165235
C12   C     C_R   0.489739 0.594792 0.769029 0.160723
C13   C     C_R   0.532815 0.474797 0.207803 0.295484
C14   C     C_R   0.545419 0.475649 0.791808 0.296651
C15   C     C_R   0.063983 0.378931 0.488261 -0.183002
C16   C     C_R   0.936024 0.621094 0.511777 -0.184883
C17   C     C_R   0.936078 0.378855 0.488354 -0.191141
C18   C     C_R   0.063935 0.621170 0.511686 -0.185288
C19   C     C_R   0.872574 0.499944 0.500090 -0.012291
C20   C     C_R   0.127434 0.500080 0.499940 -0.014018
C21   C     C_R   0.591011 0.071804 0.528321 -0.073512
C22   C     C_R   0.408440 0.928220 0.472097 -0.053608
C23   C     C_R   0.408687 0.072248 0.471902 -0.062480
C24   C     C_R   0.591076 0.927742 0.528275 -0.058663
C25   C     C_R   0.500164 0.499984 0.389046 0.886782
C26   C     C_R   0.500958 0.499789 0.610946 0.886568
C27   C     C_R   0.659540 0.495687 0.880391 0.477988
C28   C     C_R   0.443200 0.399001 0.119141 0.475377
C29   C     C_R   0.456789 0.394425 0.879216 0.514724
C30   C     C_R   0.648956 0.492989 0.120514 0.518161
C31   C     C_R   0.456930 0.383222 0.938662 -0.061156
C32   C     C_R   0.657759 0.481969 0.061143 -0.060494
C33   C     C_R   0.560587 0.431124 0.969796 -0.035296
C34   C     C_R   0.555442 0.430574 0.030002 -0.038003
C35   C     C_R   0.667703 0.482218 0.940693 -0.075035
C36   C     C_R   0.447213 0.382013 0.059017 -0.074682
C37   C     C_R   0.354297 0.326604 0.966910 -0.161726
C38   C     C_R   0.766789 0.522375 0.032918 -0.153056
C39   C     C_R   0.347822 0.321574 0.026836 0.142646
C40   C     C_R   0.775944 0.520011 0.972980 0.140067
H1    H     H_    0.277929 0.288159 0.941381 0.207811
H2    H     H_    0.844574 0.557589 0.058402 0.206591
H3    H     H_    0.617708 0.280205 0.224902 0.147768
H4    H     H_    0.627044 0.279860 0.774394 0.147293
H5    H     H_    0.600152 0.299008 0.328102 0.176103
H6    H     H_    0.601869 0.297501 0.671421 0.171136
H7    H     H_    0.112776 0.284908 0.478734 0.152988
H8    H     H_    0.887226 0.715114 0.521304 0.151700
H9    H     H_    0.887321 0.284797 0.478895 0.156194
H10   H     H_    0.112701 0.715223 0.521150 0.159293
H11   H     H_    0.663599 0.126339 0.551003 0.126061
H12   H     H_    0.334943 0.873721 0.450092 0.143217
H13   H     H_    0.335815 0.127101 0.449399 0.129707
H14   H     H_    0.663717 0.872852 0.550920 0.124638
N1    N     N_R   0.554361 0.454991 0.852092 -0.341589
N2    N     N_R   0.541890 0.455649 0.147492 -0.344419
N3    N     N_R   0.500000 0.857200 0.500000 -0.082105
N4    N     N_R   0.500000 0.142800 0.500000 -0.082406
O1    O     O_R   0.316770 0.614620 0.500000 -0.629011
O2    O     O_R   0.683230 0.385380 0.500000 -0.633960
O3    O     O_R   0.683230 0.614620 0.500000 -0.629871
O4    O     O_R   0.316770 0.385380 0.500000 -0.627671
O5    O     O_R   0.499970 0.614690 0.416160 -0.604368
O6    O     O_R   0.500030 0.385310 0.583840 -0.612831
O7    O     O_R   0.500030 0.614690 0.583840 -0.608779
O8    O     O_R   0.499970 0.385310 0.416160 -0.618272
O9    O     O_2   0.752636 0.552469 0.849843 -0.592956
O10   O     O_2   0.341395 0.363746 0.149584 -0.589894
O11   O     O_2   0.358904 0.347458 0.848413 -0.572373
O12   O     O_2   0.745723 0.542539 0.151298 -0.570597
Zn1   Zn    Zn3+2 0.500000 0.653120 0.500000 0.968369
Zn2   Zn    Zn3+2 0.500000 0.346880 0.500000 0.954612
C41   C     C_3   0.236363 0.252331 0.055765 -0.318840
C42   C     C_3   0.148591 0.170036 0.017126 -0.938311
H15   H     H_    0.096999 0.238005 0.987225 0.265831
H16   H     H_    0.201747 0.092064 0.992817 0.271521
H17   H     H_    0.078520 0.116634 0.044024 0.268897
H18   H     H_    0.272816 0.179008 0.088086 0.246216
H19   H     H_    0.178969 0.330961 0.077554 0.248587
C43   C     C_3   0.899863 0.556324 0.944109 -0.315253
C44   C     C_3   0.014712 0.568085 0.983137 -0.938051
H20   H     H_    0.007071 0.658960 0.011177 0.266877
H21   H     H_    0.026164 0.474639 0.009504 0.271074
H22   H     H_    0.099772 0.580376 0.956458 0.267991
H23   H     H_    0.922311 0.475172 0.912623 0.246197
H24   H     H_    0.889320 0.655088 0.921277 0.249122
C45   C     C_1   0.403065 0.721393 0.315366 0.196558
N5    N     N_1   0.352770 0.815152 0.334534 -0.219112
C46   C     C_1   0.414588 0.724943 0.684633 0.194636
N6    N     N_1   0.367303 0.820593 0.665183 -0.192679
C47   C     C_3   0.432853 0.707479 0.191492 -0.406640
C48   C     C_3   0.526073 0.825056 0.189949 -0.822788
H25   H     H_    0.538973 0.869392 0.233260 0.262721
H26   H     H_    0.617769 0.788992 0.173773 0.285527
H27   H     H_    0.490834 0.906130 0.160840 0.248810
H28   H     H_    0.418602 0.671231 0.146995 0.212594
H29   H     H_    0.340189 0.745315 0.205758 0.217764
C49   C     C_3   0.447935 0.709119 0.808538 -0.420356
C50   C     C_3   0.307267 0.704449 0.819189 -0.800998
H30   H     H_    0.254485 0.713791 0.778393 0.266027
H31   H     H_    0.281122 0.607582 0.840560 0.282522
H32   H     H_    0.280140 0.790203 0.847514 0.247475
H33   H     H_    0.496514 0.704062 0.850526 0.213606
H34   H     H_    0.473608 0.809464 0.789892 0.215259

loop_
_geom_bond_atom_site_label_1
_geom_bond_atom_site_label_2
_ccdc_geom_bond_type
C23   N4    A    
C38   C40   A    
C45   N5    T    
C8    C26   S    
C41   C42   S    
C15   H7    S    
C1    O4    A    
C16   H8    S    
C22   N3    A    
C44   H20   S    
C28   N2    A    
C3    H3    S    
C42   H16   S    
C28   O10   S    
C38   H2    S    
C1    O1    A    
C33   C35   A    
C2    O2    A    
O2    Zn2   S    
C24   H14   S    
C49   H33   S    
C18   C20   A    
C7    C9    A    
C25   O5    A    
C26   O6    A    
C43   H24   S    
C44   H21   S    
C47   H28   S    
O8    Zn2   S    
C10   C46   S    
C24   N3    A    
C42   H17   S    
C41   H18   S    
C40   C43   S    
C32   C38   A    
C12   C49   S    
C3    C13   A    
C2    O3    A    
C13   N2    S    
O3    Zn1   S    
O6    Zn2   S    
C14   N1    S    
C37   H1    S    
C30   O12   S    
C23   H13   S    
C29   O11   S    
C15   C20   A    
C42   H15   S    
C4    C6    A    
C17   H9    S    
C47   C48   S    
C5    C7    A    
C6    C8    A    
C29   N1    A    
C27   C35   A    
O7    Zn1   S    
C30   N2    A    
C48   H27   S    
N3    Zn1   S    
C31   C37   A    
C32   C34   A    
C43   H23   S    
C50   H30   S    
C29   C31   A    
C31   C33   A    
C48   H26   S    
C33   C34   A    
C41   H19   S    
O4    Zn2   S    
C47   H29   S    
C9    C11   A    
C10   C12   A    
C16   C18   A    
C50   H31   S    
O5    Zn1   S    
C21   H11   S    
C44   H22   S    
C18   H10   S    
C22   H12   S    
C15   C17   A    
C1    C20   S    
C6    H6    S    
C2    C19   S    
C26   O7    A    
C36   C39   A    
C25   O8    A    
C12   C14   A    
C43   C44   S    
C3    C5    A    
C4    H4    S    
C7    C25   S    
C35   C40   A    
C21   N4    A    
C37   C39   A    
C9    C45   S    
C30   C32   A    
C11   C13   A    
N4    Zn2   S    
C5    H5    S    
C16   C19   A    
C49   H34   S    
C48   H25   S    
C17   C19   A    
C34   C36   A    
C27   N1    A    
C39   C41   S    
C4    C14   A    
C27   O9    S    
C11   C47   S    
C50   H32   S    
C28   C36   A    
C8    C10   A    
C49   C50   S    
C21   C24   A    
C22   C23   A    
C46   N6    T    
O1    Zn1   S    
