data_mof_unit_19053.cif
_audit_creation_date              2012-12-10T17:38:15-0500
_audit_creation_method            fapswitch 2.2
_symmetry_space_group_name_H-M    P1
_symmetry_Int_Tables_number       1
_space_group_crystal_system       triclinic
_cell_length_a                    12.05939
_cell_length_b                    12.879997
_cell_length_c                    19.217468
_cell_angle_alpha                 91.051248
_cell_angle_beta                  87.945602
_cell_angle_gamma                 93.879363
_cell_volume                      2975.81837837

loop_
_atom_site_label
_atom_site_type_symbol
_atom_type_description
_atom_site_fract_x
_atom_site_fract_y
_atom_site_fract_z
_atom_type_partial_charge
C1    C     C_R   0.522339 0.700290 0.499820 0.900559
C2    C     C_R   0.477661 0.299710 0.500181 0.900564
C3    C     C_R   0.463924 0.188086 0.500380 -0.108935
C4    C     C_R   0.536076 0.811914 0.499625 -0.108918
C5    C     C_R   0.646798 0.970562 0.473700 0.228013
C6    C     C_R   0.353203 0.029440 0.526314 0.228035
C7    C     C_R   0.637587 0.862531 0.479229 -0.236740
C8    C     C_R   0.362415 0.137470 0.520780 -0.236735
C9    C     C_R   0.443545 0.867291 0.516864 -0.267097
C10   C     C_R   0.556456 0.132708 0.483144 -0.267082
C11   C     C_R   0.448853 0.974065 0.511230 0.074504
C12   C     C_R   0.551149 0.025936 0.488782 0.074531
C13   C     C_R   0.950367 0.412758 0.428114 -0.310632
C14   C     C_R   0.049633 0.587248 0.571882 -0.310632
C15   C     C_R   0.835434 0.420029 0.435826 -0.021293
C16   C     C_R   0.164566 0.579979 0.564170 -0.021287
C17   C     C_R   0.860847 0.535678 0.532773 0.180206
C18   C     C_R   0.139151 0.464316 0.467231 0.180201
C19   C     C_R   0.977402 0.531224 0.526436 0.072414
C20   C     C_R   0.022598 0.468780 0.473563 0.072424
C21   C     C_R   0.501638 0.500336 0.634196 0.872817
C22   C     C_R   0.498362 0.499663 0.365804 0.872826
C23   C     C_R   0.415194 0.536443 0.749362 -0.197037
C24   C     C_R   0.584823 0.463586 0.250637 -0.197033
C25   C     C_R   0.418057 0.538298 0.821192 -0.200328
C26   C     C_R   0.581954 0.461717 0.178807 -0.200333
C27   C     C_R   0.510866 0.505510 0.854340 0.075149
C28   C     C_R   0.489121 0.494451 0.145660 0.075154
C29   C     C_R   0.603240 0.472410 0.814780 0.134065
C30   C     C_R   0.396728 0.527513 0.185219 0.134066
C31   C     C_R   0.599210 0.470524 0.742255 -0.234070
C32   C     C_R   0.400765 0.529416 0.257743 -0.234060
C33   C     C_R   0.505431 0.502203 0.709633 -0.053986
C34   C     C_R   0.494567 0.497789 0.290366 -0.054002
C35   C     C_R   0.492560 0.496107 0.069979 0.280780
C36   C     C_R   0.507420 0.503848 0.930022 0.280782
H1    H     H_    0.342294 0.561914 0.724999 0.155706
H2    H     H_    0.657743 0.438157 0.274999 0.155718
H3    H     H_    0.981847 0.363637 0.386639 0.173628
H4    H     H_    0.018152 0.636372 0.613356 0.173628
H5    H     H_    0.346443 0.563555 0.850929 0.157874
H6    H     H_    0.653582 0.436491 0.149069 0.157866
H7    H     H_    0.668913 0.443728 0.711447 0.145778
H8    H     H_    0.331047 0.556184 0.288550 0.145779
H9    H     H_    0.633898 0.173819 0.466570 0.179897
H10   H     H_    0.366102 0.826179 0.533434 0.179883
H11   H     H_    0.292278 0.182687 0.534635 0.174406
H12   H     H_    0.707725 0.817316 0.465373 0.174412
H13   H     H_    0.219548 0.622744 0.599397 0.135236
H14   H     H_    0.780453 0.377269 0.400596 0.135241
N1    N     N_R   0.557471 0.429640 0.963987 -0.140429
N2    N     N_R   0.442508 0.570314 0.036014 -0.140425
N3    N     N_R   0.550641 0.426154 0.032926 -0.181371
N4    N     N_R   0.449338 0.573801 0.967075 -0.181376
N5    N     N_R   0.207800 0.519350 0.512860 -0.111703
N6    N     N_R   0.792200 0.480650 0.487140 -0.111705
O1    O     O_R   0.421690 0.658830 0.503430 -0.619368
O2    O     O_R   0.578310 0.341170 0.496570 -0.619367
O3    O     O_R   0.609320 0.646410 0.495180 -0.639332
O4    O     O_R   0.390680 0.353590 0.504820 -0.639334
O5    O     O_R   0.406160 0.506220 0.605990 -0.622760
O6    O     O_R   0.593840 0.493780 0.394010 -0.622766
O7    O     O_R   0.593780 0.493810 0.597740 -0.636674
O8    O     O_R   0.406220 0.506190 0.402260 -0.636665
Zn1   Zn    Zn3+2 0.374720 0.508290 0.505510 0.932501
Zn2   Zn    Zn3+2 0.625280 0.491710 0.494490 0.932497
N7    N     N_3   0.700836 0.442624 0.848147 -0.440058
H15   H     H_    0.758540 0.415451 0.811421 0.179052
H16   H     H_    0.738559 0.509736 0.870939 0.183402
N8    N     N_3   0.299109 0.557241 0.151850 -0.440063
H17   H     H_    0.241385 0.584383 0.188576 0.179051
H18   H     H_    0.261427 0.490109 0.129059 0.183397
N9    N     N_2   0.748945 0.024140 0.450535 -0.313000
H19   H     H_    0.745840 0.059287 0.402919 0.218288
C37   C     C_3   0.853244 0.979635 0.463301 -0.796658
H20   H     H_    0.922450 0.040077 0.455546 0.245357
H21   H     H_    0.866936 0.914282 0.426172 0.236322
H22   H     H_    0.854169 0.952330 0.517783 0.250958
N10   N     N_2   0.251058 0.975861 0.549483 -0.312987
H23   H     H_    0.254179 0.940678 0.597086 0.218281
C38   C     C_3   0.146758 0.020389 0.536755 -0.796678
H24   H     H_    0.077547 0.959955 0.544514 0.245359
H25   H     H_    0.145803 0.047721 0.482280 0.250953
H26   H     H_    0.133101 0.085729 0.573902 0.236326
N11   N     N_3   0.183935 0.403208 0.411471 -0.486207
H27   H     H_    0.239916 0.353575 0.430335 0.227184
H28   H     H_    0.222015 0.453015 0.374380 0.203531
N12   N     N_3   0.816057 0.596751 0.588549 -0.486195
H29   H     H_    0.778017 0.546916 0.625639 0.203507
H30   H     H_    0.760038 0.646364 0.569707 0.227211

loop_
_geom_bond_atom_site_label_1
_geom_bond_atom_site_label_2
_ccdc_geom_bond_type
C35   N3    A    
C17   N12   S    
N9    H19   S    
N12   H30   S    
C19   C20   A    
C38   H24   S    
N11   H27   S    
C31   H7    S    
C24   C26   A    
C1    O3    A    
O3    Zn2   S    
C2    O4    A    
C27   C29   A    
C15   H14   S    
N5    Zn1   S    
C29   N7    S    
O2    Zn2   S    
C28   C35   S    
C23   C33   A    
C24   H2    S    
C31   C33   A    
N8    H17   S    
C21   O5    A    
O7    Zn2   S    
C9    H10   S    
N9    C37   S    
C4    C7    A    
C30   N8    S    
N2    N4    A    
N11   H28   S    
C22   C34   S    
C18   N11   S    
C21   O7    A    
O6    Zn2   S    
N7    H15   S    
C16   H13   S    
C5    C12   A    
C3    C8    A    
C25   H5    S    
C6    C11   A    
C5    C7    A    
C6    C8    A    
C23   H1    S    
C22   O8    A    
C24   C34   A    
N1    N3    A    
C32   C34   A    
C37   H20   S    
C1    O1    A    
C22   O6    A    
C9    C11   A    
C10   H9    S    
C32   H8    S    
C37   H21   S    
C17   N6    A    
C36   N1    A    
C10   C12   A    
C18   N5    A    
C16   N5    A    
O4    Zn1   S    
C13   C15   A    
C14   C16   A    
C38   H26   S    
C26   H6    S    
N10   C38   S    
C13   C20   A    
C14   C19   A    
O1    Zn1   S    
C38   H25   S    
C11   C12   A    
C2    O2    A    
C27   C36   S    
C25   C27   A    
C26   C28   A    
C1    C4    S    
C7    H12   S    
C28   C30   A    
C2    C3    S    
C8    H11   S    
C29   C31   A    
C3    C10   A    
C15   N6    A    
C30   C32   A    
C6    N10   S    
N6    Zn2   S    
O8    Zn1   S    
C17   C19   A    
C18   C20   A    
C23   C25   A    
C5    N9    S    
C37   H22   S    
C13   H3    S    
C36   N4    A    
C14   H4    S    
N10   H23   S    
O5    Zn1   S    
C21   C33   S    
N12   H29   S    
C35   N2    A    
N8    H18   S    
N7    H16   S    
C4    C9    A    
