data_mof_unit_33171.cif
_audit_creation_date              2012-12-11T16:35:20-0500
_audit_creation_method            fapswitch 2.2
_symmetry_space_group_name_H-M    P1
_symmetry_Int_Tables_number       1
_space_group_crystal_system       triclinic
_cell_length_a                    6.937191
_cell_length_b                    17.488379
_cell_length_c                    19.671761
_cell_angle_alpha                 109.120613
_cell_angle_beta                  90.40521
_cell_angle_gamma                 90.606658
_cell_volume                      2254.65069424

loop_
_atom_site_label
_atom_site_type_symbol
_atom_type_description
_atom_site_fract_x
_atom_site_fract_y
_atom_site_fract_z
_atom_type_partial_charge
O1    O     O_R   0.505700 0.440210 0.561730 -0.527836
O2    O     O_R   0.169350 0.406300 0.412660 -0.519916
O3    O     O_R   0.005650 0.559790 0.438270 -0.546677
C1    C     C_R   0.337526 0.381009 0.386067 0.796276
O4    O     O_R   0.175560 0.430650 0.559600 -0.538413
O5    O     O_R   0.011900 0.584320 0.586250 -0.540778
C2    C     C_R   0.344586 0.417692 0.582567 0.817803
O6    O     O_R   0.499450 0.415680 0.413750 -0.533858
O7    O     O_3   0.341370 0.550390 0.508570 -0.381027
V1    V     V_3+5 0.063940 0.490650 0.498410 1.470776
O8    O     O_R   0.682570 0.593700 0.587340 -0.545198
C3    C     C_R   0.852489 0.618168 0.613598 0.679234
O9    O     O_R   0.676370 0.569350 0.440400 -0.545962
C4    C     C_R   0.845374 0.584786 0.419115 0.696929
V2    V     V_3+5 0.564750 0.509350 0.501590 1.465701
O10   O     O_3   0.837190 0.449610 0.491430 -0.358531
C5    C     C_R   0.038509 0.676421 0.281846 0.398771
C6    C     C_R   0.023998 0.631430 0.328966 -0.198531
H1    H     H_    0.141896 0.592522 0.331848 0.144182
C7    C     C_R   0.858155 0.634332 0.370397 -0.110282
C8    C     C_R   0.706478 0.684333 0.364280 -0.107481
H2    H     H_    0.576786 0.688146 0.395486 0.138412
C9    C     C_R   0.721815 0.731162 0.318681 -0.147038
H3    H     H_    0.603641 0.770235 0.316329 0.145250
C10   C     C_R   0.887595 0.728294 0.276932 0.006383
C11   C     C_R   0.739850 0.780820 0.183712 -0.133303
H4    H     H_    0.609686 0.746286 0.184181 0.177266
C12   C     C_R   0.748908 0.826835 0.137354 -0.132310
H5    H     H_    0.624942 0.826907 0.103592 0.151093
C13   C     C_R   0.917400 0.870614 0.133371 -0.027494
C14   C     C_R   0.074576 0.869094 0.178373 -0.146169
H6    H     H_    0.204976 0.903439 0.177627 0.111955
C15   C     C_R   0.063670 0.824636 0.226016 -0.062943
H7    H     H_    0.185068 0.826811 0.261517 0.137052
C16   C     C_R   0.897894 0.778290 0.228103 0.113691
H8    H     H_    0.864483 0.605530 0.920865 0.193039
C17   C     C_R   0.938262 0.909345 0.752325 -0.217333
C18   C     C_R   0.944443 0.926954 0.688237 -0.216156
C19   C     C_R   0.922421 0.864964 0.621710 0.520901
C20   C     C_R   0.901850 0.785143 0.620878 -0.203547
C21   C     C_R   0.893835 0.765830 0.685239 0.000064
C22   C     C_R   0.912687 0.828950 0.752404 0.057899
C23   C     C_R   0.863979 0.685067 0.683261 -0.100740
C24   C     C_R   0.851142 0.667052 0.748053 -0.023487
C25   C     C_R   0.887625 0.728485 0.815697 -0.006585
C26   C     C_R   0.909173 0.811055 0.817958 -0.134890
C27   C     C_R   0.805367 0.587192 0.745985 -0.225379
C28   C     C_R   0.801953 0.566621 0.808266 0.374252
C29   C     C_R   0.854606 0.623714 0.873341 -0.131565
C30   C     C_R   0.902937 0.702956 0.877509 0.296384
H9    H     H_    0.955969 0.959717 0.801739 0.119173
H10   H     H_    0.969027 0.989093 0.691010 0.128975
H11   H     H_    0.888978 0.738438 0.568835 0.110798
H12   H     H_    0.770973 0.539639 0.696046 0.140122
H13   H     H_    0.198349 0.475619 0.182983 0.175609
C31   C     C_R   0.388633 0.207169 0.378604 0.383529
C32   C     C_R   0.464979 0.133244 0.377684 -0.089543
C33   C     C_R   0.536717 0.079557 0.314711 -0.203871
C34   C     C_R   0.524104 0.097295 0.251032 -0.157677
C35   C     C_R   0.450346 0.172018 0.250008 0.031113
C36   C     C_R   0.396003 0.231532 0.316242 -0.005039
C37   C     C_R   0.424017 0.186308 0.183789 -0.156654
C38   C     C_R   0.360372 0.263107 0.184081 0.077837
C39   C     C_R   0.325831 0.325827 0.250475 0.051288
C40   C     C_R   0.345944 0.311011 0.317039 -0.167590
C41   C     C_R   0.333883 0.279402 0.118800 -0.141708
C42   C     C_R   0.275585 0.355363 0.118737 -0.113236
C43   C     C_R   0.243576 0.416724 0.183343 -0.080558
C44   C     C_R   0.268812 0.402539 0.248520 -0.148422
H14   H     H_    0.460926 0.115582 0.425548 0.157972
H15   H     H_    0.593442 0.022012 0.314445 0.134983
H16   H     H_    0.572857 0.051640 0.202646 0.116796
H17   H     H_    0.359660 0.233917 0.067200 0.091547
H18   H     H_    0.255957 0.366747 0.068260 0.126154
H19   H     H_    0.240897 0.452080 0.297206 0.096433
C45   C     C_R   0.488994 0.261586 0.669478 -0.204538
H20   H     H_    0.580251 0.209079 0.656806 0.117113
C46   C     C_R   0.488274 0.307387 0.622469 0.508905
C47   C     C_R   0.355306 0.370513 0.632799 -0.120732
C48   C     C_R   0.238503 0.391378 0.693839 -0.258363
H21   H     H_    0.141024 0.441847 0.704302 0.156042
C49   C     C_R   0.252215 0.349948 0.743674 0.001532
H22   H     H_    0.169422 0.372144 0.792241 0.183364
C50   C     C_R   0.373458 0.282631 0.731378 0.058293
C51   C     C_R   0.221227 0.220972 0.820346 0.467001
C52   C     C_R   0.237278 0.170378 0.863152 -0.249351
H23   H     H_    0.109493 0.156621 0.888427 0.131826
C53   C     C_R   0.414527 0.137199 0.873139 -0.109096
C54   C     C_R   0.576659 0.153556 0.837890 -0.170791
H24   H     H_    0.715470 0.128627 0.843998 0.140992
C55   C     C_R   0.561095 0.200803 0.792876 -0.198285
H25   H     H_    0.689540 0.211039 0.766183 0.187475
C56   C     C_R   0.384166 0.234753 0.782528 0.022963
O11   O     O_R   0.273230 0.084330 0.086440 -0.541860
O12   O     O_R   0.596660 0.069390 0.940470 -0.548431
O13   O     O_R   0.760270 0.915710 0.913690 -0.537242
C57   C     C_R   0.427316 0.085236 0.919655 0.698798
O14   O     O_R   0.603330 0.093680 0.087390 -0.543814
O15   O     O_R   0.766990 0.940160 0.061660 -0.548211
C58   C     C_R   0.435207 0.117535 0.114664 0.680252
O16   O     O_R   0.266510 0.059870 0.938470 -0.547654
O17   O     O_3   0.431050 0.949630 0.991510 -0.352149
V3    V     V_3+5 0.708490 0.009340 0.001580 1.433118
O18   O     O_R   0.096270 0.930570 0.059390 -0.516185
C59   C     C_R   0.927937 0.918407 0.083285 0.772335
O19   O     O_R   0.089600 0.906290 0.912460 -0.517151
C60   C     C_R   0.919409 0.879973 0.887130 0.796150
V4    V     V_3+5 0.207670 0.990600 0.998190 1.491251
O20   O     O_3   0.935250 0.050360 0.008480 -0.383350
Cl1   Cl    Cl    0.242875 0.660749 0.226454 -0.720687
O21   O     O_3   0.934380 0.878332 0.555987 -0.553877
C61   C     C_3   0.826985 0.946393 0.555768 -0.242696
H26   H     H_    0.911689 0.003048 0.580819 0.144960
H27   H     H_    0.684827 0.949090 0.582457 0.133488
H28   H     H_    0.797621 0.941906 0.499068 0.169762
Cl2   Cl    Cl    0.742906 0.467182 0.803713 -0.725169
Cl3   Cl    Cl    0.014123 0.759623 0.958675 -0.666796
Cl4   Cl    Cl    0.247485 0.255400 0.453671 -0.708800
O22   O     O_3   0.605973 0.286181 0.562876 -0.550261
C62   C     C_3   0.798557 0.306392 0.585842 -0.122586
H29   H     H_    0.814329 0.370997 0.620261 0.133500
H30   H     H_    0.888620 0.297867 0.537700 0.209211
H31   H     H_    0.855161 0.266029 0.614581 0.130446
O23   O     O_3   0.042945 0.250487 0.809919 -0.574379
C63   C     C_3   0.971817 0.301123 0.876481 -0.278744
H32   H     H_    0.083459 0.344775 0.908351 0.145184
H33   H     H_    0.911665 0.264994 0.908601 0.139333
H34   H     H_    0.852123 0.337125 0.865598 0.229986

loop_
_geom_bond_atom_site_label_1
_geom_bond_atom_site_label_2
_ccdc_geom_bond_type
O15   V3    S    
C30   Cl3   S    
C21   C22   A    
O21   C61   S    
O18   V4    S    
C1    O6    A    
C5    Cl1   S    
C45   C50   A    
C61   H27   S    
H13   C43   S    
C25   C26   A    
C31   C32   A    
O11   V4    S    
C11   H4    S    
C37   C38   A    
C12   H5    S    
C45   C46   A    
C3    C23   S    
O5    C3    A    
C18   C19   A    
C17   H9    S    
C52   C53   A    
C33   H15   S    
C18   H10   S    
O19   C60   A    
V2    O10   S    
V4    O20   S    
C51   O23   S    
C35   C37   A    
C6    H1    S    
C22   C26   A    
C17   C22   A    
O18   C59   A    
O8    V2    S    
C27   C28   A    
O12   V3    S    
C43   C44   A    
C63   H34   S    
C9    H3    S    
C14   C15   A    
O17   V4    S    
O1    V2    S    
C32   H14   S    
C54   C55   A    
O7    V1    S    
C53   C57   S    
C24   C27   A    
C34   H16   S    
C28   Cl2   S    
O16   V4    S    
C19   O21   S    
C41   C42   A    
C38   C41   A    
C34   C35   A    
O9    C4    A    
C21   C23   A    
C51   C56   A    
C61   H26   S    
C62   H30   S    
C15   H7    S    
O15   C59   A    
C42   C43   A    
C4    C7    S    
C45   H20   S    
C48   C49   A    
C19   C20   A    
O4    C2    A    
C52   H23   S    
C33   C34   A    
C51   C52   A    
C41   H17   S    
C49   H22   S    
C38   C39   A    
C35   C36   A    
O2    C1    A    
C23   C24   A    
C17   C18   A    
C55   C56   A    
C14   H6    S    
O11   C58   A    
C13   C14   A    
O22   C62   S    
C26   C60   S    
O12   C57   A    
C5    C6    A    
C42   H18   S    
C39   C44   A    
C7    C8    A    
O3    C4    A    
C10   C16   S    
C27   H12   S    
C37   C58   S    
C20   C21   A    
O13   C60   A    
C20   H11   S    
O6    V2    S    
C49   C50   A    
O9    V2    S    
C13   C59   S    
C63   H32   S    
O2    V1    S    
C55   H25   S    
C62   H29   S    
C2    C47   S    
C28   C29   A    
O1    C2    A    
C31   Cl4   S    
C24   C25   A    
C48   H21   S    
O5    V1    S    
O8    C3    A    
C62   H31   S    
C11   C12   A    
V3    O20   S    
C5    C10   A    
C39   C40   A    
C8    C9    A    
C46   O22   S    
O7    V2    S    
O4    V1    S    
O3    V1    S    
V1    O10   S    
C46   C47   A    
C32   C33   A    
C1    C40   S    
O19   V4    S    
C25   C30   A    
C12   C13   A    
C15   C16   A    
C44   H19   S    
C6    C7    A    
C50   C56   S    
C9    C10   A    
O17   V3    S    
O14   C58   A    
C47   C48   A    
C36   C40   A    
C11   C16   A    
C53   C54   A    
C29   C30   A    
O13   V3    S    
C63   H33   S    
C31   C36   A    
C54   H24   S    
C8    H2    S    
C61   H28   S    
C57   O16   A    
H8    C29   S    
O14   V3    S    
O23   C63   S    
