data_mof_unit_25668.cif
_audit_creation_date              2012-12-10T18:10:19-0500
_audit_creation_method            fapswitch 2.2
_symmetry_space_group_name_H-M    P1
_symmetry_Int_Tables_number       1
_space_group_crystal_system       triclinic
_cell_length_a                    10.808523
_cell_length_b                    9.524371
_cell_length_c                    15.888872
_cell_angle_alpha                 89.236915
_cell_angle_beta                  88.450914
_cell_angle_gamma                 88.768558
_cell_volume                      1634.56194176

loop_
_atom_site_label
_atom_site_type_symbol
_atom_type_description
_atom_site_fract_x
_atom_site_fract_y
_atom_site_fract_z
_atom_type_partial_charge
C1    C     C_R   0.258927 0.502193 0.503558 0.846927
C2    C     C_3   0.589465 0.381678 0.952689 -0.331083
C3    C     C_3   0.604347 0.401775 0.048594 -0.338549
C4    C     C_1   0.500818 0.495601 0.825034 0.184748
C5    C     C_1   0.503493 0.503544 0.176209 0.140327
C6    C     C_1   0.503414 0.503040 0.251542 -0.058421
C7    C     C_3   0.064537 0.630880 0.446458 0.267189
C8    C     C_3   0.055151 0.508332 0.595120 0.211580
C9    C     C_3   0.926814 0.603503 0.429682 -0.430589
C10   C     C_3   0.914457 0.530634 0.585664 -0.424970
C11   C     C_3   0.076100 0.365969 0.464246 -0.487426
C12   C     C_3   0.118761 0.507597 0.504385 -0.083940
C13   C     C_3   0.875625 0.495706 0.495225 0.048209
C14   C     C_R   0.501377 0.500873 0.340740 0.790389
C15   C     C_3   0.933933 0.351647 0.471096 -0.390871
C16   C     C_3   0.627729 0.080826 0.497950 -0.225704
C17   C     C_3   0.626957 0.915511 0.485581 -0.171807
C18   C     C_3   0.421203 0.072012 0.572855 0.262871
C19   C     C_3   0.458311 0.914072 0.585196 0.308356
C20   C     C_3   0.443784 0.087988 0.423933 -0.251698
C21   C     C_3   0.428251 0.921377 0.430766 -0.303256
C22   C     C_R   0.738994 0.498338 0.495202 0.798183
C23   C     C_R   0.501672 0.499257 0.659578 0.904716
C24   C     C_3   0.519272 0.653862 0.045526 0.099093
C25   C     C_3   0.371960 0.448855 0.055491 0.128414
C26   C     C_3   0.365883 0.470668 0.956714 0.147099
C27   C     C_3   0.544921 0.643818 0.947448 0.157380
C28   C     C_1   0.501714 0.497675 0.749345 0.023949
C29   C     C_3   0.500769 0.502027 0.084224 -0.056553
C30   C     C_3   0.500116 0.496504 0.917565 -0.107405
Cu1   Cu    Cu3+1 0.499860 0.642410 0.500040 1.024780
Cu2   Cu    Cu3+1 0.499860 0.357590 0.500040 0.977579
H1    H     H_    0.485300 0.725934 0.917334 0.131390
H2    H     H_    0.313700 0.571467 0.947114 0.104471
H3    H     H_    0.919017 0.560789 0.365150 0.150052
H4    H     H_    0.864884 0.462954 0.632694 0.137890
H5    H     H_    0.898543 0.315714 0.410045 0.189150
H6    H     H_    0.909505 0.271019 0.519816 0.215586
H7    H     H_    0.679197 0.110111 0.553823 0.214782
H8    H     H_    0.698348 0.866876 0.525141 0.239309
H9    H     H_    0.681155 0.128092 0.444246 0.160737
H10   H     H_    0.660459 0.890472 0.420406 0.152725
H11   H     H_    0.427709 0.709080 0.052307 0.078411
H12   H     H_    0.298841 0.518887 0.084005 0.081192
H13   H     H_    0.696380 0.445877 0.060311 0.242552
H14   H     H_    0.603935 0.298189 0.081461 0.235360
H15   H     H_    0.681848 0.384692 0.920395 0.236830
H16   H     H_    0.552692 0.276046 0.940684 0.250846
H17   H     H_    0.115864 0.626131 0.384841 0.083536
H18   H     H_    0.069234 0.400765 0.621902 0.150641
H19   H     H_    0.869920 0.701793 0.428147 0.208115
H20   H     H_    0.885999 0.640563 0.599172 0.253115
N1    N     N_3   0.500250 0.143650 0.501830 -0.206861
N2    N     N_3   0.500250 0.856350 0.501830 -0.229741
O1    O     O_R   0.317570 0.620260 0.500050 -0.539738
O2    O     O_R   0.317570 0.379740 0.500050 -0.574250
O3    O     O_R   0.499890 0.620310 0.379470 -0.583929
O4    O     O_R   0.499890 0.379690 0.379470 -0.585709
O5    O     O_R   0.682190 0.620260 0.500020 -0.575509
O6    O     O_R   0.682190 0.379740 0.500020 -0.612591
O7    O     O_R   0.499870 0.620210 0.620600 -0.496260
O8    O     O_R   0.499870 0.379790 0.620600 -0.575074
H21   H     H_    0.106803 0.362091 0.396837 0.197916
H22   H     H_    0.118024 0.272329 0.496104 0.244031
S1    S     S_3+6 0.359406 0.149155 0.670520 0.122336
O9    O     O_2   0.287843 0.282548 0.653428 -0.269510
O10   O     O_2   0.266400 0.046433 0.704731 -0.176712
O11   O     O_3   0.457810 0.171878 0.749565 -0.404191
H23   H     H_    0.530640 0.220771 0.726569 0.354095
S2    S     S_3+6 0.569345 0.889325 0.672379 0.071402
O12   O     O_2   0.640635 0.019456 0.687262 -0.327922
O13   O     O_2   0.496006 0.855039 0.751420 -0.185609
O14   O     O_3   0.677088 0.760944 0.657882 -0.534123
H24   H     H_    0.751707 0.792927 0.686268 0.390347
H25   H     H_    0.352159 0.139889 0.413577 0.200270
H26   H     H_    0.329869 0.896321 0.437774 0.245358
H27   H     H_    0.501218 0.113624 0.366737 0.207626
H28   H     H_    0.459022 0.875021 0.369756 0.223610
H29   H     H_    0.325651 0.065667 0.548197 0.108299
H30   H     H_    0.375226 0.856106 0.606270 0.180196
S3    S     S_3+6 0.335591 0.274133 0.098358 0.075534
O15   O     O_2   0.414738 0.161456 0.057589 -0.225915
O16   O     O_2   0.356299 0.266849 0.191447 -0.319223
O17   O     O_3   0.186208 0.237667 0.084740 -0.401556
H31   H     H_    0.139042 0.307846 0.118907 0.352652
S4    S     S_3+6 0.616372 0.768187 0.105110 0.089158
O18   O     O_2   0.545781 0.813679 0.183259 -0.295953
O19   O     O_2   0.732725 0.692355 0.131285 -0.221218
O20   O     O_3   0.653303 0.913674 0.049968 -0.403065
H32   H     H_    0.573896 0.949569 0.027629 0.374200
S5    S     S_3+6 0.271139 0.348047 0.901808 0.137995
O21   O     O_2   0.265649 0.389135 0.810731 -0.196986
O22   O     O_2   0.320720 0.199945 0.907902 -0.142900
O23   O     O_3   0.125555 0.357266 0.941616 -0.460647
H33   H     H_    0.077961 0.293617 0.906502 0.394962
S6    S     S_3+6 0.702437 0.682641 0.909642 0.097227
O24   O     O_2   0.711349 0.837747 0.892732 -0.174111
O25   O     O_2   0.797483 0.638252 0.972341 -0.197014
O26   O     O_3   0.738648 0.600154 0.819142 -0.570746
H34   H     H_    0.820129 0.637202 0.801068 0.386317
S7    S     S_3+6 0.075610 0.812051 0.480423 0.003285
O27   O     O_2   0.957669 0.863547 0.523180 -0.295379
O28   O     O_2   0.178537 0.832523 0.539580 -0.238495
O29   O     O_3   0.101115 0.913144 0.394389 -0.549085
H35   H     H_    0.024582 0.907440 0.361800 0.355040
S8    S     S_3+6 0.108800 0.619199 0.677893 0.100197
O30   O     O_2   0.246719 0.631937 0.673125 -0.240724
O31   O     O_2   0.049380 0.763134 0.675810 -0.168191
O32   O     O_3   0.069197 0.546126 0.771457 -0.433383
H36   H     H_    0.996363 0.488150 0.761204 0.324062

loop_
_geom_bond_atom_site_label_1
_geom_bond_atom_site_label_2
_ccdc_geom_bond_type
S7    O27   D    
O14   H24   S    
Cu1   O7    S    
C9    H19   S    
C24   C27   S    
Cu2   O4    S    
C10   H20   S    
S3    O15   D    
C27   H1    S    
C18   S1    S    
C21   H26   S    
C20   H27   S    
C5    C6    T    
C1    O2    A    
C11   H21   S    
C22   O6    A    
C21   N2    S    
S4    O19   D    
C6    C14   S    
S8    O30   D    
S6    O26   S    
C18   C19   S    
Cu1   O5    S    
C3    C29   S    
C9    C13   S    
C24   C29   S    
C15   H5    S    
C18   N1    S    
S3    O16   D    
C17   H10   S    
C11   C15   S    
C26   H2    S    
C23   O8    A    
Cu1   Cu2   S    
O11   H23   S    
S1    O10   D    
S6    O25   D    
C21   H28   S    
C10   C13   S    
S2    O12   D    
S7    O28   D    
C27   C30   S    
C25   S3    S    
C27   S6    S    
O23   H33   S    
C1    C12   S    
C25   H12   S    
O29   H35   S    
C4    C28   T    
C5    C29   S    
C25   C29   S    
C7    C12   S    
C14   O4    A    
O17   H31   S    
C7    H17   S    
C11   H22   S    
C22   O5    A    
S4    O18   D    
C18   H29   S    
C2    H16   S    
C25   C26   S    
C3    H13   S    
C20   H25   S    
C17   H8    S    
C15   H6    S    
S5    O22   D    
O26   H34   S    
C8    C12   S    
S1    O11   S    
S6    O24   D    
S2    O14   S    
C23   C28   S    
C19   N2    S    
C26   C30   S    
S7    O29   S    
C13   C15   S    
Cu2   O6    S    
C8    H18   S    
Cu2   N1    S    
S5    O21   D    
S3    O17   S    
C7    C9    S    
C14   O3    A    
C20   N1    S    
S4    O20   S    
C8    S8    S    
S2    O13   D    
C11   C12   S    
C2    H15   S    
C3    H14   S    
C2    C30   S    
Cu1   O3    S    
C2    C3    S    
C26   S5    S    
Cu2   O8    S    
O32   H36   S    
S5    O23   S    
C16   C17   S    
S8    O31   D    
C17   N2    S    
C13   C22   S    
Cu1   N2    S    
C1    O1    A    
C19   H30   S    
C16   H7    S    
C23   O7    A    
C20   C21   S    
C8    C10   S    
S1    O9    D    
C7    S7    S    
C9    H3    S    
C24   H11   S    
C19   S2    S    
C10   H4    S    
Cu1   O1    S    
O20   H32   S    
C24   S4    S    
C16   H9    S    
Cu2   O2    S    
C4    C30   S    
C16   N1    S    
S8    O32   S    
