data_mof_unit_55456.cif
_audit_creation_date              2012-10-26T18:26:15-0400
_audit_creation_method            fapswitch 2.2
_symmetry_space_group_name_H-M    P1
_symmetry_Int_Tables_number       1
_space_group_crystal_system       triclinic
_cell_length_a                    13.861576
_cell_length_b                    8.744086
_cell_length_c                    7.503606
_cell_angle_alpha                 103.188363
_cell_angle_beta                  89.588116
_cell_angle_gamma                 93.755198
_cell_volume                      883.571329437

loop_
_atom_site_label
_atom_site_type_symbol
_atom_type_description
_atom_site_fract_x
_atom_site_fract_y
_atom_site_fract_z
_atom_type_partial_charge
C1    C     C_R   0.495646 0.200317 0.454567 0.550128
C2    C     C_1   0.869773 0.511324 0.440570 0.040191
C3    C     C_2   0.479480 0.033884 0.437785 0.000718
C4    C     C_2   0.520522 0.966115 0.562214 0.000716
C5    C     C_2   0.982457 0.424089 0.725385 0.600721
C6    C     C_2   0.017543 0.575916 0.274614 0.600724
C7    C     C_2   0.402990 0.953190 0.303337 0.580720
C8    C     C_2   0.597013 0.046809 0.696660 0.580720
C9    C     C_1   0.404033 0.350326 0.944299 0.483691
C10   C     C_1   0.595967 0.649674 0.055701 0.483697
C11   C     C_R   0.504355 0.799683 0.545432 0.550126
C12   C     C_R   0.318951 0.501258 0.530581 0.566317
C13   C     C_R   0.681049 0.498743 0.469419 0.566318
C14   C     C_1   0.783279 0.504355 0.450581 0.080183
C15   C     C_1   0.216721 0.495646 0.549419 0.080184
C16   C     C_2   0.973725 0.520727 0.433677 0.022409
C17   C     C_2   0.026275 0.479277 0.566322 0.022410
C18   C     C_1   0.130227 0.488679 0.559430 0.040193
Cu1   Cu    Cu3+1 0.510540 0.517220 0.682700 1.071561
Cu2   Cu    Cu3+1 0.489460 0.482780 0.317300 1.071559
H1    H     H_    0.869183 0.416613 0.894832 0.365847
H2    H     H_    0.130818 0.583401 0.105172 0.365845
H3    H     H_    0.352197 0.908737 0.043977 0.350010
H4    H     H_    0.647814 0.091248 0.956012 0.350011
N1    N     N_2   0.473570 0.456830 0.042740 -0.206974
N2    N     N_2   0.526430 0.543170 0.957260 -0.206973
N3    N     N_1   0.345585 0.260646 0.864296 -0.267680
N4    N     N_1   0.654415 0.739354 0.135704 -0.267678
O1    O     O_R   0.506850 0.286020 0.618680 -0.510841
O2    O     O_R   0.889306 0.461164 0.785689 -0.658612
O3    O     O_2   0.970180 0.651849 0.192810 -0.469570
O4    O     O_R   0.110696 0.538853 0.214318 -0.658615
O5    O     O_2   0.334810 0.877119 0.352620 -0.493552
O6    O     O_R   0.408078 0.968303 0.121908 -0.631978
O7    O     O_2   0.665189 0.122890 0.647379 -0.493554
O8    O     O_R   0.591933 0.031682 0.878083 -0.631977
O9    O     O_R   0.493150 0.713980 0.381320 -0.510843
O10   O     O_R   0.489050 0.256940 0.310110 -0.470026
O11   O     O_R   0.510950 0.743060 0.689890 -0.470022
O12   O     O_R   0.372320 0.516630 0.676100 -0.526096
O13   O     O_R   0.627680 0.483370 0.323900 -0.526096
O14   O     O_R   0.354510 0.487550 0.367530 -0.477174
O15   O     O_R   0.645490 0.512450 0.632470 -0.477172
O16   O     O_2   0.029816 0.348145 0.807180 -0.469569

loop_
_geom_bond_atom_site_label_1
_geom_bond_atom_site_label_2
_ccdc_geom_bond_type
C12   O12   A    
C15   C18   T    
Cu2   O14   S    
Cu2   O10   S    
H1    O2    S    
C6    O4    S    
Cu1   Cu2   S    
C12   C15   S    
C4    C8    S    
H3    O6    S    
C10   N2    S    
C13   O13   A    
C17   C18   S    
C9    N1    S    
C13   C14   S    
C4    C11   S    
C11   O11   A    
Cu2   O9    S    
C7    O5    D    
H4    O8    S    
C12   O14   A    
H2    O4    S    
C1    O10   A    
Cu1   O11   S    
C1    O1    A    
C5    O16   D    
Cu1   O15   S    
Cu2   O13   S    
C3    C7    S    
C8    O8    S    
C2    C14   T    
C7    O6    S    
C5    C17   S    
Cu1   O12   S    
C6    C16   S    
C3    C4    D    
Cu1   O1    S    
C13   O15   A    
C2    C16   S    
C9    N3    T    
C5    O2    S    
Cu2   N1    S    
C10   N4    T    
C11   O9    A    
Cu1   N2    S    
C6    O3    D    
N1    N2    D    
C16   C17   D    
C1    C3    S    
C8    O7    D    
