data_mof_unit_32587.cif
_audit_creation_date              2012-12-11T14:17:35-0500
_audit_creation_method            fapswitch 2.2
_symmetry_space_group_name_H-M    P1
_symmetry_Int_Tables_number       1
_space_group_crystal_system       triclinic
_cell_length_a                    6.945134
_cell_length_b                    13.627895
_cell_length_c                    20.403905
_cell_angle_alpha                 102.148211
_cell_angle_beta                  89.900189
_cell_angle_gamma                 90.707645
_cell_volume                      1887.78918625

loop_
_atom_site_label
_atom_site_type_symbol
_atom_type_description
_atom_site_fract_x
_atom_site_fract_y
_atom_site_fract_z
_atom_type_partial_charge
O1    O     O_R   0.506860 0.599390 0.449240 -0.540223
O2    O     O_R   0.180220 0.594600 0.586780 -0.542292
O3    O     O_R   0.004500 0.400610 0.550760 -0.537884
C1    C     C_R   0.349060 0.616115 0.613441 0.738538
O4    O     O_R   0.177490 0.611290 0.451970 -0.541053
O5    O     O_R   0.001750 0.417420 0.414990 -0.538809
C2    C     C_R   0.346866 0.638117 0.435346 0.704635
O6    O     O_R   0.509610 0.582580 0.585010 -0.541970
O7    O     O_3   0.337420 0.436370 0.488020 -0.370198
V1    V     V_3+5 0.064680 0.511800 0.502220 1.446155
O8    O     O_R   0.671710 0.405400 0.413220 -0.546594
C3    C     C_R   0.839810 0.383964 0.386569 0.744721
O9    O     O_R   0.674440 0.388710 0.548030 -0.542034
C4    C     C_R   0.842267 0.361750 0.564554 0.701564
V2    V     V_3+5 0.564010 0.488200 0.497780 1.437110
O10   O     O_3   0.841140 0.563630 0.511980 -0.371614
C5    C     C_R   0.807594 0.110456 0.611061 -0.093000
H1    H     H_    0.813856 0.161639 0.518648 0.137945
H2    H     H_    0.795076 0.033342 0.584283 0.170287
C6    C     C_R   0.845785 0.283936 0.604052 -0.044518
C7    C     C_R   0.896705 0.314010 0.926978 -0.167077
C8    C     C_R   0.904635 0.389462 0.890787 -0.120912
C9    C     C_R   0.885564 0.366437 0.821287 -0.151199
C10   C     C_R   0.856566 0.266011 0.785758 0.083450
C11   C     C_R   0.844212 0.189357 0.823433 0.044715
C12   C     C_R   0.842258 0.239323 0.714303 0.064228
C13   C     C_R   0.811253 0.136711 0.681855 0.052646
C14   C     C_R   0.789067 0.062562 0.720638 -0.020783
C15   C     C_R   0.810931 0.089362 0.790162 -0.242315
C16   C     C_R   0.858155 0.311605 0.673753 -0.199513
C17   C     C_R   0.822235 0.183488 0.572805 -0.166639
C18   C     C_R   0.865949 0.214340 0.894177 -0.064288
H3    H     H_    0.876805 0.390576 0.694447 0.091269
H4    H     H_    0.915199 0.333333 0.980917 0.101388
H5    H     H_    0.894849 0.429422 0.797259 0.105011
H6    H     H_    0.927702 0.466577 0.916755 0.118155
H7    H     H_    0.796134 0.030867 0.818548 0.142055
C19   C     C_2   0.005564 0.288040 0.285274 -0.113602
C20   C     C_2   0.842250 0.315428 0.319841 -0.298537
H8    H     H_    0.142841 0.316258 0.307377 0.135622
H9    H     H_    0.703500 0.287561 0.299455 0.126686
C21   C     C_2   0.013846 0.219905 0.217658 -0.126800
C22   C     C_2   0.858640 0.183196 0.180409 -0.307176
H10   H     H_    0.156690 0.200136 0.197832 0.131674
H11   H     H_    0.714512 0.202115 0.198656 0.126155
C23   C     C_2   0.204511 0.789800 0.782695 -0.103397
C24   C     C_2   0.364137 0.816580 0.819610 -0.317276
H12   H     H_    0.066258 0.817988 0.802831 0.162450
H13   H     H_    0.503384 0.788816 0.800832 0.148772
C25   C     C_2   0.202920 0.721728 0.715028 -0.091277
C26   C     C_2   0.361099 0.684406 0.680175 -0.331937
H14   H     H_    0.061617 0.702051 0.693116 0.158986
H15   H     H_    0.504277 0.703354 0.700091 0.147525
C27   C     C_R   0.355999 0.892169 0.390589 0.003362
H16   H     H_    0.352982 0.836593 0.482181 0.145400
H17   H     H_    0.394402 0.016829 0.302689 0.160413
C28   C     C_R   0.356448 0.716033 0.395947 -0.056334
C29   C     C_R   0.338525 0.685479 0.072535 -0.169361
C30   C     C_R   0.325468 0.610075 0.108724 -0.120085
C31   C     C_R   0.329698 0.633542 0.178558 -0.158810
C32   C     C_R   0.348247 0.734393 0.214458 0.088610
C33   C     C_R   0.359876 0.811272 0.176874 0.069628
C34   C     C_R   0.353522 0.761327 0.286190 0.065696
C35   C     C_R   0.360218 0.864830 0.319183 0.066358
C36   C     C_R   0.376730 0.938098 0.280207 -0.162029
C37   C     C_R   0.376443 0.911963 0.210749 -0.203442
C38   C     C_R   0.353877 0.688425 0.326237 -0.210434
C39   C     C_R   0.356872 0.816864 0.427842 -0.208971
C40   C     C_R   0.355316 0.785769 0.105823 -0.073585
H18   H     H_    0.353492 0.609060 0.305069 0.094325
H19   H     H_    0.334547 0.665632 0.018249 0.101884
H20   H     H_    0.315444 0.570738 0.202612 0.105936
H21   H     H_    0.311024 0.532569 0.082434 0.118414
H22   H     H_    0.389080 0.972125 0.183710 0.117244
O11   O     O_R   0.203230 0.917310 0.915020 -0.538249
O12   O     O_R   0.535500 0.888690 0.048040 -0.541007
O13   O     O_R   0.711080 0.082610 0.085000 -0.544766
C41   C     C_R   0.366173 0.862560 0.065253 0.686806
O14   O     O_R   0.532630 0.905370 0.913230 -0.545538
O15   O     O_R   0.708190 0.099410 0.949230 -0.540279
C42   C     C_R   0.364474 0.884413 0.886451 0.747032
O16   O     O_R   0.206120 0.900510 0.050790 -0.538793
O17   O     O_3   0.375360 0.063570 0.011990 -0.373842
V3    V     V_3+5 0.648170 0.988200 0.997780 1.422583
O18   O     O_R   0.038240 0.111390 0.951940 -0.539510
C43   C     C_R   0.870431 0.137233 0.934565 0.687864
O19   O     O_R   0.041120 0.094710 0.086750 -0.543130
C44   C     C_R   0.872510 0.115655 0.113551 0.743799
V4    V     V_3+5 0.148810 0.011930 0.002180 1.427508
O20   O     O_3   0.871750 0.936430 0.988010 -0.371868
C45   C     C_2   0.343369 0.997542 0.428830 0.733544
O21   O     O_2   0.238703 0.057254 0.409559 -0.569145
O22   O     O_R   0.443719 0.026874 0.489295 -0.658179
H23   H     H_    0.420871 0.099580 0.511631 0.302099
C46   C     C_2   0.735638 0.956520 0.690984 0.736924
O23   O     O_2   0.813317 0.888304 0.711030 -0.584421
O24   O     O_R   0.590061 0.934676 0.642631 -0.655989
H24   H     H_    0.565492 0.859900 0.627065 0.293515

loop_
_geom_bond_atom_site_label_1
_geom_bond_atom_site_label_2
_ccdc_geom_bond_type
O19   C44   A    
O22   H23   S    
C46   O23   D    
O15   V3    S    
O12   V3    S    
O24   H24   S    
C24   H13   S    
C6    C16   A    
O18   C43   A    
C12   C13   A    
O16   V4    S    
V3    O20   S    
C14   C46   S    
C22   C44   S    
C14   C15   A    
O12   C41   A    
C19   C21   S    
O5    C3    A    
O14   V3    S    
C29   H19   S    
C27   C39   A    
C31   H20   S    
V2    O10   S    
C37   H22   S    
C32   C34   A    
O15   C43   A    
O8    V2    S    
O13   C44   A    
C25   H14   S    
C9    C10   A    
O1    V2    S    
O7    V1    S    
C30   H21   S    
C1    O6    A    
C11   C18   A    
C30   C31   A    
O9    C4    A    
C40   C41   S    
C21   H10   S    
C28   C38   A    
H16   C39   S    
C23   H12   S    
C11   C15   A    
O17   V4    S    
C7    C18   A    
C34   C38   A    
C33   C37   A    
C1    C26   S    
C5    C13   A    
C4    C6    S    
C10   C11   A    
C20   H9    S    
C45   O21   D    
O4    C2    A    
O18   V4    S    
O11   C42   A    
C7    H4    S    
O13   V3    S    
C29   C30   A    
C33   C40   A    
C31   C32   A    
C26   H15   S    
O2    C1    A    
C45   O22   S    
C41   O16   A    
O17   V3    S    
C18   C43   S    
C25   C26   D    
C22   H11   S    
O3    C4    A    
C12   C16   A    
O6    V2    S    
C9    H5    S    
O19   V4    S    
C5    C17   A    
C21   C22   D    
C28   C39   A    
O2    V1    S    
O14   C42   A    
C23   C24   D    
C16   H3    S    
O1    C2    A    
C10   C12   A    
O5    V1    S    
O8    C3    A    
C46   O24   S    
C29   C40   A    
C8    H6    S    
C23   C25   S    
C38   H18   S    
C35   C36   A    
C3    C20   S    
O9    V2    S    
O7    V2    S    
O4    V1    S    
O3    V1    S    
V1    O10   S    
C19   H8    S    
C19   C20   D    
C27   C35   A    
C5    H2    S    
C24   C42   S    
C32   C33   A    
O11   V4    S    
C34   C35   A    
C27   C45   S    
C36   C37   A    
C15   H7    S    
C13   C14   A    
C8    C9    A    
H1    C17   S    
V4    O20   S    
C7    C8    A    
C2    C28   S    
H17   C36   S    
C6    C17   A    
