data_mof_unit_31478.cif
_audit_creation_date              2012-12-10T17:25:34-0500
_audit_creation_method            fapswitch 2.2
_symmetry_space_group_name_H-M    P1
_symmetry_Int_Tables_number       1
_space_group_crystal_system       triclinic
_cell_length_a                    10.290899
_cell_length_b                    10.294527
_cell_length_c                    23.453023
_cell_angle_alpha                 91.529853
_cell_angle_beta                  81.904454
_cell_angle_gamma                 93.456749
_cell_volume                      2454.95945622

loop_
_atom_site_label
_atom_site_type_symbol
_atom_type_description
_atom_site_fract_x
_atom_site_fract_y
_atom_site_fract_z
_atom_type_partial_charge
C1    C     C_R   0.552966 0.735565 0.494607 0.826737
C2    C     C_R   0.384664 0.489138 0.301644 0.395327
C3    C     C_R   0.416546 0.550326 0.770592 0.019920
C4    C     C_R   0.391945 0.481120 0.241537 0.028928
C5    C     C_R   0.510612 0.476569 0.790439 0.173878
C6    C     C_R   0.512002 0.509788 0.206894 0.167114
C7    C     C_2   0.574747 0.874121 0.482167 0.412015
C8    C     C_2   0.423149 0.122920 0.498197 0.402190
C9    C     C_2   0.498291 0.924956 0.446841 0.009095
C10   C     C_2   0.477188 0.065264 0.448783 -0.005141
C11   C     C_2   0.924010 0.498794 0.510582 0.245051
C12   C     C_R   0.446812 0.264274 0.503163 0.804490
C13   C     C_2   0.069352 0.475068 0.501605 0.248118
C14   C     C_R   0.500454 0.497966 0.610359 0.932029
C15   C     C_R   0.500068 0.504362 0.389369 0.988471
C16   C     C_R   0.500478 0.383156 0.119641 0.597688
C17   C     C_R   0.569950 0.587892 0.875038 0.589216
C18   C     C_R   0.546275 0.612937 0.114590 0.609100
C19   C     C_R   0.484928 0.366738 0.880938 0.609212
C20   C     C_R   0.567974 0.605996 0.054275 -0.192373
C21   C     C_R   0.495358 0.364677 0.939941 -0.171510
C22   C     C_R   0.537053 0.486326 0.026934 -0.150976
C23   C     C_R   0.598493 0.407003 0.752000 0.018715
C24   C     C_R   0.539210 0.480584 0.966817 -0.143947
C25   C     C_R   0.499053 0.373979 0.059941 -0.177347
C26   C     C_R   0.582777 0.591736 0.933779 -0.181687
C27   C     C_R   0.620550 0.714080 0.020789 0.451333
C28   C     C_R   0.461499 0.251331 0.972763 0.394395
C29   C     C_R   0.635014 0.704043 0.960618 0.433749
C30   C     C_R   0.459563 0.256954 0.032695 0.431588
C31   C     C_3   0.781335 0.834176 0.060176 -0.187651
C32   C     C_3   0.531068 0.058620 0.934925 -0.072059
C33   C     C_3   0.174885 0.759935 0.551507 -0.033148
C34   C     C_R   0.625216 0.548274 0.231350 0.019446
C35   C     C_3   0.826751 0.276177 0.418691 -0.137505
C36   C     C_3   0.826760 0.777549 0.908169 -0.239868
C37   C     C_3   0.281765 0.140925 0.077733 -0.168148
C38   C     C_3   0.607778 0.214577 0.643952 -0.213267
C39   C     C_3   0.832282 0.530969 0.310718 -0.218280
C40   C     C_3   0.397366 0.766108 0.679596 -0.255904
C41   C     C_3   0.199438 0.577630 0.346589 -0.282222
C42   C     C_3   0.272006 0.101096 0.580753 -0.397766
C43   C     C_3   0.780218 0.946214 0.497164 -0.387749
C44   C     C_R   0.589852 0.407308 0.693082 0.383757
C45   C     C_R   0.620663 0.551366 0.291594 0.389288
C46   C     C_R   0.501871 0.489147 0.672334 -0.330832
C47   C     C_R   0.501239 0.515290 0.326751 -0.320349
C48   C     C_R   0.416452 0.562513 0.711275 0.403120
H1    H     H_    0.811333 0.737232 0.072048 0.119992
H2    H     H_    0.887984 0.214728 0.387360 0.131152
H3    H     H_    0.737530 0.294414 0.399774 0.189727
H4    H     H_    0.802074 0.220310 0.459140 0.168457
H5    H     H_    0.879586 0.742990 0.942646 0.112893
H6    H     H_    0.829872 0.702958 0.872977 0.190222
H7    H     H_    0.881167 0.866990 0.890243 0.189670
H8    H     H_    0.250467 0.054519 0.104606 0.186730
H9    H     H_    0.247653 0.228368 0.103192 0.140006
H10   H     H_    0.233098 0.129823 0.038290 0.160505
H11   H     H_    0.789498 0.371710 0.752818 0.217119
H12   H     H_    0.787607 0.900383 0.097914 0.201685
H13   H     H_    0.684134 0.238819 0.762756 0.218001
H14   H     H_    0.810692 0.512562 0.194926 0.170211
H15   H     H_    0.783020 0.673835 0.207733 0.227899
H16   H     H_    0.677385 0.153609 0.616245 0.212308
H17   H     H_    0.524759 0.229785 0.619860 0.163002
H18   H     H_    0.571796 0.159739 0.683893 0.146139
H19   H     H_    0.804985 0.424839 0.307234 0.147901
H20   H     H_    0.882453 0.547327 0.349193 0.229368
H21   H     H_    0.905492 0.562209 0.273670 0.127868
H22   H     H_    0.324920 0.836026 0.670979 0.184860
H23   H     H_    0.851977 0.874679 0.024065 0.148860
H24   H     H_    0.471446 0.759754 0.640394 0.159136
H25   H     H_    0.445418 0.806592 0.716419 0.157513
H26   H     H_    0.261469 0.655726 0.364917 0.170181
H27   H     H_    0.111257 0.558067 0.378788 0.202069
H28   H     H_    0.165286 0.613489 0.307408 0.138746
H29   H     H_    0.228734 0.583630 0.803222 0.211546
H30   H     H_    0.335690 0.714797 0.804752 0.222417
H31   H     H_    0.208848 0.511276 0.223114 0.178789
H32   H     H_    0.237932 0.353203 0.232537 0.230520
H33   H     H_    0.444350 0.106696 0.368554 0.193470
H34   H     H_    0.611517 0.108756 0.905292 0.142884
H35   H     H_    0.603646 0.115008 0.377876 0.176787
H36   H     H_    0.335105 0.858888 0.413909 0.172737
H37   H     H_    0.472717 0.871243 0.365361 0.192029
H38   H     H_    0.191055 0.116393 0.555273 0.164977
H39   H     H_    0.302209 0.192939 0.602482 0.181476
H40   H     H_    0.233037 0.031408 0.615103 0.190196
H41   H     H_    0.804256 0.966010 0.450259 0.158331
H42   H     H_    0.814523 0.850121 0.506943 0.185875
H43   H     H_    0.835519 0.021239 0.520454 0.191824
H44   H     H_    0.125465 0.289692 0.499247 0.170724
H45   H     H_    0.499923 0.967654 0.912925 0.217074
H46   H     H_    0.191977 0.379392 0.440520 0.265795
H47   H     H_    0.808451 0.634626 0.554195 0.210239
H48   H     H_    0.830264 0.498191 0.592565 0.250370
H49   H     H_    0.568112 0.030925 0.974985 0.209763
H50   H     H_    0.202768 0.775791 0.504472 0.124850
H51   H     H_    0.260557 0.772824 0.575266 0.202606
H52   H     H_    0.106952 0.836478 0.567742 0.113567
N1    N     N_R   0.518934 0.501851 0.145560 -0.323225
N2    N     N_3   0.435420 0.842591 0.407177 -0.490196
N3    N     N_3   0.108509 0.359375 0.470106 -0.423359
N4    N     N_3   0.873394 0.566074 0.562432 -0.411700
N5    N     N_R   0.521394 0.477119 0.850442 -0.316352
N6    N     N_2   0.842710 0.448880 0.476480 0.056083
N7    N     N_2   0.157290 0.551120 0.523520 0.052395
N8    N     N_3   0.697577 0.337424 0.773431 -0.434365
N9    N     N_3   0.743693 0.584392 0.193902 -0.441072
N10   N     N_3   0.323174 0.614578 0.811288 -0.424101
N11   N     N_3   0.278475 0.441190 0.214800 -0.433649
N12   N     N_3   0.509805 0.138548 0.396925 -0.508066
O1    O     O_R   0.431060 0.692470 0.504730 -0.628915
O2    O     O_2   0.602033 0.694574 0.842651 -0.540487
O3    O     O_2   0.552103 0.729038 0.142505 -0.501178
O4    O     O_2   0.436329 0.260910 0.854048 -0.520049
O5    O     O_3   0.652052 0.832652 0.046246 -0.537224
O6    O     O_3   0.421580 0.135699 0.947340 -0.585337
O7    O     O_3   0.109439 0.638396 0.563839 -0.537977
O8    O     O_3   0.898705 0.393489 0.427085 -0.575993
O9    O     O_3   0.696152 0.807719 0.929024 -0.585534
O10   O     O_3   0.419963 0.146056 0.064093 -0.533946
O11   O     O_3   0.674299 0.333831 0.655949 -0.617730
O12   O     O_R   0.568940 0.307530 0.495270 -0.607853
O13   O     O_3   0.723897 0.610443 0.316781 -0.598890
O14   O     O_3   0.330414 0.644124 0.692021 -0.575089
O15   O     O_3   0.265266 0.461058 0.335355 -0.596638
O16   O     O_3   0.379494 0.046988 0.546239 -0.626409
O17   O     O_3   0.645052 0.954543 0.516657 -0.612934
O18   O     O_R   0.651120 0.659650 0.489640 -0.637937
O19   O     O_R   0.348880 0.340350 0.510360 -0.658362
O20   O     O_R   0.389950 0.516450 0.591390 -0.544784
O21   O     O_R   0.610050 0.483550 0.408610 -0.578270
O22   O     O_R   0.610020 0.483630 0.576300 -0.612835
O23   O     O_R   0.389980 0.516370 0.423700 -0.609681
O24   O     O_2   0.483483 0.275238 0.151900 -0.504325
Zn1   Zn    Zn3+2 0.353060 0.521920 0.510080 0.971680
Zn2   Zn    Zn3+2 0.646940 0.478080 0.489920 0.966995

loop_
_geom_bond_atom_site_label_1
_geom_bond_atom_site_label_2
_ccdc_geom_bond_type
H15   N9    S    
C39   O13   S    
C12   O19   A    
C27   C29   A    
H36   N2    S    
C39   H20   S    
C41   O15   S    
C15   C47   S    
C13   N7    D    
C14   C46   S    
C5    N5    S    
C40   H25   S    
C43   H41   S    
C40   H22   S    
C17   C26   A    
O12   Zn2   S    
C19   C21   A    
C24   C26   A    
N6    Zn2   S    
C15   O23   A    
C3    N10   S    
C3    C48   A    
C16   C25   A    
C32   H49   S    
O23   Zn1   S    
C33   H50   S    
C6    N1    S    
H13   N8    S    
C31   O5    S    
C36   H5    S    
H44   N3    S    
C41   H26   S    
C37   H8    S    
C8    O16   S    
C38   H18   S    
C45   O13   S    
C9    N2    S    
C22   C25   A    
C29   O9    S    
H33   N12   S    
C10   N12   S    
C11   N4    S    
C42   H38   S    
C13   N3    S    
C9    C10   S    
C18   C20   A    
C37   H10   S    
C42   O16   S    
C2    O15   S    
C31   H23   S    
C32   H45   S    
O21   Zn2   S    
C35   O8    S    
C1    O1    A    
C31   H1    S    
N7    O7    S    
C44   C46   A    
C17   O2    S    
C35   H2    S    
C38   H16   S    
C45   C47   A    
C46   C48   A    
C43   H42   S    
C30   O10   S    
C43   O17   S    
C4    C6    A    
C1    O18   A    
C14   O20   A    
C14   O22   A    
O20   Zn1   S    
C43   H43   S    
C23   C44   A    
C6    C34   A    
C33   H51   S    
C18   N1    A    
C31   H12   S    
N7    Zn1   S    
C2    C4    A    
O19   Zn1   S    
C17   N5    A    
C41   H27   S    
C5    C23   A    
C38   H17   S    
C8    C12   S    
C40   O14   S    
C11   N6    D    
C39   H21   S    
H30   N10   S    
C34   C45   A    
C19   N5    A    
C4    N11   S    
C20   C22   A    
H46   N3    S    
C33   O7    S    
H48   N4    S    
C35   H3    S    
C22   C24   A    
C42   H40   S    
O18   Zn2   S    
H47   N4    S    
C27   O5    S    
C25   C30   A    
C7    C9    D    
C40   H24   S    
N6    O8    S    
C1    C7    S    
C39   H19   S    
C21   C28   A    
C38   O11   S    
C32   O6    S    
C3    C5    A    
C18   O3    S    
O22   Zn2   S    
C15   O21   A    
C20   C27   A    
C2    C47   A    
C32   H34   S    
C44   O11   S    
H11   N8    S    
H31   N11   S    
C33   H52   S    
C28   C30   A    
C36   O9    S    
C36   H7    S    
C28   O6    S    
C41   H28   S    
C11   C13   S    
H14   N9    S    
C19   O4    S    
C23   N8    S    
H32   N11   S    
O1    Zn1   S    
H29   N10   S    
C7    O17   S    
C36   H6    S    
C48   O14   S    
C37   O10   S    
C16   N1    A    
C26   C29   A    
C8    C10   D    
C21   C24   A    
C35   H4    S    
C34   N9    S    
H35   N12   S    
C42   H39   S    
C12   O12   A    
C37   H9    S    
H37   N2    S    
C16   O24   S    
