data_mof_unit_19397.cif
_audit_creation_date              2012-12-10T20:39:14-0500
_audit_creation_method            fapswitch 2.2
_symmetry_space_group_name_H-M    P1
_symmetry_Int_Tables_number       1
_space_group_crystal_system       triclinic
_cell_length_a                    18.655983
_cell_length_b                    10.734167
_cell_length_c                    9.87052
_cell_angle_alpha                 90.956277
_cell_angle_beta                  91.007746
_cell_angle_gamma                 91.197951
_cell_volume                      1975.6097973

loop_
_atom_site_label
_atom_site_type_symbol
_atom_type_description
_atom_site_fract_x
_atom_site_fract_y
_atom_site_fract_z
_atom_type_partial_charge
C1    C     C_R   0.501876 0.259865 0.498543 0.900920
C2    C     C_R   0.855746 0.618602 0.516761 0.048101
C3    C     C_R   0.513405 0.065543 0.616837 0.041905
C4    C     C_R   0.364483 0.509297 0.499414 0.913487
C5    C     C_R   0.501551 0.126934 0.495269 -0.219427
C6    C     C_R   0.484531 0.058274 0.375147 0.491712
C7    C     C_R   0.474456 0.930471 0.383021 -0.330676
C8    C     C_R   0.492142 0.870383 0.502830 -0.158283
C9    C     C_R   0.508472 0.938153 0.620637 0.085884
C10   C     C_3   0.572198 0.927135 0.712971 -0.461853
C11   C     C_3   0.579163 0.068008 0.707734 0.000469
C12   C     C_R   0.290083 0.554900 0.502046 -0.214017
C13   C     C_R   0.438415 0.473330 0.069204 0.154789
C14   C     C_R   0.558241 0.541243 0.074468 -0.149764
C15   C     C_R   0.558280 0.541167 0.930606 -0.146434
C16   C     C_R   0.498318 0.739440 0.500965 0.903636
C17   C     C_R   0.438755 0.470455 0.927123 0.184475
C18   C     C_3   0.393391 0.352290 0.921258 0.563316
C19   C     C_3   0.392778 0.358261 0.076049 -0.565192
C20   C     C_R   0.635741 0.503038 0.501368 0.845930
C21   C     C_R   0.261144 0.583144 0.629318 -0.365512
C22   C     C_R   0.194473 0.637014 0.641899 0.512785
C23   C     C_R   0.931143 0.657355 0.523678 0.278046
C24   C     C_R   0.153857 0.661625 0.524301 -0.089655
C25   C     C_R   0.185123 0.644780 0.397105 -0.379570
C26   C     C_R   0.251722 0.585727 0.382705 0.522543
C27   C     C_3   0.647761 0.114750 0.639958 -0.882484
C28   C     C_3   0.278448 0.272260 0.851979 0.077889
C29   C     C_3   0.254339 0.251194 0.704092 -0.310068
C30   C     C_3   0.210828 0.130294 0.683990 -0.993732
C31   C     C_3   0.432545 0.238220 0.864520 -0.873557
C32   C     C_3   0.176793 0.775886 0.816681 0.082992
C33   C     C_3   0.254429 0.802746 0.865904 -0.388913
C34   C     C_R   0.075819 0.682359 0.528728 0.327352
C35   C     C_3   0.258745 0.907866 0.972125 -0.957680
C36   C     C_3   0.234677 0.557858 0.143629 0.088381
C37   C     C_3   0.178516 0.450680 0.145854 -0.421389
C38   C     C_3   0.124399 0.460646 0.029035 -0.862819
C39   C     C_3   0.736938 0.409133 0.289642 -0.927552
C40   C     C_3   0.534017 0.081428 0.164704 0.059236
C41   C     C_3   0.601592 0.161780 0.194154 -0.331503
C42   C     C_3   0.662105 0.126872 0.099544 -0.978940
C43   C     C_R   0.810212 0.647487 0.622775 -0.172317
C44   C     C_R   0.739274 0.605818 0.617376 -0.242264
C45   C     C_R   0.712944 0.532479 0.507113 -0.046544
C46   C     C_R   0.759797 0.498086 0.402519 0.193043
C47   C     C_R   0.830665 0.543461 0.407659 -0.152808
H1    H     H_    0.290375 0.563602 0.721723 0.237460
H2    H     H_    0.154461 0.671440 0.309309 0.176805
H3    H     H_    0.829201 0.704007 0.708556 0.150880
H4    H     H_    0.704434 0.633863 0.698562 0.153591
H5    H     H_    0.867097 0.517268 0.328225 0.148366
H6    H     H_    0.654683 0.068526 0.539563 0.242318
H7    H     H_    0.645489 0.217016 0.626021 0.241887
H8    H     H_    0.694865 0.094886 0.705795 0.248656
H9    H     H_    0.230697 0.292825 0.912627 0.152592
H10   H     H_    0.300412 0.185363 0.893990 0.151611
H11   H     H_    0.220943 0.330302 0.671971 0.231465
H12   H     H_    0.458513 0.878009 0.292240 0.184121
H13   H     H_    0.301942 0.248156 0.638078 0.222813
H14   H     H_    0.245507 0.049203 0.701710 0.271703
H15   H     H_    0.189698 0.123876 0.578182 0.271962
H16   H     H_    0.164927 0.127489 0.754134 0.266079
H17   H     H_    0.491381 0.252790 0.873343 0.220971
H18   H     H_    0.418403 0.153289 0.921677 0.196262
H19   H     H_    0.415855 0.219710 0.757998 0.263742
H20   H     H_    0.140075 0.788936 0.902971 0.182286
H21   H     H_    0.160557 0.844382 0.738763 0.126415
H22   H     H_    0.277359 0.718092 0.910999 0.232143
H23   H     H_    0.556884 0.893030 0.814423 0.175729
H24   H     H_    0.287712 0.828646 0.778000 0.209157
H25   H     H_    0.230832 0.991284 0.935323 0.261479
H26   H     H_    0.315784 0.933323 0.994547 0.269757
H27   H     H_    0.233407 0.877300 0.067316 0.264680
H28   H     H_    0.267406 0.543174 0.052243 0.186541
H29   H     H_    0.210927 0.650571 0.128317 0.141759
H30   H     H_    0.206011 0.360153 0.138357 0.211303
H31   H     H_    0.148600 0.450798 0.241902 0.232904
H32   H     H_    0.094229 0.548371 0.039035 0.275456
H33   H     H_    0.085799 0.380571 0.030699 0.251617
H34   H     H_    0.616719 0.875783 0.665294 0.201007
H35   H     H_    0.151966 0.459534 0.930413 0.297090
H36   H     H_    0.711560 0.324759 0.333138 0.239252
H37   H     H_    0.698751 0.454062 0.219730 0.254152
H38   H     H_    0.783289 0.378809 0.229131 0.235584
H39   H     H_    0.516363 0.097457 0.058854 0.152368
H40   H     H_    0.546950 0.980711 0.168914 0.132217
H41   H     H_    0.589161 0.261688 0.180872 0.250694
H42   H     H_    0.619992 0.148325 0.300409 0.206541
H43   H     H_    0.673745 0.026121 0.107046 0.267221
H44   H     H_    0.711492 0.181195 0.127800 0.275173
H45   H     H_    0.570182 0.113110 0.807359 0.159723
H46   H     H_    0.647349 0.148444 0.993353 0.265008
H47   H     H_    0.605418 0.573895 0.130380 0.149392
H48   H     H_    0.605700 0.572676 0.878693 0.148284
H49   H     H_    0.339359 0.375537 0.118427 0.224421
H50   H     H_    0.421327 0.282082 0.126257 0.247288
N1    N     N_R   0.037867 0.691538 0.410827 -0.189676
N2    N     N_R   0.966978 0.678898 0.408127 -0.181297
N3    N     N_R   0.968208 0.655081 0.642963 -0.174722
N4    N     N_R   0.039330 0.666728 0.645242 -0.125658
N5    N     N_R   0.499530 0.499140 0.142800 -0.100252
N6    N     N_R   0.499530 0.499180 0.857150 -0.123735
O1    O     O_R   0.500010 0.316790 0.614690 -0.621725
O2    O     O_3   0.167063 0.651089 0.770397 -0.651671
O3    O     O_3   0.282161 0.557455 0.257456 -0.642655
O4    O     O_3   0.477249 0.115436 0.251031 -0.646931
O5    O     O_R   0.500000 0.316760 0.385350 -0.575613
O6    O     O_R   0.398140 0.500000 0.614710 -0.602735
O7    O     O_R   0.398130 0.499970 0.385370 -0.552675
O8    O     O_R   0.500000 0.683240 0.614650 -0.618523
O9    O     O_R   0.499990 0.683210 0.385310 -0.620886
O10   O     O_R   0.601870 0.500030 0.614630 -0.624839
O11   O     O_R   0.601860 0.500000 0.385290 -0.619531
O12   O     O_3   0.325932 0.377127 0.859521 -0.649930
Zn1   Zn    Zn3+2 0.500000 0.500020 0.653130 0.942652
Zn2   Zn    Zn3+2 0.500000 0.499980 0.346870 0.966539

loop_
_geom_bond_atom_site_label_1
_geom_bond_atom_site_label_2
_ccdc_geom_bond_type
C31   H19   S    
C23   N2    A    
C4    O6    A    
C35   H27   S    
C42   H46   S    
C41   C42   S    
C41   H42   S    
C26   O3    S    
C19   H50   S    
C27   H7    S    
C7    C8    A    
C28   H10   S    
C28   C29   S    
C29   C30   S    
C1    C5    S    
C40   H40   S    
C36   C37   S    
C28   O12   S    
C39   H37   S    
C18   C19   S    
C15   H48   S    
C5    C6    A    
C27   H8    S    
C14   N5    A    
C38   H32   S    
C42   H44   S    
C40   H39   S    
C36   H29   S    
O6    Zn1   S    
C34   N1    A    
O1    Zn1   S    
C11   H45   S    
C8    C9    A    
C6    O4    S    
O8    Zn1   S    
C4    C12   S    
C9    C10   S    
C20   C45   S    
C33   H22   S    
C32   H21   S    
O10   Zn1   S    
C23   N3    A    
C8    C16   S    
C21   C22   A    
C38   H35   S    
O5    Zn2   S    
O7    Zn2   S    
C7    H12   S    
C28   H9    S    
C34   N4    A    
C13   C19   S    
C36   O3    S    
C24   C25   A    
C25   C26   A    
C45   C46   A    
C37   H30   S    
C12   C21   A    
C24   C34   S    
C12   C26   A    
C42   H43   S    
C43   C44   A    
C37   C38   S    
C3    C9    A    
C36   H28   S    
C29   H13   S    
C11   C27   S    
C2    C43   A    
C17   C18   S    
C1    O1    A    
C47   H5    S    
N5    Zn2   S    
C39   C46   S    
C10   H23   S    
C44   H4    S    
C40   C41   S    
C35   H25   S    
C32   O2    S    
C32   H20   S    
C22   C24   A    
C39   H38   S    
C44   C45   A    
C16   O9    A    
C31   H18   S    
C41   H41   S    
C4    O7    A    
C46   C47   A    
C35   H26   S    
C31   H17   S    
C3    C5    A    
C18   O12   S    
C27   H6    S    
C43   H3    S    
C6    C7    A    
C2    C47   A    
C22   O2    S    
C37   H31   S    
C10   H34   S    
C13   C17   A    
C32   C33   S    
C21   H1    S    
C30   H15   S    
N6    Zn1   S    
C17   N6    A    
C39   H36   S    
C20   O11   A    
C40   O4    S    
O9    Zn2   S    
C38   H33   S    
N3    N4    A    
C33   C35   S    
C20   O10   A    
C25   H2    S    
O11   Zn2   S    
C3    C11   S    
C10   C11   S    
C33   H24   S    
C1    O5    A    
C29   H11   S    
N1    N2    A    
C30   H14   S    
C2    C23   S    
C14   C15   A    
C18   C31   S    
C15   N6    A    
C13   N5    A    
C30   H16   S    
C14   H47   S    
C19   H49   S    
C16   O8    A    
