data_mof_unit_48586.cif
_audit_creation_date              2012-12-10T19:07:02-0500
_audit_creation_method            fapswitch 2.2
_symmetry_space_group_name_H-M    P1
_symmetry_Int_Tables_number       1
_space_group_crystal_system       triclinic
_cell_length_a                    27.83143
_cell_length_b                    10.821332
_cell_length_c                    9.530185
_cell_angle_alpha                 90.263091
_cell_angle_beta                  89.992406
_cell_angle_gamma                 90.26121
_cell_volume                      2870.17567568

loop_
_atom_site_label
_atom_site_type_symbol
_atom_type_description
_atom_site_fract_x
_atom_site_fract_y
_atom_site_fract_z
_atom_type_partial_charge
C1    C     C_R   0.502214 0.262231 0.499336 0.812197
C2    C     C_R   0.278869 0.497296 0.373080 -0.101995
C3    C     C_R   0.253664 0.497732 0.500284 0.355711
C4    C     C_R   0.101915 0.496419 0.500787 -0.043961
C5    C     C_R   0.127510 0.393497 0.550289 -0.020347
C6    C     C_R   0.102368 0.290869 0.600225 -0.145266
C7    C     C_R   0.127584 0.599746 0.451067 -0.020615
C8    C     C_R   0.354526 0.499192 0.500072 -0.042678
C9    C     C_R   0.645568 0.496457 0.500303 -0.039371
C10   C     C_R   0.974439 0.387661 0.543665 0.042495
C11   C     C_R   0.974546 0.603222 0.458960 0.042557
C12   C     C_R   0.407456 0.499790 0.499997 0.801075
C13   C     C_R   0.949260 0.495243 0.501374 0.068101
C14   C     C_R   0.947380 0.281119 0.579091 -0.206021
C15   C     C_R   0.897490 0.281598 0.577563 -0.145145
C16   C     C_R   0.872445 0.387862 0.540058 -0.020886
C17   C     C_R   0.898141 0.494844 0.501475 -0.043803
C18   C     C_R   0.872572 0.601429 0.462966 -0.020898
C19   C     C_R   0.822133 0.599129 0.463827 0.534790
C20   C     C_R   0.821995 0.389346 0.539125 0.534641
C21   C     C_R   0.721385 0.498753 0.373895 -0.099127
C22   C     C_R   0.671297 0.499718 0.373418 -0.215775
C23   C     C_R   0.501224 0.737569 0.500391 0.819482
C24   C     C_R   0.671014 0.490096 0.627522 -0.213123
C25   C     C_R   0.721112 0.488836 0.627771 -0.100451
C26   C     C_R   0.746453 0.493694 0.501028 0.355710
C27   C     C_R   0.025515 0.389647 0.548328 0.042128
C28   C     C_R   0.050795 0.496022 0.501004 0.067974
C29   C     C_R   0.025608 0.602008 0.453886 0.042157
C30   C     C_R   0.052479 0.288826 0.599709 -0.205951
C31   C     C_R   0.102525 0.701967 0.401301 -0.145167
C32   C     C_R   0.947606 0.709389 0.423814 -0.206106
C33   C     C_R   0.897725 0.708126 0.425516 -0.145187
C34   C     C_R   0.592579 0.498977 0.500046 0.795766
C35   C     C_R   0.052645 0.703226 0.402218 -0.205933
C36   C     C_R   0.500385 0.064105 0.622883 0.099455
C37   C     C_R   0.508647 0.128859 0.498632 -0.118706
C38   C     C_R   0.525191 0.061788 0.379092 0.149620
C39   C     C_R   0.523662 0.932230 0.382121 -0.204817
C40   C     C_R   0.507259 0.870156 0.501873 -0.141286
C41   C     C_R   0.499931 0.937285 0.624691 0.117333
C42   C     C_3   0.459663 0.932070 0.727956 -0.446830
C43   C     C_3   0.460176 0.072454 0.726428 -0.465217
C44   C     C_R   0.518662 0.598007 0.074058 0.261406
C45   C     C_R   0.177959 0.395736 0.549086 0.534190
C46   C     C_R   0.476459 0.410870 0.074032 -0.086594
C47   C     C_R   0.476509 0.410783 0.925028 -0.076908
C48   C     C_R   0.518551 0.598107 0.926667 0.254574
C49   C     C_3   0.568674 0.646409 0.920175 -0.494103
C50   C     C_3   0.568994 0.645491 0.079411 -0.501505
C51   C     C_R   0.178027 0.598335 0.451889 0.534525
C52   C     C_R   0.278920 0.498852 0.627379 -0.101819
C53   C     C_R   0.329019 0.499555 0.627431 -0.221302
C54   C     C_R   0.328970 0.498020 0.372820 -0.216021
Cu1   Cu    Cu3+1 0.500000 0.499980 0.640670 0.944894
Cu2   Cu    Cu3+1 0.500000 0.500020 0.359330 0.941278
H1    H     H_    0.347622 0.497533 0.273082 0.159725
H2    H     H_    0.259657 0.499584 0.726112 0.142930
H3    H     H_    0.121415 0.782026 0.360891 0.188529
H4    H     H_    0.963829 0.796435 0.396415 0.139092
H5    H     H_    0.652342 0.485697 0.726868 0.149691
H6    H     H_    0.878909 0.791864 0.397322 0.188614
H7    H     H_    0.740300 0.484660 0.726467 0.141264
H8    H     H_    0.036499 0.784871 0.359194 0.140268
H9    H     H_    0.533477 0.880169 0.289268 0.156047
H10   H     H_    0.426335 0.890992 0.682882 0.201123
H11   H     H_    0.259565 0.496049 0.274427 0.142796
H12   H     H_    0.471175 0.892664 0.830048 0.196446
H13   H     H_    0.427081 0.113267 0.680932 0.198841
H14   H     H_    0.472036 0.113492 0.827846 0.193886
H15   H     H_    0.457948 0.337874 0.129480 0.138385
H16   H     H_    0.458067 0.337735 0.868827 0.138069
H17   H     H_    0.594147 0.579192 0.873626 0.212933
H18   H     H_    0.570344 0.740942 0.875207 0.198440
H19   H     H_    0.594409 0.577128 0.123143 0.212092
H20   H     H_    0.571414 0.739458 0.126203 0.189546
H21   H     H_    0.121201 0.211093 0.640446 0.188442
H22   H     H_    0.652878 0.502892 0.273750 0.147938
H23   H     H_    0.740786 0.501712 0.275453 0.140756
H24   H     H_    0.878581 0.197588 0.605886 0.188613
H25   H     H_    0.963512 0.194363 0.606568 0.139096
H26   H     H_    0.036271 0.206896 0.642777 0.140240
H27   H     H_    0.347707 0.500472 0.727100 0.159457
N1    N     N_R   0.202107 0.497237 0.500397 -0.467911
N2    N     N_R   0.797978 0.494029 0.501385 -0.468816
N3    N     N_R   0.500300 0.500930 0.147930 -0.183447
N4    N     N_R   0.500310 0.500890 0.852020 -0.184101
O1    O     O_R   0.500000 0.319640 0.618810 -0.581449
O2    O     O_2   0.797113 0.286810 0.574654 -0.534230
O3    O     O_2   0.202843 0.697605 0.405743 -0.536781
O4    O     O_2   0.797386 0.701310 0.428325 -0.534168
O5    O     O_R   0.500010 0.319680 0.381230 -0.582227
O6    O     O_R   0.430260 0.500000 0.618780 -0.584725
O7    O     O_R   0.430270 0.500040 0.381190 -0.580772
O8    O     O_R   0.499990 0.680320 0.618770 -0.577631
O9    O     O_R   0.500000 0.680360 0.381190 -0.583011
O10   O     O_R   0.569730 0.499960 0.618810 -0.583699
O11   O     O_R   0.569740 0.500000 0.381220 -0.586441
O12   O     O_2   0.202709 0.296887 0.595067 -0.537779
C55   C     C_3   0.543253 0.123236 0.247307 -0.802906
H28   H     H_    0.570767 0.194181 0.274003 0.240670
H29   H     H_    0.560357 0.055795 0.174849 0.212901
H30   H     H_    0.512923 0.165914 0.190116 0.234122

loop_
_geom_bond_atom_site_label_1
_geom_bond_atom_site_label_2
_ccdc_geom_bond_type
C10   C27   A    
C21   C26   A    
C24   H5    S    
C41   C42   S    
Cu1   O10   S    
Cu2   O11   S    
Cu1   Cu2   S    
Cu2   O7    S    
C28   C29   A    
C16   C20   A    
C51   O3    S    
C5    C6    A    
C9    C22   A    
C23   C40   S    
C34   O10   A    
C23   O9    A    
C18   C19   A    
C25   H7    S    
C31   H3    S    
Cu1   O1    S    
C16   C17   A    
C35   H8    S    
C1    C37   S    
C1    O1    A    
C43   H13   S    
C21   C22   A    
C27   C30   A    
C42   H12   S    
C39   H9    S    
C12   O7    A    
C36   C41   A    
C4    C7    A    
C44   N3    A    
C4    C28   A    
C7    C31   A    
C24   C25   A    
C22   H22   S    
Cu1   O8    S    
C2    H11   S    
C45   O12   S    
C8    C54   A    
C39   C40   A    
C33   H6    S    
C6    H21   S    
C25   C26   A    
C5    C45   A    
C55   H30   S    
C47   N4    A    
C30   H26   S    
C37   C38   A    
C50   H20   S    
Cu2   N3    S    
C15   H24   S    
C8    C12   S    
C20   N2    A    
C21   H23   S    
C55   H29   S    
C17   C18   A    
C48   N4    A    
C46   H15   S    
C52   H2    S    
C38   C55   S    
C48   C49   S    
C6    C30   A    
C11   C32   A    
C43   H14   S    
C2    C54   A    
C9    C34   S    
C31   C35   A    
C12   O6    A    
C45   N1    A    
C42   C43   S    
C32   H4    S    
C3    N1    S    
C52   C53   A    
C44   C50   S    
Cu2   O9    S    
C46   C47   A    
C40   C41   A    
Cu1   O6    S    
C14   C15   A    
C4    C5    A    
C19   N2    A    
C10   C13   A    
C8    C53   A    
C3    C52   A    
C9    C24   A    
C1    O5    A    
C20   O2    S    
C29   C35   A    
C13   C17   A    
C53   H27   S    
C32   C33   A    
C2    C3    A    
C7    C51   A    
C50   H19   S    
C11   C13   A    
C38   C39   A    
C26   N2    S    
C55   H28   S    
C34   O11   A    
C23   O8    A    
C49   H17   S    
Cu1   N4    S    
C18   C33   A    
C47   H16   S    
C19   O4    S    
C44   C48   A    
Cu2   O5    S    
C11   C29   A    
C36   C37   A    
C49   C50   S    
C27   C28   A    
C42   H10   S    
C49   H18   S    
C36   C43   S    
C14   H25   S    
C51   N1    A    
C15   C16   A    
C10   C14   A    
C46   N3    A    
C54   H1    S    
