data_mof_unit_48905.cif
_audit_creation_date              2012-10-26T20:03:20-0400
_audit_creation_method            fapswitch 2.2
_symmetry_space_group_name_H-M    P1
_symmetry_Int_Tables_number       1
_space_group_crystal_system       triclinic
_cell_length_a                    10.62861
_cell_length_b                    12.368688
_cell_length_c                    13.275253
_cell_angle_alpha                 117.576274
_cell_angle_beta                  77.094424
_cell_angle_gamma                 101.340207
_cell_volume                      1499.04663844

loop_
_atom_site_label
_atom_site_type_symbol
_atom_type_description
_atom_site_fract_x
_atom_site_fract_y
_atom_site_fract_z
_atom_type_partial_charge
C1    C     C_R   0.514833 0.854559 0.286521 0.613504
C2    C     C_R   0.507409 0.568610 0.004753 -0.064557
C3    C     C_R   0.556183 0.659741 0.105728 -0.112167
C4    C     C_R   0.740024 0.999615 0.499909 0.625626
C5    C     C_R   0.538112 0.446275 0.960775 -0.033994
C6    C     C_R   0.641220 0.425115 0.999310 -0.132655
C7    C     C_R   0.707830 0.523069 0.081805 0.455214
C8    C     C_R   0.661960 0.637774 0.139049 0.435573
C9    C     C_R   0.469599 0.343879 0.881140 0.403307
C10   C     C_R   0.617744 0.209333 0.866398 0.304326
C11   C     C_R   0.504396 0.773704 0.165080 -0.033937
C12   C     C_3   0.017712 0.018777 0.604957 -0.138577
C13   C     C_R   0.713908 0.349921 0.336854 -0.071270
C14   C     C_R   0.315216 0.757369 0.636522 0.040157
C15   C     C_R   0.261664 0.654242 0.653431 -0.037611
C16   C     C_R   0.487673 0.145554 0.712775 0.608243
C17   C     C_R   0.323986 0.547858 0.596372 0.503932
C18   C     C_R   0.448087 0.547131 0.528512 0.010491
C19   C     C_R   0.493177 0.652586 0.507159 0.051972
C20   C     C_R   0.525907 0.445489 0.475056 -0.053316
C21   C     C_R   0.639952 0.449583 0.396294 -0.099817
C22   C     C_R   0.680552 0.553598 0.377922 0.407068
C23   C     C_3   0.933034 0.910445 0.524528 0.380230
C24   C     C_R   0.605747 0.650016 0.428351 0.010532
C25   C     C_R   0.501913 0.342280 0.499444 0.568966
C26   C     C_R   0.677527 0.247226 0.357027 0.479700
C27   C     C_R   0.259936 0.000309 0.500032 0.558316
C28   C     C_3   0.982651 0.981354 0.397052 0.395175
C29   C     C_3   0.039910 0.890447 0.419508 -0.119089
C30   C     C_3   0.123325 0.000414 0.499642 -0.091624
C31   C     C_3   0.067151 0.089654 0.475716 0.429535
C32   C     C_3   0.960202 0.109132 0.580574 -0.163375
C33   C     C_3   0.876443 0.999478 0.500660 -0.013344
C34   C     C_R   0.678463 0.306541 0.953080 -0.067684
C35   C     C_R   0.515450 0.228743 0.828258 0.029812
C36   C     C_R   0.426280 0.805020 0.112518 -0.142150
C37   C     C_R   0.397930 0.723859 0.003286 0.442913
C38   C     C_R   0.437494 0.606357 0.949090 0.510157
Cu1   Cu    Cu3+1 0.529830 0.098270 0.475420 1.233823
Cu2   Cu    Cu3+1 0.470170 0.901730 0.524580 1.060025
F1    F     F_    0.355418 0.351698 0.856426 -0.513821
F2    F     F_    0.138459 0.181701 0.448935 -0.496461
F3    F     F_    0.861531 0.817943 0.550497 -0.545060
F4    F     F_    0.665412 0.098778 0.813760 -0.584302
F5    F     F_    0.819515 0.507872 0.104758 -0.514536
F6    F     F_    0.421382 0.537509 0.837421 -0.479135
F7    F     F_    0.330123 0.758810 0.949987 -0.546952
F8    F     F_    0.730558 0.730660 0.217800 -0.548464
F9    F     F_    0.747715 0.149936 0.298702 -0.529391
F10   F     F_    0.797123 0.564950 0.314585 -0.520761
F11   F     F_    0.416402 0.340336 0.590752 -0.454048
F12   F     F_    0.962266 0.963737 0.290954 -0.482475
F13   F     F_    0.253155 0.444985 0.598206 -0.482600
H1    H     H_    0.073947 0.801237 0.354004 0.194883
H2    H     H_    0.386981 0.892713 0.156364 0.179418
H3    H     H_    0.799034 0.350903 0.274496 0.229536
H4    H     H_    0.263746 0.838049 0.678311 0.163779
H5    H     H_    0.168046 0.654839 0.706582 0.182730
H6    H     H_    0.638475 0.720629 0.401597 0.241869
H7    H     H_    0.925714 0.198364 0.645537 0.187856
H8    H     H_    0.034319 0.032712 0.690008 0.191583
H9    H     H_    0.758015 0.289635 0.980803 0.227048
N1    N     N_R   0.575030 0.246270 0.438190 -0.260267
N2    N     N_R   0.425760 0.754330 0.561190 -0.257299
O1    O     O_R   0.537510 0.972500 0.318130 -0.451866
O2    O     O_R   0.487140 0.806530 0.359650 -0.532353
O3    O     O_R   0.708330 0.082950 0.479220 -0.452184
O4    O     O_R   0.657960 0.916980 0.520740 -0.465364
O5    O     O_R   0.512860 0.193470 0.640350 -0.442931
O6    O     O_R   0.462490 0.027500 0.681870 -0.469495
O7    O     O_R   0.342040 0.083020 0.479260 -0.413524
O8    O     O_R   0.291670 0.917050 0.520780 -0.538843

loop_
_geom_bond_atom_site_label_1
_geom_bond_atom_site_label_2
_ccdc_geom_bond_type
C20   C25   A    
C31   F2    S    
C1    C11   S    
C8    F8    S    
C7    C8    A    
C12   C23   S    
C37   C38   A    
Cu2   O6    S    
C23   C29   S    
C36   C37   A    
C16   C35   S    
C5    C6    A    
C29   H1    S    
C34   H9    S    
C23   F3    S    
C18   C19   A    
C25   N1    A    
C23   C33   S    
C1    O1    A    
C10   C35   A    
C37   F7    S    
C22   F10   S    
C13   H3    S    
C7    F5    S    
Cu2   O2    S    
C21   C22   A    
C12   C32   S    
C27   C30   S    
Cu1   O1    S    
C17   C18   A    
C10   F4    S    
C16   O6    A    
C3    C8    A    
C26   F9    S    
Cu1   Cu2   S    
C4    O4    A    
C6    C34   A    
C11   C36   A    
C26   N1    A    
C25   F11   S    
C5    C9    A    
C29   C30   S    
C2    C38   A    
C31   C32   S    
C19   N2    A    
C14   N2    A    
C1    O2    A    
Cu1   O5    S    
C13   C21   A    
C10   C34   A    
C28   C33   S    
C15   H5    S    
C22   C24   A    
C13   C26   A    
C2    C5    A    
C32   H7    S    
C17   F13   S    
C27   O7    A    
C15   C17   A    
C14   H4    S    
C4    C33   S    
C28   C29   S    
Cu2   O8    S    
C12   C30   S    
Cu1   O3    S    
C28   C31   S    
C16   O5    A    
C4    O3    A    
C6    C7    A    
Cu1   N1    S    
C9    F1    S    
Cu2   N2    S    
C32   C33   S    
C19   C24   A    
C36   H2    S    
C12   H8    S    
C28   F12   S    
C30   C31   S    
C24   H6    S    
C2    C3    A    
C18   C20   A    
C38   F6    S    
C3    C11   A    
C20   C21   A    
Cu2   O4    S    
C9    C35   A    
Cu1   O7    S    
C14   C15   A    
C27   O8    A    
