data_mof_unit_14401.cif
_audit_creation_date              2012-12-10T19:07:03-0500
_audit_creation_method            fapswitch 2.2
_symmetry_space_group_name_H-M    P1
_symmetry_Int_Tables_number       1
_space_group_crystal_system       triclinic
_cell_length_a                    27.803009
_cell_length_b                    10.855762
_cell_length_c                    9.53369
_cell_angle_alpha                 90.001003
_cell_angle_beta                  89.966318
_cell_angle_gamma                 90.183765
_cell_volume                      2877.47017575

loop_
_atom_site_label
_atom_site_type_symbol
_atom_type_description
_atom_site_fract_x
_atom_site_fract_y
_atom_site_fract_z
_atom_type_partial_charge
C1    C     C_R   0.500505 0.262681 0.499944 0.815315
C2    C     C_R   0.278733 0.495158 0.627349 -0.101917
C3    C     C_R   0.253493 0.499601 0.500412 0.356835
C4    C     C_R   0.101755 0.498405 0.497429 -0.044394
C5    C     C_R   0.127197 0.392859 0.539747 -0.019354
C6    C     C_R   0.101755 0.288439 0.583328 -0.163366
C7    C     C_R   0.127411 0.605241 0.459028 -0.020260
C8    C     C_R   0.354446 0.499768 0.500155 -0.038409
C9    C     C_R   0.645414 0.497545 0.499073 -0.163520
C10   C     C_R   0.974541 0.382615 0.506992 0.037492
C11   C     C_R   0.974623 0.608573 0.474400 0.056466
C12   C     C_R   0.407435 0.499905 0.500025 0.797193
C13   C     C_R   0.949305 0.495681 0.492036 0.024262
C14   C     C_R   0.947707 0.270583 0.499865 0.135643
C15   C     C_R   0.897451 0.273159 0.501565 -0.192669
C16   C     C_R   0.872508 0.384559 0.501547 -0.054183
C17   C     C_R   0.898253 0.496000 0.493472 -0.048193
C18   C     C_R   0.872815 0.607860 0.486126 -0.013062
C19   C     C_R   0.822327 0.606082 0.488861 0.544322
C20   C     C_R   0.822013 0.386851 0.504356 0.561583
C21   C     C_R   0.720965 0.444810 0.386474 -0.166052
C22   C     C_R   0.670807 0.444846 0.386306 0.569296
C23   C     C_R   0.500233 0.737320 0.499838 0.805757
C24   C     C_R   0.671101 0.549247 0.611486 -0.301570
C25   C     C_R   0.721251 0.548792 0.611334 -0.087220
C26   C     C_R   0.746383 0.496684 0.498780 0.259278
C27   C     C_R   0.025381 0.386748 0.524717 0.053095
C28   C     C_R   0.050698 0.497356 0.494525 0.056641
C29   C     C_R   0.025496 0.607282 0.463314 0.042453
C30   C     C_R   0.051789 0.286147 0.578161 -0.162576
C31   C     C_R   0.102223 0.711038 0.419975 -0.141419
C32   C     C_R   0.948080 0.719389 0.469605 -0.205300
C33   C     C_R   0.898167 0.718821 0.475826 -0.145040
C34   C     C_R   0.592509 0.499142 0.499839 0.854270
C35   C     C_R   0.052230 0.712479 0.422702 -0.206030
C36   C     C_R   0.501459 0.061972 0.621783 0.072140
C37   C     C_R   0.501897 0.130117 0.498587 -0.109221
C38   C     C_R   0.503396 0.064654 0.370661 -0.179452
C39   C     C_R   0.503210 0.935490 0.370513 -0.203706
C40   C     C_R   0.501293 0.869905 0.498276 -0.089302
C41   C     C_R   0.500676 0.937781 0.621450 0.077765
C42   C     C_3   0.497009 0.927153 0.776978 -0.438553
C43   C     C_3   0.497949 0.069225 0.778328 -0.048545
C44   C     C_R   0.522970 0.591540 0.073710 0.240066
C45   C     C_R   0.177678 0.395341 0.540486 0.537450
C46   C     C_R   0.473367 0.417145 0.074505 -0.053706
C47   C     C_R   0.473279 0.417334 0.925530 -0.085332
C48   C     C_R   0.523217 0.591032 0.926208 0.255652
C49   C     C_3   0.575645 0.619900 0.921295 -0.505590
C50   C     C_3   0.575165 0.622619 0.080250 -0.465024
C51   C     C_R   0.177897 0.603595 0.460572 0.534320
C52   C     C_R   0.278727 0.504104 0.373360 -0.102890
C53   C     C_R   0.328879 0.504059 0.373061 -0.216431
C54   C     C_R   0.328890 0.495334 0.627386 -0.218248
Cu1   Cu    Cu3+1 0.500000 0.499980 0.640670 0.940353
Cu2   Cu    Cu3+1 0.500000 0.500020 0.359330 0.973735
H1    H     H_    0.347586 0.491896 0.726921 0.157693
H2    H     H_    0.259401 0.507231 0.274850 0.141206
H3    H     H_    0.121077 0.793887 0.387927 0.189574
H4    H     H_    0.965011 0.808795 0.465188 0.137132
H5    H     H_    0.652473 0.591823 0.698350 0.175974
H6    H     H_    0.879500 0.806218 0.472053 0.185721
H7    H     H_    0.740635 0.589077 0.698580 0.163960
H8    H     H_    0.035419 0.796684 0.388660 0.144281
H9    H     H_    0.504289 0.112463 0.270963 0.177200
H10   H     H_    0.504155 0.887784 0.270757 0.166466
H11   H     H_    0.461942 0.887532 0.810593 0.178833
H12   H     H_    0.259417 0.491948 0.725951 0.141393
H13   H     H_    0.529224 0.883080 0.823840 0.199868
H14   H     H_    0.464172 0.112229 0.816826 0.153468
H15   H     H_    0.452591 0.348532 0.130454 0.134906
H16   H     H_    0.452377 0.349017 0.869619 0.134023
H17   H     H_    0.597180 0.542259 0.879093 0.227908
H18   H     H_    0.583255 0.711108 0.873248 0.189442
H19   H     H_    0.597200 0.548283 0.127349 0.273065
H20   H     H_    0.581536 0.716029 0.124403 0.192950
H21   H     H_    0.120346 0.208137 0.623063 0.189864
H22   H     H_    0.740216 0.404246 0.299252 0.172733
H23   H     H_    0.878024 0.186461 0.498664 0.190818
H24   H     H_    0.034547 0.206464 0.623371 0.177527
H25   H     H_    0.347564 0.507480 0.273431 0.158082
N1    N     N_R   0.201903 0.499483 0.500438 -0.469183
N2    N     N_R   0.798018 0.496588 0.498143 -0.454512
N3    N     N_R   0.500300 0.500930 0.147930 -0.180206
N4    N     N_R   0.500310 0.500890 0.852020 -0.186463
O1    O     O_R   0.500000 0.319640 0.618810 -0.597750
O2    O     O_2   0.797070 0.280318 0.514162 -0.525847
O3    O     O_2   0.202825 0.705473 0.423749 -0.534052
O4    O     O_2   0.797699 0.712781 0.480622 -0.530308
O5    O     O_R   0.500010 0.319680 0.381230 -0.577269
O6    O     O_R   0.430260 0.500000 0.618780 -0.585945
O7    O     O_R   0.430270 0.500040 0.381190 -0.588737
O8    O     O_R   0.499990 0.680320 0.618770 -0.580723
O9    O     O_R   0.500000 0.680360 0.381190 -0.592528
O10   O     O_R   0.569730 0.499960 0.618810 -0.593369
O11   O     O_R   0.569740 0.500000 0.381220 -0.533386
O12   O     O_2   0.202384 0.294187 0.579546 -0.535038
N5    N     N_3   0.541447 0.118794 0.844493 -0.556878
H26   H     H_    0.572100 0.086288 0.792707 0.242907
H27   H     H_    0.541212 0.214476 0.832970 0.251584
F1    F     F_    0.647307 0.390619 0.277787 -0.665474
N6    N     N_3   0.970536 0.154273 0.475666 -0.612837
H28   H     H_    0.959710 0.093332 0.554688 0.211703
H29   H     H_    0.958235 0.119269 0.379941 0.229373

loop_
_geom_bond_atom_site_label_1
_geom_bond_atom_site_label_2
_ccdc_geom_bond_type
C10   C27   A    
C21   C26   A    
C1    O5    A    
C41   C42   S    
C12   O6    A    
C45   N1    A    
C43   N5    S    
Cu1   Cu2   S    
C8    C53   A    
Cu2   O9    S    
C28   C29   A    
C26   N2    S    
C22   F1    S    
C47   N4    A    
C36   C37   A    
C34   O11   A    
C2    H12   S    
C5    C6    A    
C9    C22   A    
C14   N6    S    
C42   H11   S    
C23   C40   S    
C20   O2    S    
C53   H25   S    
C18   C19   A    
C25   H7    S    
C31   H3    S    
Cu1   O6    S    
C15   H23   S    
C33   H6    S    
C21   H22   S    
C35   H8    S    
C16   C20   A    
C30   H24   S    
Cu2   O5    S    
C21   C22   A    
C27   C30   A    
C36   C41   A    
C4    C7    A    
C19   N2    A    
C4    C28   A    
Cu2   N3    S    
C7    C31   A    
C48   N4    A    
C24   C25   A    
Cu1   O10   S    
C2    C54   A    
C8    C54   A    
C39   C40   A    
C16   C17   A    
C6    H21   S    
C25   C26   A    
C5    C45   A    
C42   H13   S    
C23   O8    A    
Cu1   N4    S    
C37   C38   A    
C19   O4    S    
C50   H20   S    
C38   H9    S    
C8    C12   S    
C3    N1    S    
C17   C18   A    
C34   O10   A    
N6    H29   S    
C51   N1    A    
C46   H15   S    
C52   H2    S    
C24   H5    S    
C46   N3    A    
C48   C49   S    
C6    C30   A    
C11   C32   A    
N5    H26   S    
C43   H14   S    
N5    H27   S    
C10   C14   A    
C9    C34   S    
C39   H10   S    
C49   H17   S    
C42   C43   S    
C32   H4    S    
C52   C53   A    
C44   C50   S    
C1    O1    A    
Cu2   O11   S    
C46   C47   A    
C40   C41   A    
C14   C15   A    
C12   O7    A    
C4    C5    A    
C44   N3    A    
C10   C13   A    
C51   O3    S    
C3    C52   A    
C9    C24   A    
C1    C37   S    
C29   C35   A    
C23   O9    A    
C13   C17   A    
C32   C33   A    
Cu1   O1    S    
C2    C3    A    
C7    C51   A    
C45   O12   S    
C50   H19   S    
C11   C13   A    
C38   C39   A    
C31   C35   A    
N6    H28   S    
C18   C33   A    
C47   H16   S    
C44   C48   A    
Cu2   O7    S    
C11   C29   A    
C49   C50   S    
C20   N2    A    
C27   C28   A    
C49   H18   S    
C36   C43   S    
Cu1   O8    S    
C15   C16   A    
C54   H1    S    
