data_mof_unit_34481.cif
_audit_creation_date              2012-12-11T17:11:30-0500
_audit_creation_method            fapswitch 2.2
_symmetry_space_group_name_H-M    P1
_symmetry_Int_Tables_number       1
_space_group_crystal_system       triclinic
_cell_length_a                    15.010379
_cell_length_b                    6.939314
_cell_length_c                    13.675573
_cell_angle_alpha                 90.044826
_cell_angle_beta                  101.033102
_cell_angle_gamma                 89.946616
_cell_volume                      1398.14169835

loop_
_atom_site_label
_atom_site_type_symbol
_atom_type_description
_atom_site_fract_x
_atom_site_fract_y
_atom_site_fract_z
_atom_type_partial_charge
O1    O     O_R   0.398250 0.605080 0.401520 -0.542462
O2    O     O_R   0.898250 0.394920 0.901520 -0.537837
O3    O     O_R   0.584130 0.932110 0.405450 -0.519048
O4    O     O_R   0.084130 0.067890 0.905450 -0.510613
O5    O     O_R   0.601750 0.105090 0.598480 -0.538323
O6    O     O_R   0.101750 0.894910 0.098480 -0.539814
C1    C     C_R   0.611886 0.761876 0.383230 0.715448
C2    C     C_R   0.111667 0.237903 0.882931 0.686367
O7    O     O_R   0.397870 0.934620 0.389680 -0.542223
O8    O     O_R   0.897870 0.065380 0.889680 -0.540536
O9    O     O_R   0.414160 0.107620 0.582600 -0.542976
O10   O     O_R   0.914160 0.892380 0.082600 -0.546471
C3    C     C_R   0.364047 0.765725 0.362583 0.727318
C4    C     C_R   0.864035 0.234296 0.862596 0.732927
O11   O     O_R   0.585840 0.602550 0.417400 -0.531000
O12   O     O_R   0.085840 0.397450 0.917400 -0.530764
O13   O     O_3   0.505560 0.772440 0.563310 -0.373239
O14   O     O_3   0.005560 0.227560 0.063310 -0.380223
V1    V     V_3+5 0.498970 0.046250 0.488250 1.503482
V2    V     V_3+5 0.998970 0.953750 0.988250 1.520565
O15   O     O_R   0.415870 0.437500 0.594550 -0.534715
O16   O     O_R   0.915870 0.562500 0.094550 -0.537472
C5    C     C_R   0.387914 0.267866 0.615328 0.723110
C6    C     C_R   0.887855 0.732389 0.115273 0.722037
O17   O     O_R   0.602130 0.434980 0.610320 -0.536743
O18   O     O_R   0.102130 0.565020 0.110320 -0.543476
C7    C     C_R   0.636033 0.265914 0.637257 0.752776
C8    C     C_R   0.136045 0.734056 0.137240 0.743804
V3    V     V_3+5 0.501030 0.546580 0.511750 1.507397
V4    V     V_3+5 0.001030 0.453420 0.011750 1.494471
O19   O     O_3   0.494440 0.270520 0.436690 -0.366279
O20   O     O_3   0.994440 0.729480 0.936690 -0.352378
C9    C     C_1   0.716406 0.255205 0.716804 -0.157799
C10   C     C_1   0.216424 0.744754 0.216780 -0.167423
C11   C     C_1   0.783709 0.245017 0.782993 -0.162099
C12   C     C_1   0.283726 0.755002 0.282969 -0.165574
C13   C     C_2   0.243953 0.182466 0.663138 -0.137860
C14   C     C_2   0.742824 0.812680 0.162308 -0.128730
C15   C     C_2   0.328872 0.252416 0.688635 -0.223138
C16   C     C_2   0.828794 0.748771 0.188575 -0.246689
H1    H     H_    0.221022 0.136752 0.586343 0.137738
H2    H     H_    0.718981 0.853185 0.084889 0.140367
H3    H     H_    0.358773 0.287832 0.764942 0.129579
H4    H     H_    0.859337 0.719292 0.265402 0.126525
C17   C     C_2   0.180545 0.149604 0.734097 -0.011249
C18   C     C_2   0.679142 0.845416 0.233102 -0.056751
C19   C     C_2   0.179366 0.261039 0.816761 -0.327648
C20   C     C_2   0.679814 0.738140 0.317336 -0.240092
C21   C     C_2   0.110873 0.999416 0.701658 0.804717
O21   O     O_2   0.105252 0.859307 0.754153 -0.513773
O22   O     O_R   0.054589 0.014284 0.607908 -0.668860
H5    H     H_    0.010701 0.902360 0.592993 0.302213
C22   C     C_2   0.607223 0.990702 0.199623 0.777058
O23   O     O_2   0.555420 0.968997 0.119765 -0.555033
O24   O     O_R   0.601112 0.155739 0.256516 -0.630763
H6    H     H_    0.550050 0.244610 0.224824 0.302961
C23   C     C_2   0.234884 0.440664 0.836384 0.871997
O25   O     O_2   0.235301 0.557234 0.769630 -0.501963
O26   O     O_R   0.283646 0.482413 0.931757 -0.638779
H7    H     H_    0.280259 0.375581 0.981383 0.248592
C24   C     C_2   0.737546 0.562504 0.339125 0.804570
O27   O     O_2   0.777262 0.531075 0.424368 -0.561316
O28   O     O_R   0.743147 0.429599 0.263571 -0.639828
H8    H     H_    0.783805 0.315998 0.288198 0.305936

loop_
_geom_bond_atom_site_label_1
_geom_bond_atom_site_label_2
_ccdc_geom_bond_type
O14   V2    S    
V4    O20   S    
O24   H6    S    
O3    V1    S    
O5    V1    S    
C19   C23   S    
O13   V3    S    
O10   C6    A    
O18   C8    A    
C17   C21   S    
O4    C2    A    
V1    O19   S    
C1    C20   S    
O10   V2    S    
C2    O12   A    
C1    O11   A    
C23   O25   D    
C2    C19   S    
C8    C10   S    
O26   H7    S    
C13   C15   D    
C22   O23   D    
C7    C9    S    
C14   C16   D    
O9    V1    S    
C20   C24   S    
O15   V3    S    
C3    C12   S    
O14   V4    S    
C18   C22   S    
O1    V3    S    
C9    C11   T    
V2    O20   S    
O11   V3    S    
O3    C1    A    
C10   C12   T    
C22   O24   S    
O15   C5    A    
C13   H1    S    
C24   O27   D    
O2    C4    A    
O16   C6    A    
C14   C18   S    
C23   O26   S    
O1    C3    A    
O2    V4    S    
O17   C7    A    
O12   V4    S    
O22   H5    S    
O4    V2    S    
C14   H2    S    
C16   H4    S    
O6    V2    S    
O17   V3    S    
V3    O19   S    
C21   O21   D    
O8    C4    A    
C17   C19   D    
O9    C5    A    
C4    C11   S    
C24   O28   S    
O7    C3    A    
C6    C16   S    
C15   H3    S    
O16   V4    S    
O13   V1    S    
O5    C7    A    
C13   C17   S    
C18   C20   D    
C5    C15   S    
O6    C8    A    
O28   H8    S    
O7    V1    S    
O8    V2    S    
C21   O22   S    
O18   V4    S    
