data_mof_unit_31640.cif
_audit_creation_date              2012-12-11T21:20:24-0500
_audit_creation_method            fapswitch 2.2
_symmetry_space_group_name_H-M    P1
_symmetry_Int_Tables_number       1
_space_group_crystal_system       triclinic
_cell_length_a                    8.26667
_cell_length_b                    18.669432
_cell_length_c                    18.969521
_cell_angle_alpha                 103.083772
_cell_angle_beta                  92.629397
_cell_angle_gamma                 90.456832
_cell_volume                      2848.13206159

loop_
_atom_site_label
_atom_site_type_symbol
_atom_type_description
_atom_site_fract_x
_atom_site_fract_y
_atom_site_fract_z
_atom_type_partial_charge
Ba1   Ba    Ba6+2 0.155460 0.532000 0.467920 1.659103
Ba2   Ba    Ba6+2 0.654730 0.467990 0.532020 1.661812
C1    C     C_3   0.351001 0.704067 0.210119 -0.370056
C2    C     C_R   0.058319 0.909759 0.581610 -0.070251
C3    C     C_R   0.208212 0.043201 0.560658 -0.107820
C4    C     C_3   0.911572 0.725649 0.324785 0.376647
C5    C     C_R   0.051744 0.021979 0.532865 -0.000531
C6    C     C_R   0.275227 0.111987 0.561949 -0.045167
C7    C     C_R   0.184712 0.164752 0.533234 -0.096194
C8    C     C_R   0.029598 0.140899 0.497918 -0.000078
C9    C     C_R   0.965448 0.068805 0.496524 0.023081
C10   C     C_R   0.236713 0.239411 0.538016 -0.043001
C11   C     C_R   0.132940 0.287065 0.510606 -0.298442
C12   C     C_3   0.384284 0.683318 0.282436 0.356001
C13   C     C_R   0.987524 0.262862 0.471628 0.028066
C14   C     C_R   0.937894 0.188455 0.463215 -0.024468
C15   C     C_R   0.837922 0.927111 0.498486 0.021990
C16   C     C_3   0.935518 0.799150 0.304455 -0.361085
C17   C     C_R   0.778717 0.854903 0.498002 0.010305
C18   C     C_R   0.868892 0.809017 0.535020 -0.041074
C19   C     C_R   0.002944 0.839268 0.579695 -0.002441
C20   C     C_R   0.798925 0.159920 0.420462 -0.011942
C21   C     C_R   0.739781 0.089470 0.417850 -0.032864
C22   C     C_R   0.816015 0.043581 0.458403 0.058578
C23   C     C_3   0.349110 0.718072 0.714093 0.190295
C24   C     C_R   0.750362 0.972784 0.460394 0.034399
C25   C     C_R   0.597544 0.946582 0.427573 -0.088499
C26   C     C_R   0.629178 0.828921 0.461354 -0.008436
C27   C     C_R   0.538376 0.876595 0.428439 -0.097088
C28   C     C_3   0.811551 0.368507 0.309230 0.327272
C29   C     C_R   0.575615 0.756117 0.459200 0.005125
C30   C     C_R   0.675678 0.709389 0.489277 -0.271427
C31   C     C_R   0.820869 0.734760 0.527588 0.054642
C32   C     C_R   0.383160 0.524123 0.811007 -0.126375
C33   C     C_R   0.327489 0.529036 0.740575 0.016946
C34   C     C_3   0.305619 0.727702 0.793509 -0.369714
C35   C     C_R   0.152369 0.446031 0.818104 -0.161602
C36   C     C_R   0.092948 0.454917 0.750629 -0.003345
C37   C     C_R   0.638191 0.558658 0.190059 -0.158454
C38   C     C_R   0.701337 0.557558 0.259297 0.001613
C39   C     C_R   0.452887 0.460503 0.198210 -0.154181
C40   C     C_3   0.788857 0.346383 0.227104 -0.394375
C41   C     C_R   0.485075 0.475493 0.273276 0.062027
C42   C     C_R   0.304171 0.476205 0.849213 0.000438
C43   C     C_R   0.186421 0.490882 0.710266 -0.223220
C44   C     C_R   0.520444 0.505624 0.155383 -0.001945
C45   C     C_3   0.903204 0.282505 0.678051 0.450849
C46   C     C_R   0.614353 0.522549 0.303298 -0.252668
C47   C     C_R   0.160412 0.383770 0.957414 -0.086552
C48   C     C_R   0.057026 0.371189 0.009891 -0.079498
C49   C     C_R   0.064163 0.417867 0.078326 -0.070979
C50   C     C_R   0.186923 0.471117 0.096422 -0.096969
C51   C     C_R   0.311792 0.471980 0.049128 0.018118
C52   C     C_3   0.954124 0.633412 0.695866 0.363481
C53   C     C_R   0.276367 0.441819 0.974515 0.040850
C54   C     C_R   0.472459 0.494770 0.075024 -0.012986
C55   C     C_R   0.588482 0.495566 0.021567 0.040089
C56   C     C_3   0.877221 0.206770 0.693867 0.267919
C57   C     C_R   0.537207 0.480360 0.946421 0.009265
C58   C     C_R   0.373364 0.463118 0.922592 -0.029706
C59   C     C_R   0.756028 0.509284 0.039356 -0.078823
C60   C     C_R   0.862036 0.519429 0.987575 -0.077442
C61   C     C_R   0.811324 0.502195 0.915382 -0.057288
C62   C     C_R   0.655255 0.475108 0.895377 -0.076214
C63   C     C_3   0.893708 0.654243 0.772350 -0.339569
C64   C     C_3   0.296343 0.302994 0.358890 0.336329
C65   C     C_3   0.281186 0.219537 0.330867 0.281889
C66   C     C_3   0.289186 0.193357 0.203858 0.326423
C67   C     C_3   0.387923 0.309042 0.715872 0.281597
C68   C     C_3   0.216842 0.235874 0.150142 -0.169161
C69   C     C_3   0.325671 0.233187 0.086724 -0.516239
C70   C     C_2   0.389762 0.791161 0.696492 0.895973
C71   C     C_3   0.751128 0.215912 0.803016 0.298865
C72   C     C_3   0.778253 0.258214 0.881380 -0.186698
C73   C     C_3   0.619337 0.272422 0.919816 -0.513822
C74   C     C_2   0.441250 0.119865 0.594276 0.887170
C75   C     C_3   0.300208 0.255677 0.751604 -0.344858
C76   C     C_R   0.984856 0.952977 0.537247 0.007625
H1    H     H_    0.330958 0.627666 0.278951 0.073878
H2    H     H_    0.173488 0.325508 0.367039 0.003013
H3    H     H_    0.368869 0.315254 0.411139 -0.022072
H4    H     H_    0.218622 0.706203 0.198371 0.154160
H5    H     H_    0.215881 0.196387 0.370608 -0.015008
H6    H     H_    0.402833 0.193915 0.328370 -0.021537
H7    H     H_    0.517334 0.682770 0.292537 -0.061762
H8    H     H_    0.403122 0.662718 0.165896 0.069710
H9    H     H_    0.246635 0.694993 0.676867 0.018895
H10   H     H_    0.412909 0.748128 0.830210 0.135743
H11   H     H_    0.206548 0.767679 0.806208 0.116455
H12   H     H_    0.683926 0.307640 0.211259 0.112686
H13   H     H_    0.264606 0.674700 0.804191 0.059629
H14   H     H_    0.406608 0.758775 0.211621 0.108406
H15   H     H_    0.884613 0.843777 0.345979 0.065462
H16   H     H_    0.849735 0.280864 0.622843 0.021276
H17   H     H_    0.035113 0.293239 0.678058 -0.174095
H18   H     H_    0.756905 0.184538 0.670680 0.049427
H19   H     H_    0.966292 0.168474 0.664324 0.009559
H20   H     H_    0.296862 0.342374 0.693466 -0.021009
H21   H     H_    0.462392 0.347813 0.758131 0.055045
H22   H     H_    0.236439 0.212387 0.709698 0.147149
H23   H     H_    0.766837 0.395712 0.204956 0.059802
H24   H     H_    0.210151 0.285481 0.788235 0.099606
H25   H     H_    0.974235 0.728160 0.378402 0.075122
H26   H     H_    0.386318 0.228945 0.783557 0.126338
H27   H     H_    0.170304 0.343847 0.516398 0.069566
H28   H     H_    0.066663 0.809437 0.614578 0.099210
H29   H     H_    0.732680 0.191510 0.388042 0.088236
H30   H     H_    0.420760 0.860416 0.402330 0.106652
H31   H     H_    0.636236 0.653260 0.485797 0.080230
H32   H     H_    0.286399 0.004414 0.579148 0.100816
H33   H     H_    0.157949 0.929441 0.620006 0.110109
H34   H     H_    0.899516 0.319477 0.203532 0.125474
H35   H     H_    0.632768 0.072667 0.383295 0.044620
H36   H     H_    0.779572 0.717111 0.328937 -0.093664
H37   H     H_    0.518559 0.979384 0.401503 0.073248
H38   H     H_    0.487833 0.557389 0.834635 0.074585
H39   H     H_    0.073221 0.416617 0.844679 0.072584
H40   H     H_    0.689917 0.597248 0.162199 0.071222
H41   H     H_    0.372874 0.414501 0.174383 0.069709
H42   H     H_    0.143179 0.492868 0.656024 0.050763
H43   H     H_    0.655347 0.527192 0.359168 0.067840
H44   H     H_    0.157830 0.344392 0.906098 0.069820
H45   H     H_    0.079600 0.615757 0.699267 -0.109413
H46   H     H_    0.970747 0.326058 0.997978 0.067208
H47   H     H_    0.978577 0.411230 0.117901 0.084581
H48   H     H_    0.066315 0.810979 0.301078 0.149984
H49   H     H_    0.194478 0.506908 0.149368 0.130649
H50   H     H_    0.810726 0.511006 0.091973 0.078075
H51   H     H_    0.986479 0.536408 0.002972 0.082810
H52   H     H_    0.894408 0.507938 0.875166 0.083182
H53   H     H_    0.623972 0.448988 0.840084 0.126889
H54   H     H_    0.872490 0.798015 0.251227 0.107656
H55   H     H_    0.697404 0.390691 0.332268 -0.000365
H56   H     H_    0.881534 0.585986 0.665003 0.103455
H57   H     H_    0.908226 0.411487 0.323533 0.079451
H58   H     H_    0.291840 0.133974 0.177026 0.039461
H59   H     H_    0.417204 0.212568 0.218098 0.044914
H60   H     H_    0.095725 0.212030 0.129133 0.115086
H61   H     H_    0.201226 0.294289 0.178223 0.133371
H62   H     H_    0.444867 0.260006 0.106367 0.133948
H63   H     H_    0.268156 0.262910 0.047992 0.154065
H64   H     H_    0.344385 0.175320 0.057859 0.142694
H65   H     H_    0.428315 0.743627 0.592601 0.271026
H66   H     H_    0.701719 0.160022 0.801549 0.061810
H67   H     H_    0.960536 0.703286 0.804709 0.100839
H68   H     H_    0.660381 0.246335 0.776880 0.098208
H69   H     H_    0.859146 0.226192 0.910621 0.123009
H70   H     H_    0.837525 0.312013 0.881961 0.140132
H71   H     H_    0.539640 0.307033 0.893058 0.134593
H72   H     H_    0.644797 0.302110 0.977013 0.147276
H73   H     H_    0.555602 0.219660 0.919147 0.147663
H74   H     H_    0.580844 0.098650 0.677215 0.299857
H75   H     H_    0.911813 0.608023 0.799596 0.067133
H76   H     H_    0.763150 0.667100 0.770665 0.150788
O1    O     O_2   0.114280 0.679350 0.549180 -0.476051
O2    O     O_2   0.761188 0.476808 0.749664 -0.505888
O3    O     O_3   0.829332 0.337052 0.729821 -0.596419
O4    O     O_3   0.866400 0.589600 0.543550 -0.497985
O5    O     O_3   0.444420 0.455520 0.411210 -0.475766
O6    O     O_2   0.612810 0.550740 0.677950 -0.436708
O7    O     O_3   0.484614 0.673485 0.700432 -0.648629
O8    O     O_2   0.576584 0.249202 0.531347 -0.447506
O9    O     O_3   0.492081 0.269890 0.664656 -0.584814
O10   O     O_3   0.362150 0.623490 0.415650 -0.483933
O11   O     O_2   0.241367 0.754131 0.471538 -0.469129
O12   O     O_3   0.373450 0.332575 0.307616 -0.656354
O13   O     O_3   0.949315 0.695210 0.665141 -0.645152
O14   O     O_3   0.313638 0.735228 0.337084 -0.608157
O15   O     O_2   0.197490 0.449210 0.322030 -0.475042
O16   O     O_3   0.950520 0.583920 0.376610 -0.478093
O17   O     O_2   0.026188 0.527071 0.245375 -0.507542
O18   O     O_3   0.189449 0.201896 0.264039 -0.638714
O19   O     O_2   0.387806 0.848503 0.742774 -0.584496
O20   O     O_R   0.430400 0.794026 0.626544 -0.732857
O21   O     O_3   0.900842 0.209699 0.768902 -0.644611
O22   O     O_2   0.555925 0.119162 0.555996 -0.621142
O23   O     O_3   0.976675 0.669538 0.271819 -0.593679
O24   O     O_R   0.465910 0.111957 0.665542 -0.763361
O25   O     O_2   0.696020 0.320600 0.450800 -0.462840
O26   O     O_3   0.943900 0.410390 0.456390 -0.503155
O27   O     O_3   0.448150 0.376500 0.584290 -0.461501
O28   O     O_3   0.853446 0.306463 0.335217 -0.624302
O29   O     O_3   0.365880 0.544470 0.588730 -0.455999
O30   O     O_3   0.859790 0.416060 0.623340 -0.471797
P1    P     P_3+3 0.941030 0.670050 0.569830 0.981711
P2    P     P_3+3 0.370400 0.428500 0.331430 0.977293
P3    P     P_3+3 0.912185 0.585071 0.286707 0.930320
P4    P     P_3+3 0.869270 0.329940 0.430110 0.976740
P5    P     P_3+3 0.888276 0.422102 0.715030 0.936449
P6    P     P_3+3 0.374165 0.718111 0.421233 0.953173
P7    P     P_3+3 0.434600 0.579000 0.680787 0.951017
P8    P     P_3+3 0.435689 0.281993 0.578106 0.986753

loop_
_geom_bond_atom_site_label_1
_geom_bond_atom_site_label_2
_ccdc_geom_bond_type
C34   H11   S    
C52   H45   S    
O4    P1    S    
C65   H5    S    
C25   C27   A    
C28   O28   S    
C71   C72   S    
Ba1   O16   S    
C67   C75   S    
C56   O21   S    
C6    C74   S    
C52   O13   S    
O7    P7    S    
O8    P8    D    
C75   H24   S    
C38   P3    S    
Ba1   P2    S    
C34   H10   S    
C5    C9    A    
C10   C11   A    
C29   P6    S    
C57   C62   A    
C60   C61   A    
C15   C24   A    
O5    P2    S    
C72   H70   S    
C26   C27   A    
C35   C36   A    
C22   C24   A    
O15   P2    D    
C32   C33   A    
C74   O24   S    
O27   P8    S    
C55   C57   A    
C3    H32   S    
C73   H72   S    
C32   H38   S    
C20   H29   S    
C52   H56   S    
C9    C22   A    
C23   H9    S    
O14   P6    S    
C54   C55   A    
C75   H22   S    
Ba1   Ba2   S    
C61   H52   S    
Ba1   O1    S    
C40   H34   S    
C4    H36   S    
C36   C43   A    
C56   H18   S    
O26   P4    S    
C15   C17   A    
C16   H54   S    
C17   C18   A    
Ba1   O10   S    
C23   O7    S    
C6    C7    A    
O16   P3    S    
C63   H75   S    
C39   C44   A    
C27   H30   S    
C68   C69   S    
C70   O20   S    
C41   C46   A    
C19   H28   S    
C69   H63   S    
C67   H20   S    
C28   H55   S    
C64   C65   S    
C68   H61   S    
C53   C58   A    
C1    H8    S    
C39   C41   A    
C60   H51   S    
C66   H59   S    
C56   H19   S    
Ba2   O26   S    
O10   P6    S    
C7    C8    A    
C50   H49   S    
O11   P6    D    
O3    P5    S    
C51   C53   A    
Ba1   O29   S    
C10   P8    S    
C4    C16   S    
C42   C58   S    
C30   H31   S    
C64   O12   S    
C49   C50   A    
C49   H47   S    
C72   H69   S    
Ba1   O5    S    
C74   O22   D    
C32   C42   A    
O6    P7    D    
C11   H27   S    
O1    P1    D    
C73   H73   S    
C46   H43   S    
C52   C63   S    
Ba2   O5    S    
O28   P4    S    
O25   P4    D    
C23   C34   S    
C41   P2    S    
C47   C53   A    
C1    H14   S    
C40   H12   S    
Ba2   O27   S    
C71   O21   S    
C2    C76   A    
C63   H76   S    
C21   H35   S    
C29   C30   A    
C62   H53   S    
C66   H58   S    
Ba2   O4    S    
C36   P5    S    
C1    H4    S    
C48   C49   A    
C24   C25   A    
C48   H46   S    
C23   C70   S    
Ba2   O30   S    
C4    H25   S    
C39   H41   S    
C33   P7    S    
C17   C26   A    
O9    P8    S    
C1    C12   S    
C37   C44   A    
C18   C31   A    
C67   H21   S    
C34   H13   S    
Ba2   O6    S    
C2    H33   S    
C70   O19   D    
C68   H60   S    
C5    C76   A    
C4    O23   S    
C47   C48   A    
C12   O14   S    
Ba2   O25   S    
C69   H64   S    
C33   C43   A    
C40   H23   S    
C72   C73   S    
C37   C38   A    
C50   C51   A    
C43   H42   S    
C3    C5    A    
C45   O3    S    
C51   C54   A    
C38   C46   A    
Ba1   O4    S    
C14   C20   A    
O12   P2    S    
C26   C29   A    
C67   O9    S    
C12   H7    S    
O29   P7    S    
C3    C6    A    
C55   C59   A    
C69   H62   S    
Ba1   P1    S    
C65   O18   S    
C37   H40   S    
C64   H2    S    
C13   P4    S    
O23   P3    S    
O17   P3    D    
C71   H68   S    
C30   C31   A    
C35   C42   A    
C11   C13   A    
C8    C14   A    
O2    P5    D    
C45   C56   S    
C2    C19   A    
C66   O18   S    
C65   H6    S    
C73   H71   S    
C47   H44   S    
Ba1   O15   S    
C15   C76   A    
Ba1   O26   S    
C45   H16   S    
C59   H50   S    
Ba2   O29   S    
H74   O24   S    
C59   C60   A    
C7    C10   A    
Ba2   P4    S    
C12   H1    S    
C8    C9    A    
C21   C22   A    
C61   C62   A    
C57   C58   A    
C35   H39   S    
C18   C19   A    
C66   C68   S    
C28   H57   S    
C44   C54   S    
C16   H15   S    
C45   H17   S    
C20   C21   A    
C28   C40   S    
C75   H26   S    
C31   P1    S    
H65   O20   S    
C63   H67   S    
O30   P5    S    
C16   H48   S    
C13   C14   A    
C25   H37   S    
C64   H3    S    
C71   H66   S    
O13   P1    S    
