data_mof_unit_53767.cif
_audit_creation_date              2012-12-11T17:05:37-0500
_audit_creation_method            fapswitch 2.2
_symmetry_space_group_name_H-M    P1
_symmetry_Int_Tables_number       1
_space_group_crystal_system       triclinic
_cell_length_a                    6.977809
_cell_length_b                    14.89235
_cell_length_c                    15.741179
_cell_angle_alpha                 90.123182
_cell_angle_beta                  89.860111
_cell_angle_gamma                 89.746172
_cell_volume                      1635.73519979

loop_
_atom_site_label
_atom_site_type_symbol
_atom_type_description
_atom_site_fract_x
_atom_site_fract_y
_atom_site_fract_z
_atom_type_partial_charge
O1    O     O_R   0.494380 0.415640 0.412830 -0.541032
O2    O     O_R   0.823960 0.405540 0.586560 -0.547320
O3    O     O_R   0.994270 0.584360 0.587170 -0.520639
C1    C     C_R   0.655032 0.383768 0.615236 0.729298
O4    O     O_R   0.824090 0.404620 0.413450 -0.546167
O5    O     O_R   0.994400 0.583430 0.412820 -0.546816
C2    C     C_R   0.656340 0.385185 0.382595 0.681516
O6    O     O_R   0.494250 0.416570 0.587180 -0.529407
O7    O     O_3   0.660800 0.558670 0.500000 -0.364973
V1    V     V_3+5 0.935650 0.489120 0.500000 1.410167
O8    O     O_R   0.324110 0.594460 0.413440 -0.542527
C3    C     C_R   0.154503 0.615742 0.384268 0.684210
O9    O     O_R   0.323980 0.595380 0.586550 -0.532179
C4    C     C_R   0.153813 0.618590 0.614506 0.691117
V2    V     V_3+5 0.435660 0.510880 0.500000 1.433214
O10   O     O_3   0.160640 0.441330 0.500000 -0.376785
C5    C     C_3   0.940824 0.686617 0.732398 0.388564
H1    H     H_    0.943931 0.622458 0.767583 0.061677
C6    C     C_3   0.928271 0.759101 0.803362 -0.394905
H2    H     H_    0.900681 0.726281 0.865719 0.119245
H3    H     H_    0.803957 0.804098 0.791914 0.150698
H4    H     H_    0.094820 0.801325 0.590706 0.095967
H5    H     H_    0.994953 0.886803 0.703902 0.087724
C7    C     C_3   0.177190 0.786127 0.648602 -0.353272
C8    C     C_3   0.295250 0.674040 0.752335 -0.412994
C9    C     C_3   0.138727 0.690146 0.683797 -0.009257
H6    H     H_    0.438865 0.677010 0.723178 0.231088
H7    H     H_    0.282569 0.605970 0.779930 0.182580
C10   C     C_3   0.118769 0.814114 0.807835 0.027958
C11   C     C_3   0.138744 0.859125 0.717939 -0.098977
C12   C     C_3   0.282824 0.745074 0.824119 -0.347215
H8    H     H_    0.256173 0.710285 0.885517 0.140269
H9    H     H_    0.422972 0.778985 0.831182 0.164907
H10   H     H_    0.326769 0.789506 0.626299 0.142192
C13   C     C_R   0.255790 0.817268 0.244966 0.128543
C14   C     C_R   0.117749 0.812565 0.181141 -0.177754
C15   C     C_R   0.974268 0.746731 0.191352 -0.201750
H11   H     H_    0.858053 0.742122 0.146140 0.127094
C16   C     C_R   0.984169 0.683576 0.258323 -0.175914
H12   H     H_    0.875845 0.631899 0.262123 0.120711
C17   C     C_R   0.138331 0.684303 0.316617 -0.095480
C18   C     C_R   0.265313 0.756134 0.310872 0.024706
C19   C     C_3   0.477883 0.762238 0.316076 -0.470378
C20   C     C_3   0.466385 0.829543 0.242642 0.334751
H13   H     H_    0.550121 0.698301 0.298143 0.144405
H14   H     H_    0.524646 0.791836 0.377486 0.175005
H15   H     H_    0.530433 0.806804 0.181281 0.054632
C21   C     C_R   0.489939 0.308036 0.738526 0.010176
C22   C     C_R   0.646866 0.316519 0.684029 -0.126077
C23   C     C_R   0.800805 0.256351 0.699021 -0.223692
H16   H     H_    0.923612 0.255898 0.657146 0.126694
C24   C     C_R   0.791679 0.191716 0.765007 -0.196737
H17   H     H_    0.908692 0.144649 0.772117 0.126145
C25   C     C_R   0.627417 0.184491 0.817501 -0.090734
C26   C     C_R   0.482246 0.246019 0.801951 0.004216
C27   C     C_3   0.283021 0.267853 0.827135 0.290045
C28   C     C_3   0.286779 0.335967 0.752686 0.311834
H18   H     H_    0.186613 0.209345 0.818058 0.005026
H19   H     H_    0.197930 0.318711 0.696599 -0.003211
C29   C     C_R   0.501563 0.255039 0.311045 0.067803
C30   C     C_R   0.649694 0.316319 0.314756 -0.090830
C31   C     C_R   0.796968 0.304788 0.254079 -0.183907
H20   H     H_    0.917498 0.350128 0.253449 0.118504
C32   C     C_R   0.782282 0.238341 0.189571 -0.191995
H21   H     H_    0.892605 0.235384 0.141128 0.121079
C33   C     C_R   0.623367 0.179081 0.185737 -0.117467
C34   C     C_R   0.494633 0.183828 0.255107 0.058891
C35   C     C_3   0.282436 0.173270 0.273604 -0.175573
C36   C     C_3   0.293968 0.258929 0.327854 -0.413910
H22   H     H_    0.191502 0.179626 0.216036 0.133736
H23   H     H_    0.260864 0.251828 0.396741 0.173586
H24   H     H_    0.227681 0.318313 0.297018 0.160258
O11   O     O_R   0.771490 0.080820 0.910070 -0.548824
O12   O     O_R   0.441590 0.092730 0.083780 -0.536636
O13   O     O_R   0.271350 0.913900 0.084390 -0.527930
C37   C     C_R   0.609805 0.112597 0.114862 0.727273
O14   O     O_R   0.441780 0.091820 0.910670 -0.538898
O15   O     O_R   0.271540 0.912980 0.910040 -0.538431
C38   C     C_R   0.611569 0.114564 0.883145 0.727984
O16   O     O_R   0.771300 0.081740 0.084420 -0.546871
O17   O     O_3   0.604960 0.938700 0.997240 -0.373345
V3    V     V_3+5 0.330090 0.008230 0.997220 1.426746
O18   O     O_R   0.941820 0.901930 0.910640 -0.546844
C39   C     C_R   0.110207 0.882476 0.879720 0.682465
O19   O     O_R   0.941630 0.902840 0.083750 -0.550517
C40   C     C_R   0.110649 0.879687 0.111490 0.706105
V4    V     V_3+5 0.830090 0.986410 0.997190 1.377193
O20   O     O_3   0.105080 0.055990 0.997200 -0.386657
O21   O     O_3   0.770123 0.679168 0.683313 -0.557382
C41   C     C_3   0.749728 0.742671 0.617538 -0.191185
H25   H     H_    0.841502 0.726676 0.562218 0.142087
H26   H     H_    0.769183 0.812289 0.639448 0.099007
H27   H     H_    0.603545 0.737062 0.591930 0.139318
C42   C     C_R   0.273183 0.938746 0.707615 0.105643
C43   C     C_R   0.198500 0.022146 0.680556 -0.161487
C44   C     C_R   0.319074 0.088729 0.648922 -0.117276
C45   C     C_R   0.515587 0.073051 0.643915 -0.092611
C46   C     C_R   0.592647 0.993620 0.676130 -0.160947
C47   C     C_R   0.472687 0.927297 0.708862 -0.116270
H28   H     H_    0.046136 0.034089 0.678577 0.083839
H29   H     H_    0.259298 0.151002 0.625238 0.095397
H30   H     H_    0.608068 0.122376 0.615000 0.119488
H31   H     H_    0.744649 0.981995 0.672753 0.089527
H32   H     H_    0.534499 0.864611 0.728684 0.102849
O22   O     O_3   0.508428 0.918332 0.266335 -0.551096
C48   C     C_3   0.707548 0.929362 0.270447 -0.245439
H33   H     H_    0.778246 0.904474 0.212797 0.164497
H34   H     H_    0.767638 0.895574 0.327352 0.149232
H35   H     H_    0.737863 0.001931 0.273689 0.142050
O23   O     O_3   0.282062 0.310761 0.907548 -0.520938
C49   C     C_3   0.120701 0.284587 0.955192 -0.186020
H36   H     H_    0.146305 0.217718 0.983326 0.164148
H37   H     H_    0.986266 0.284495 0.917294 0.114705
H38   H     H_    0.100590 0.332864 0.008257 0.142005
O24   O     O_3   0.271238 0.425728 0.780195 -0.527121
C50   C     C_3   0.075063 0.448030 0.788160 -0.178766
H39   H     H_    0.982919 0.391392 0.809055 0.136157
H40   H     H_    0.020655 0.473457 0.726604 0.132176
H41   H     H_    0.059800 0.500824 0.837422 0.137323
C51   C     C_R   0.228305 0.096661 0.332770 0.158115
C52   C     C_R   0.033814 0.085161 0.352860 -0.169487
C53   C     C_R   0.978059 0.026722 0.417726 -0.164048
C54   C     C_R   0.115424 0.977792 0.462334 -0.097370
C55   C     C_R   0.309483 0.989586 0.444442 -0.087924
C56   C     C_R   0.365936 0.050431 0.381785 -0.025221
H42   H     H_    0.925671 0.124609 0.320781 0.126375
H43   H     H_    0.828190 0.019977 0.434130 0.107475
H44   H     H_    0.071323 0.932720 0.512260 0.100990
H45   H     H_    0.416452 0.953620 0.480848 0.106655
H46   H     H_    0.517048 0.062863 0.373497 0.098357

loop_
_geom_bond_atom_site_label_1
_geom_bond_atom_site_label_2
_ccdc_geom_bond_type
C8    C12   S    
C21   C26   A    
O18   V4    S    
V4    O20   S    
C17   C18   A    
C43   C44   A    
C1    O6    A    
C45   C46   A    
C41   H25   S    
C21   C28   S    
C28   O24   S    
C20   O22   S    
C24   H17   S    
C8    H7    S    
C15   H11   S    
O12   C37   A    
C5    C9    S    
O14   V3    S    
C14   C15   A    
C6    H3    S    
C7    C9    S    
O16   V4    S    
O5    C3    A    
C26   C27   S    
C28   H19   S    
C48   H33   S    
C46   H31   S    
C50   H39   S    
C53   H43   S    
C36   H23   S    
C13   C18   A    
O23   C49   S    
C2    C30   S    
C31   C32   A    
O8    V2    S    
C56   H46   S    
O11   V4    S    
C49   H37   S    
C6    H2    S    
C29   C34   A    
C50   H40   S    
C35   C36   S    
C23   C24   A    
C12   H9    S    
O1    V2    S    
O7    V1    S    
C45   H30   S    
C20   H15   S    
O14   C38   A    
C33   C34   A    
C44   H29   S    
C42   C43   A    
O12   V3    S    
C27   O23   S    
C24   C25   A    
O17   V3    S    
O19   V4    S    
C34   C35   S    
H5    C11   S    
C54   C55   A    
C5    O21   S    
C10   C39   S    
C16   C17   A    
C16   H12   S    
O4    C2    A    
C43   H28   S    
C11   C42   S    
C14   C40   S    
C8    C9    S    
O19   C40   A    
C7    H10   S    
C29   C30   A    
C13   C14   A    
C32   C33   A    
C36   H24   S    
O2    C1    A    
C19   C20   S    
C10   C11   S    
O15   V3    S    
O13   C40   A    
C41   H26   S    
O18   C39   A    
C10   C12   S    
C33   C37   S    
C44   C45   A    
C31   H20   S    
C5    H1    S    
O11   C38   A    
C23   H16   S    
C4    C9    S    
C13   C20   S    
C19   H13   S    
C52   C53   A    
O17   V4    S    
O3    C4    A    
C21   C22   A    
C22   C23   A    
O6    V2    S    
O9    V2    S    
H4    C7    S    
C18   C19   S    
O2    V1    S    
C51   C52   A    
C41   H27   S    
C25   C38   S    
C27   C28   S    
C25   C26   A    
C49   H36   S    
O1    C2    A    
C12   H8    S    
C37   O16   A    
O5    V1    S    
O8    C3    A    
O13   V3    S    
C3    C17   S    
C8    H6    S    
O22   C48   S    
C50   H41   S    
C1    C22   S    
C42   C47   A    
C32   H21   S    
O7    V2    S    
O4    V1    S    
C15   C16   A    
O3    V1    S    
V1    O10   S    
C35   C51   S    
C54   H44   S    
C48   H34   S    
C29   C36   S    
V3    O20   S    
C5    C6    S    
C27   H18   S    
C55   H45   S    
C47   H32   S    
C49   H38   S    
C51   C56   A    
C30   C31   A    
C19   H14   S    
C7    C11   S    
O15   C39   A    
C52   H42   S    
C35   H22   S    
C46   C47   A    
C53   C54   A    
O24   C50   S    
O21   C41   S    
O9    C4    A    
V2    O10   S    
C55   C56   A    
C48   H35   S    
C6    C10   S    
