data_mof_unit_41178.cif
_audit_creation_date              2013-03-05T16:44:40-0500
_audit_creation_method            fapswitch 2.2
_symmetry_space_group_name_H-M    P1
_symmetry_Int_Tables_number       1
_space_group_crystal_system       triclinic
_cell_length_a                    27.592012
_cell_length_b                    10.708758
_cell_length_c                    9.889477
_cell_angle_alpha                 88.893917
_cell_angle_beta                  89.39606
_cell_angle_gamma                 91.351795
_cell_volume                      2920.57055896

loop_
_atom_site_label
_atom_site_type_symbol
_atom_site_description
_atom_site_fract_x
_atom_site_fract_y
_atom_site_fract_z
_atom_type_partial_charge
O1    O     O_R   0.500010 0.316790 0.614690 -0.612233
O2    O     O_R   0.500000 0.316760 0.385350 -0.637381
C1    C     C_R   0.500218 0.259523 0.500703 0.914688
O3    O     O_R   0.428760 0.500040 0.614660 -0.561059
O4    O     O_R   0.428750 0.500000 0.385310 -0.589837
C2    C     C_R   0.406095 0.502957 0.499523 1.003980
Zn1   Zn    Zn3+2 0.500000 0.500020 0.653130 1.014027
Zn2   Zn    Zn3+2 0.500000 0.499980 0.346870 1.006113
O5    O     O_R   0.500000 0.683240 0.614650 -0.625313
O6    O     O_R   0.499990 0.683210 0.385310 -0.602964
O7    O     O_R   0.571250 0.500000 0.614690 -0.626984
O8    O     O_R   0.571240 0.499960 0.385340 -0.635484
C3    C     C_R   0.503852 0.739421 0.498951 0.961988
C4    C     C_R   0.594282 0.496333 0.499505 0.871303
C5    C     C_R   0.174210 0.386517 0.452514 0.531908
O9    O     O_2   0.196541 0.298222 0.380742 -0.523981
N1    N     N_R   0.200478 0.485196 0.501826 -0.352866
C6    C     C_R   0.178993 0.577291 0.573602 0.527612
C7    C     C_R   0.276702 0.583870 0.413785 -0.095592
C8    C     C_R   0.327750 0.595810 0.420996 0.385013
C9    C     C_R   0.328071 0.403578 0.557476 -0.170435
C10   C     C_R   0.278085 0.397127 0.557203 -0.070766
C11   C     C_R   0.252174 0.487597 0.487847 0.181821
C12   C     C_R   0.101365 0.471334 0.549126 -0.054889
C13   C     C_R   0.124202 0.376613 0.477033 -0.036453
C14   C     C_R   0.096535 0.275768 0.429416 -0.116086
C15   C     C_R   0.128869 0.573767 0.595649 -0.034081
C16   C     C_R   0.353203 0.503857 0.495365 -0.173893
H1    H     H_    0.347227 0.330719 0.608498 0.252051
H2    H     H_    0.259234 0.321955 0.612328 0.174167
H3    H     H_    0.112902 0.203838 0.369790 0.203541
C17   C     C_R   0.647758 0.487585 0.501851 -0.151207
C18   C     C_R   0.974091 0.346725 0.569184 -0.090162
C19   C     C_R   0.976027 0.569098 0.627067 0.062223
C20   C     C_R   0.949594 0.458097 0.595495 0.044446
C21   C     C_R   0.947266 0.231929 0.572636 0.373824
C22   C     C_R   0.896577 0.233348 0.555967 -0.143528
C23   C     C_R   0.872031 0.348620 0.557290 -0.128718
C24   C     C_R   0.898628 0.459459 0.586159 -0.042562
C25   C     C_R   0.874538 0.573206 0.601051 -0.022084
C26   C     C_R   0.824794 0.576838 0.579219 0.579798
N2    N     N_R   0.799879 0.471149 0.544221 -0.331199
C27   C     C_R   0.821600 0.358134 0.535791 0.614994
C28   C     C_R   0.728179 0.476226 0.394981 0.457722
C29   C     C_R   0.677072 0.475683 0.383888 -0.180490
C30   C     C_R   0.669960 0.488252 0.628940 -0.169900
C31   C     C_R   0.719586 0.482629 0.640189 -0.156072
C32   C     C_R   0.748796 0.477760 0.525122 0.169461
O10   O     O_2   0.794159 0.256679 0.506050 -0.527889
C33   C     C_R   0.024086 0.356241 0.536756 0.075566
C34   C     C_R   0.050858 0.464478 0.573086 0.084283
C35   C     C_R   0.027234 0.567410 0.629434 0.045015
C36   C     C_R   0.047127 0.266280 0.458069 -0.097333
H4    H     H_    0.026813 0.190101 0.414156 0.196811
O11   O     O_2   0.206222 0.671277 0.624534 -0.517364
C37   C     C_R   0.105868 0.669472 0.663937 -0.096573
H5    H     H_    0.126398 0.748030 0.703142 0.205539
C38   C     C_R   0.950495 0.679631 0.647945 -0.173524
C39   C     C_R   0.900615 0.681658 0.634259 -0.089053
O12   O     O_2   0.801359 0.685480 0.590827 -0.523350
C40   C     C_R   0.055731 0.667339 0.679195 -0.180100
H6    H     H_    0.968468 0.767822 0.667095 0.183980
H7    H     H_    0.649005 0.490867 0.721719 0.192859
H8    H     H_    0.882697 0.769695 0.646892 0.215626
H9    H     H_    0.735713 0.482166 0.739630 0.169427
H10   H     H_    0.040194 0.744056 0.732432 0.164379
C41   C     C_R   0.512329 0.059835 0.619639 -0.012167
C42   C     C_R   0.505507 0.127099 0.499653 -0.044001
C43   C     C_R   0.510106 0.066409 0.375447 -0.176231
H11   H     H_    0.508186 0.116513 0.279508 0.178031
C44   C     C_R   0.513408 0.937804 0.374109 -0.156417
H12   H     H_    0.512296 0.891306 0.277818 0.177262
C45   C     C_R   0.513129 0.870688 0.497119 -0.032038
C46   C     C_R   0.519390 0.933776 0.618100 0.032351
C47   C     C_3   0.496383 0.911883 0.754618 -0.472161
C48   C     C_3   0.483927 0.049293 0.749884 0.369158
H13   H     H_    0.464545 0.846456 0.755081 0.273681
H14   H     H_    0.523913 0.886869 0.831356 0.170408
C49   C     C_R   0.459486 0.468508 0.073848 0.230265
N3    N     N_R   0.499670 0.499140 0.142800 -0.114874
C50   C     C_R   0.537322 0.553155 0.070576 -0.135736
H15   H     H_    0.566898 0.597151 0.124285 0.157685
C51   C     C_R   0.537321 0.554403 0.926493 0.021056
N4    N     N_R   0.499670 0.499180 0.857150 -0.158585
C52   C     C_R   0.457686 0.478209 0.932701 0.115428
C53   C     C_3   0.421780 0.370148 0.934552 0.267350
C54   C     C_3   0.430764 0.351048 0.085361 -0.516945
H16   H     H_    0.433440 0.292760 0.871681 0.169565
H17   H     H_    0.399263 0.357652 0.155154 0.259590
H18   H     H_    0.453866 0.269827 0.107958 0.183865
C55   C     C_1   0.248774 0.666262 0.329095 0.396837
N5    N     N_1   0.226136 0.731567 0.261322 -0.114084
S1    S     S_3+6 0.419691 0.068822 0.730922 0.028705
O13   O     O_2   0.395328 0.063075 0.867648 -0.248842
O14   O     O_2   0.410499 0.192042 0.662948 -0.362816
O15   O     O_3   0.396196 0.955030 0.634876 -0.489725
H19   H     H_    0.361513 0.975014 0.625429 0.412956
C56   C     C_1   0.506144 0.121960 0.858753 0.133875
N6    N     N_1   0.524048 0.178756 0.944004 -0.221847
C57   C     C_1   0.574052 0.628781 0.856708 0.224328
N7    N     N_1   0.603378 0.690911 0.802180 -0.193860
S2    S     S_3+6 0.360467 0.420635 0.907884 0.083309
O16   O     O_2   0.338597 0.468950 0.036093 -0.260145
O17   O     O_2   0.359824 0.523991 0.803484 -0.258344
O18   O     O_3   0.326621 0.297969 0.857405 -0.502632
H20   H     H_    0.292755 0.326498 0.861152 0.378197
C58   C     C_1   0.655536 0.453224 0.253563 0.362300
N8    N     N_1   0.638791 0.433839 0.149023 -0.179535
S3    S     S_3+6 0.765756 0.472550 0.247171 0.053051
O19   O     O_2   0.816215 0.521196 0.273853 -0.283174
O20   O     O_2   0.768101 0.339723 0.201615 -0.263233
O21   O     O_3   0.741955 0.560649 0.122979 -0.548648
H21   H     H_    0.760332 0.539529 0.040224 0.385773
C59   C     C_1   0.870765 0.115160 0.539306 0.468990
N9    N     N_1   0.850364 0.020558 0.525970 -0.092356
S4    S     S_3+6 0.974016 0.090398 0.631123 -0.011329
O22   O     O_2   0.979594 0.002823 0.515329 -0.328245
O23   O     O_2   0.022608 0.115790 0.693738 -0.290184
O24   O     O_3   0.937241 0.021828 0.748910 -0.558489
H22   H     H_    0.957642 0.960873 0.797068 0.379456
S5    S     S_3+6 0.359370 0.725267 0.341718 0.061882
O25   O     O_2   0.400570 0.766714 0.429228 -0.300252
O26   O     O_2   0.379171 0.685288 0.207618 -0.247070
O27   O     O_3   0.323285 0.847832 0.316916 -0.527046
H23   H     H_    0.344472 0.913378 0.273637 0.402895

loop_
_geom_bond_atom_site_label_1
_geom_bond_atom_site_label_2
_geom_bond_distance
_ccdc_geom_bond_type
C38   H6    1.077275 S    
S1    O13   1.503227 D    
C26   N2    1.362633 A    
C20   C24   1.410675 A    
C7    C8    1.413967 A    
C12   C15   1.406561 A    
C49   C54   1.472659 S    
C59   N9    1.157746 T    
C36   H4    1.079581 S    
S4    O22   1.503031 D    
Zn1   O7    1.998416 S    
C39   H8    1.083549 S    
N1    C11   1.431205 S    
C21   C22   1.410415 A    
C1    C42   1.429225 S    
C35   C40   1.412215 A    
S3    O20   1.502968 D    
C23   C24   1.416078 A    
O7    C4    1.300237 A    
C53   H16   1.097786 S    
C5    C13   1.399660 A    
C48   C56   1.471162 S    
C5    O9    1.349687 S    
C18   C21   1.419559 A    
C37   H5    1.083369 S    
S2    O18   1.680528 S    
C5    N1    1.367851 A    
C19   C20   1.421486 A    
C45   C46   1.395632 A    
C43   C44   1.382671 A    
O5    C3    1.284643 A    
S5    O27   1.681837 S    
C18   C33   1.413852 A    
C40   H10   1.079095 S    
C2    C16   1.460671 S    
C31   C32   1.390017 A    
C42   C43   1.406665 A    
C58   N8    1.157246 T    
C28   S3    1.784789 S    
C12   C34   1.411101 A    
Zn1   N4    2.017421 S    
C14   H3    1.083210 S    
S1    O14   1.497510 D    
C25   C39   1.398088 A    
O1    Zn1   2.005850 S    
C9    C10   1.379359 A    
C43   H11   1.083348 S    
O3    Zn1   2.006071 S    
O21   H21   0.990883 S    
C50   C51   1.424706 A    
C33   C34   1.414023 A    
C10   C11   1.391954 A    
C33   C36   1.408982 A    
C46   C47   1.497797 S    
C41   C42   1.392991 A    
N4    C52   1.383327 A    
C12   C13   1.408139 A    
O3    C2    1.305044 A    
S3    O21   1.682643 S    
C4    C17   1.481090 S    
C55   N5    1.157492 T    
C44   C45   1.400824 A    
C15   C37   1.399147 A    
C27   O10   1.348469 S    
C22   C59   1.450608 S    
C8    C16   1.421032 A    
C38   C39   1.384966 A    
C52   C53   1.505225 S    
C9    H1    1.073595 S    
C50   H15   1.082001 S    
C34   C35   1.414347 A    
O1    C1    1.293672 A    
C7    C11   1.408847 A    
C47   C48   1.518929 S    
C22   C23   1.422154 A    
C48   S1    1.800888 S    
C51   N4    1.378745 A    
Zn2   O8    2.006071 S    
O15   H19   0.990512 S    
N1    C6    1.368817 A    
C8    S5    1.784475 S    
C41   C46   1.368816 A    
N2    C32   1.427283 S    
C17   C29   1.422009 A    
S2    O17   1.499520 D    
C47   H13   1.110578 S    
S5    O25   1.500011 D    
C6    O11   1.350188 S    
C25   C26   1.392998 A    
C9    C16   1.393472 A    
O8    C4    1.301936 A    
S1    O15   1.681599 S    
C51   C57   1.436581 S    
C54   H17   1.108600 S    
N2    C27   1.366715 A    
C53   S2    1.808563 S    
C14   C36   1.390431 A    
C49   C52   1.399221 A    
C28   C29   1.415444 A    
C19   C38   1.409163 A    
Zn1   O5    1.991396 S    
C30   C31   1.377619 A    
C10   H2    1.083083 S    
C53   C54   1.525133 S    
C17   C30   1.404050 A    
O2    Zn2   1.991397 S    
C6    C15   1.397359 A    
C26   O12   1.350534 S    
C3    C45   1.422602 S    
N3    C50   1.365320 A    
O6    C3    1.289325 A    
O4    Zn2   1.998419 S    
O24   H22   0.990339 S    
O18   H20   0.990474 S    
C19   C35   1.413878 A    
S4    O24   1.683018 S    
C30   H7    1.080515 S    
O2    C1    1.284691 A    
C13   C14   1.399659 A    
C44   H12   1.083459 S    
S3    O19   1.502739 D    
O4    C2    1.286453 A    
C57   N7    1.157483 T    
C18   C20   1.411838 A    
S4    O23   1.503943 D    
S2    O16   1.504455 D    
C47   H14   1.112929 S    
S5    O26   1.502739 D    
C7    C55   1.446001 S    
C49   N3    1.345113 A    
C24   C25   1.410782 A    
C29   C58   1.446881 S    
C23   C27   1.415623 A    
Zn2   O6    2.005849 S    
C56   N6    1.157208 T    
C54   H18   1.111054 S    
Zn2   N3    2.018455 S    
C37   C40   1.389605 A    
C41   C48   1.501642 S    
C31   H9    1.083639 S    
C28   C32   1.412842 A    
O27   H23   0.990649 S    
C21   S4    1.790072 S    
