data_mof_unit_33168.cif
_audit_creation_date              2012-10-26T20:13:55-0400
_audit_creation_method            fapswitch 2.2
_symmetry_space_group_name_H-M    P1
_symmetry_Int_Tables_number       1
_space_group_crystal_system       triclinic
_cell_length_a                    8.721774
_cell_length_b                    10.83101
_cell_length_c                    9.607372
_cell_angle_alpha                 89.170815
_cell_angle_beta                  97.919209
_cell_angle_gamma                 91.603966
_cell_volume                      898.507346057

loop_
_atom_site_label
_atom_site_type_symbol
_atom_type_description
_atom_site_fract_x
_atom_site_fract_y
_atom_site_fract_z
_atom_type_partial_charge
C1    C     C_R   0.502853 0.262394 0.500861 0.542887
C2    C     C_R   0.570027 0.594391 0.935317 0.158720
C3    C     C_3   0.733267 0.648021 0.956623 -0.149250
C4    C     C_R   0.204104 0.498581 0.463890 0.545506
C5    C     C_3   0.719652 0.655174 0.113323 -0.251075
C6    C     C_R   0.504301 0.737475 0.499710 0.549818
C7    C     C_R   0.795956 0.498990 0.536053 0.547359
C8    C     C_2   0.038115 0.496101 0.444118 -0.154182
C9    C     C_2   0.962062 0.497266 0.555454 -0.163920
C10   C     C_R   0.532125 0.061738 0.627672 0.022117
C11   C     C_R   0.519135 0.129318 0.502068 0.008798
C12   C     C_R   0.531549 0.937880 0.375700 -0.165358
C13   C     C_R   0.530408 0.066644 0.376484 -0.161698
C14   C     C_3   0.285261 0.333794 0.842632 -0.362233
C15   C     C_3   0.862437 0.561805 0.929866 -0.376193
C16   C     C_R   0.521807 0.870784 0.500552 0.006496
C17   C     C_R   0.534055 0.934604 0.626930 0.017374
C18   C     C_3   0.438442 0.922009 0.743979 -0.263681
C19   C     C_3   0.434543 0.061813 0.743633 -0.276735
C20   C     C_R   0.563216 0.597244 0.080069 0.134838
C21   C     C_R   0.413316 0.416831 0.067061 0.006134
C22   C     C_R   0.407445 0.418654 0.918302 0.098066
Cu1   Cu    Cu3+1 0.499990 0.499980 0.640670 0.927353
Cu2   Cu    Cu3+1 0.500010 0.500020 0.359330 0.927255
H1    H     H_    0.978627 0.493395 0.337316 0.115857
H2    H     H_    0.344642 0.349366 0.117541 0.120689
H3    H     H_    0.287424 0.324061 0.730221 0.200169
H4    H     H_    0.295229 0.240242 0.890892 0.076111
H5    H     H_    0.169509 0.367973 0.856442 0.094561
H6    H     H_    0.906253 0.591126 0.831740 0.149647
H7    H     H_    0.963158 0.570642 0.013897 0.115382
H8    H     H_    0.822094 0.463562 0.924230 0.163357
H9    H     H_    0.742127 0.741007 0.907225 0.128168
H10   H     H_    0.022628 0.497562 0.661941 0.114558
H11   H     H_    0.799540 0.596051 0.182778 0.157225
H12   H     H_    0.714320 0.751485 0.150394 0.103928
H13   H     H_    0.530192 0.116098 0.277664 0.133506
H14   H     H_    0.531487 0.891503 0.276579 0.128773
H15   H     H_    0.323207 0.877030 0.710968 0.144174
H16   H     H_    0.504640 0.882974 0.841039 0.128366
H17   H     H_    0.316889 0.096964 0.708370 0.127703
H18   H     H_    0.497271 0.103248 0.841142 0.139339
N1    N     N_R   0.500980 0.500930 0.148050 -0.245069
N2    N     N_R   0.500990 0.500890 0.852140 -0.221071
O1    O     O_R   0.500000 0.319640 0.618810 -0.512247
O2    O     O_R   0.500020 0.319680 0.381230 -0.512892
O3    O     O_R   0.274830 0.499980 0.591380 -0.513715
O4    O     O_R   0.274850 0.500020 0.353800 -0.500151
O5    O     O_R   0.499980 0.680320 0.618770 -0.497764
O6    O     O_R   0.500000 0.680360 0.381190 -0.503914
O7    O     O_R   0.725150 0.499980 0.646200 -0.501452
O8    O     O_R   0.725170 0.500020 0.408620 -0.501635

loop_
_geom_bond_atom_site_label_1
_geom_bond_atom_site_label_2
_ccdc_geom_bond_type
Cu2   O8    S    
C18   H15   S    
C15   H7    S    
Cu1   O1    S    
C14   H3    S    
C13   H13   S    
C1    C11   S    
C19   H18   S    
C10   C19   S    
C4    C8    S    
Cu2   O2    S    
C14   C22   S    
C17   C18   S    
C7    O7    A    
C15   H8    S    
C5    C20   S    
C21   C22   A    
C6    O6    A    
Cu1   O7    S    
Cu2   O6    S    
C8    H1    S    
C11   C13   A    
C1    O1    A    
C5    H11   S    
C21   H2    S    
C7    O8    A    
C2    C3    S    
C6    O5    A    
C12   H14   S    
C9    H10   S    
C1    O2    A    
Cu1   O5    S    
Cu1   O3    S    
C10   C11   A    
C3    H9    S    
Cu1   Cu2   S    
C2    C20   A    
C10   C17   A    
Cu2   O4    S    
C5    H12   S    
C12   C16   A    
C20   N1    A    
C3    C15   S    
C12   C13   A    
C15   H6    S    
C18   C19   S    
C4    O4    A    
C7    C9    S    
Cu2   N1    S    
C18   H16   S    
C16   C17   A    
C14   H5    S    
C14   H4    S    
C21   N1    A    
C6    C16   S    
C22   N2    A    
Cu1   N2    S    
C19   H17   S    
C2    N2    A    
C8    C9    D    
C3    C5    S    
C4    O3    A    
