data_mof_unit_50555.cif
_audit_creation_date              2012-12-11T14:42:07-0500
_audit_creation_method            fapswitch 2.2
_symmetry_space_group_name_H-M    P1
_symmetry_Int_Tables_number       1
_space_group_crystal_system       triclinic
_cell_length_a                    19.222459
_cell_length_b                    11.031511
_cell_length_c                    18.964286
_cell_angle_alpha                 90.194031
_cell_angle_beta                  89.189373
_cell_angle_gamma                 90.49579
_cell_volume                      4020.85489543

loop_
_atom_site_label
_atom_site_type_symbol
_atom_type_description
_atom_site_fract_x
_atom_site_fract_y
_atom_site_fract_z
_atom_type_partial_charge
C1    C     C_R   0.723980 0.960787 0.855439 0.585437
C2    C     C_R   0.274826 0.958324 0.145011 0.555545
C3    C     C_R   0.223981 0.460785 0.855439 0.578243
C4    C     C_R   0.774827 0.458326 0.145011 0.562633
C5    C     C_R   0.694611 0.455263 0.042885 0.282073
C6    C     C_R   0.305490 0.423788 0.952009 0.258085
C7    C     C_R   0.194611 0.955268 0.042885 0.282391
C8    C     C_R   0.805489 0.923782 0.952011 0.257799
C9    C     C_R   0.759716 0.424971 0.071268 0.015941
C10   C     C_R   0.236622 0.430956 0.929125 0.033571
C11   C     C_R   0.259715 0.924971 0.071267 0.017640
C12   C     C_R   0.736621 0.930955 0.929127 0.031785
C13   C     C_R   0.814919 0.390599 0.025045 -0.032271
C14   C     C_R   0.179809 0.423770 0.978086 -0.049722
C15   C     C_R   0.314918 0.890601 0.025045 -0.031559
C16   C     C_R   0.679808 0.923769 0.978086 -0.050320
C17   C     C_R   0.807533 0.408693 0.953353 -0.106551
C18   C     C_R   0.193427 0.418157 0.049314 -0.141859
C19   C     C_R   0.307532 0.908700 0.953352 -0.106592
C20   C     C_R   0.693425 0.918152 0.049315 -0.141621
C21   C     C_R   0.742469 0.417862 0.924464 -0.034134
C22   C     C_R   0.259977 0.406254 0.073289 -0.032197
C23   C     C_R   0.242468 0.917870 0.924462 -0.033688
C24   C     C_R   0.759975 0.906252 0.073291 -0.032427
C25   C     C_R   0.542623 0.266078 0.525504 -0.130407
C26   C     C_R   0.532695 0.263062 0.453870 -0.142709
C27   C     C_R   0.967418 0.761714 0.546676 -0.140662
C28   C     C_R   0.958031 0.765788 0.474975 -0.131012
C29   C     C_R   0.499514 0.163237 0.423981 0.036367
C30   C     C_R   0.519525 0.169669 0.568164 0.038619
C31   C     C_R   0.981040 0.670506 0.431668 0.038744
C32   C     C_R   0.000222 0.662138 0.575982 0.035404
C33   C     C_R   0.482144 0.061336 0.465413 -0.133489
C34   C     C_R   0.491947 0.064780 0.537752 -0.152510
C35   C     C_R   0.008223 0.565756 0.461407 -0.150802
C36   C     C_R   0.017615 0.561366 0.533793 -0.134520
C37   C     C_R   0.821087 0.406004 0.546809 -0.143286
C38   C     C_R   0.189887 0.370209 0.461475 -0.148616
C39   C     C_R   0.309075 0.866069 0.537531 -0.147393
C40   C     C_R   0.678784 0.907881 0.452555 -0.143501
C41   C     C_R   0.829754 0.433251 0.475990 -0.141083
C42   C     C_R   0.187141 0.377417 0.533613 -0.143696
C43   C     C_R   0.311452 0.874058 0.465432 -0.143322
C44   C     C_R   0.669937 0.935032 0.523442 -0.143150
C45   C     C_R   0.523061 0.177086 0.843277 0.520968
C46   C     C_R   0.477116 0.178074 0.156934 0.524255
C47   C     C_R   0.023064 0.677085 0.843279 0.516787
C48   C     C_R   0.977117 0.678075 0.156935 0.528379
C49   C     C_R   0.774530 0.479465 0.436762 0.022774
C50   C     C_R   0.242066 0.429961 0.571654 0.029358
C51   C     C_R   0.257547 0.929470 0.428168 0.028793
C52   C     C_R   0.725483 0.980458 0.563242 0.022936
C53   C     C_R   0.711078 0.510931 0.472562 -0.000471
C54   C     C_R   0.302676 0.472394 0.535202 0.004053
C55   C     C_R   0.198096 0.973440 0.465454 0.003515
C56   C     C_R   0.789699 0.011249 0.528078 0.001773
C57   C     C_R   0.703825 0.481835 0.544296 -0.106097
C58   C     C_R   0.305340 0.459461 0.461508 -0.100406
C59   C     C_R   0.195780 0.959934 0.539087 -0.099673
C60   C     C_R   0.797096 0.982167 0.456284 -0.106404
C61   C     C_R   0.756613 0.423369 0.580126 0.008558
C62   C     C_R   0.249882 0.406418 0.425096 0.010716
C63   C     C_R   0.250346 0.904638 0.574716 0.011125
C64   C     C_R   0.743771 0.924495 0.419827 0.007795
C65   C     C_R   0.736364 0.363793 0.853356 0.531336
C66   C     C_R   0.264799 0.359207 0.145375 0.537620
C67   C     C_R   0.236364 0.863795 0.853357 0.529330
C68   C     C_R   0.764797 0.859211 0.145378 0.539767
C69   C     C_R   0.711793 0.998897 0.639647 0.558860
C70   C     C_R   0.273131 0.959064 0.354076 0.540240
C71   C     C_R   0.226815 0.458786 0.645856 0.544901
C72   C     C_R   0.787957 0.498016 0.360308 0.555820
C73   C     C_R   0.534600 0.176476 0.642422 0.534238
C74   C     C_R   0.469611 0.175772 0.354972 0.542859
C75   C     C_R   0.030263 0.675108 0.645053 0.541840
C76   C     C_R   0.965471 0.677057 0.357537 0.534683
C77   C     C_R   0.740556 0.363828 0.647411 0.532604
C78   C     C_R   0.260564 0.361868 0.353582 0.547706
C79   C     C_R   0.239496 0.860971 0.646335 0.544093
C80   C     C_R   0.759561 0.864460 0.352578 0.536534
C81   C     C_2   0.480122 0.165976 0.906493 0.273529
C82   C     C_2   0.519422 0.173549 0.093348 0.250858
C83   C     C_2   0.980114 0.665964 0.906484 0.274341
C84   C     C_2   0.019416 0.673561 0.093341 0.250140
C85   C     C_2   0.483630 0.156570 0.034406 -0.128159
C86   C     C_2   0.514287 0.184728 0.966138 -0.110612
C87   C     C_2   0.983619 0.656554 0.034403 -0.128880
C88   C     C_2   0.014270 0.684729 0.966133 -0.109984
C89   C     C_R   0.684548 0.447601 0.969263 0.016531
C90   C     C_R   0.317440 0.411102 0.024816 -0.006064
C91   C     C_R   0.184548 0.947612 0.969261 0.016595
C92   C     C_R   0.817438 0.911096 0.024819 -0.006207
Cr1   Cr    Cr6+3 0.769270 0.163730 0.750710 0.983282
Cr2   Cr    Cr6+3 0.230730 0.163730 0.249290 0.992156
Cr3   Cr    Cr6+3 0.269270 0.663730 0.750710 0.988209
Cr4   Cr    Cr6+3 0.730730 0.663730 0.249290 0.987633
Cr5   Cr    Cr6+3 0.612620 0.009790 0.748780 0.986627
Cr6   Cr    Cr6+3 0.387380 0.009790 0.251220 0.986294
Cr7   Cr    Cr6+3 0.112620 0.509790 0.748780 0.989223
Cr8   Cr    Cr6+3 0.887380 0.509790 0.251220 0.983931
Cr9   Cr    Cr6+3 0.614160 0.322500 0.747710 0.979246
Cr10  Cr    Cr6+3 0.385840 0.322500 0.252290 0.985123
Cr11  Cr    Cr6+3 0.114160 0.822500 0.747710 0.987063
Cr12  Cr    Cr6+3 0.885840 0.822500 0.252290 0.977690
H1    H     H_    0.429699 0.125581 0.037111 0.135997
H2    H     H_    0.568330 0.215071 0.963953 0.139448
H3    H     H_    0.929693 0.625543 0.037112 0.135785
H4    H     H_    0.068308 0.715100 0.963949 0.139606
H5    H     H_    0.879718 0.414750 0.451295 0.134596
H6    H     H_    0.140017 0.344368 0.559204 0.128598
H7    H     H_    0.357657 0.839413 0.439318 0.129885
H8    H     H_    0.619605 0.916939 0.547778 0.133264
H9    H     H_    0.655742 0.498812 0.572447 0.134198
H10   H     H_    0.351251 0.486541 0.431895 0.140304
H11   H     H_    0.150806 0.988691 0.569299 0.140854
H12   H     H_    0.845686 0.998148 0.428611 0.133741
H13   H     H_    0.851485 0.399294 0.917933 0.170204
H14   H     H_    0.152075 0.414414 0.088113 0.143896
H15   H     H_    0.351485 0.899305 0.917933 0.170195
H16   H     H_    0.652073 0.914407 0.088113 0.143895
H17   H     H_    0.568341 0.344416 0.547745 0.133222
H18   H     H_    0.547414 0.341280 0.422517 0.124708
H19   H     H_    0.952646 0.839154 0.578599 0.124927
H20   H     H_    0.932537 0.843756 0.453223 0.132085
H21   H     H_    0.457005 0.982448 0.442810 0.128591
H22   H     H_    0.476804 0.987569 0.569799 0.112091
H23   H     H_    0.023217 0.489220 0.428808 0.112741
H24   H     H_    0.042400 0.482772 0.555917 0.126703
H25   H     H_    0.863930 0.365455 0.574401 0.129487
H26   H     H_    0.145927 0.330156 0.434628 0.123919
H27   H     H_    0.352327 0.824038 0.563674 0.124129
H28   H     H_    0.635654 0.867662 0.424460 0.130240
O1    O     O_R   0.784320 0.290430 0.830510 -0.534882
O2    O     O_R   0.215680 0.290430 0.169490 -0.551376
O3    O     O_R   0.284320 0.790430 0.830510 -0.536111
O4    O     O_R   0.715680 0.790430 0.169490 -0.550191
O5    O     O_R   0.554640 0.080370 0.673500 -0.525428
O6    O     O_R   0.445360 0.080370 0.326500 -0.512092
O7    O     O_R   0.054640 0.580370 0.673500 -0.513929
O8    O     O_R   0.945360 0.580370 0.326500 -0.522921
O9    O     O_R   0.543920 0.282180 0.666790 -0.530908
O10   O     O_R   0.456080 0.282180 0.333210 -0.528200
O11   O     O_R   0.043920 0.782180 0.666790 -0.525605
O12   O     O_R   0.956080 0.782180 0.333210 -0.533177
O13   O     O_R   0.679040 0.374160 0.674430 -0.509137
O14   O     O_R   0.320960 0.374160 0.325570 -0.505706
O15   O     O_R   0.179040 0.874160 0.674430 -0.504829
O16   O     O_R   0.820960 0.874160 0.325570 -0.509639
O17   O     O_3   0.665350 0.165340 0.749070 -0.261060
O18   O     O_3   0.334650 0.165340 0.250930 -0.244542
O19   O     O_3   0.165350 0.665340 0.749070 -0.242259
O20   O     O_3   0.834650 0.665340 0.250930 -0.262704
O21   O     O_R   0.762640 0.040960 0.825200 -0.488012
O22   O     O_R   0.237360 0.040960 0.174800 -0.472857
O23   O     O_R   0.262640 0.540960 0.825200 -0.492864
O24   O     O_R   0.737360 0.540960 0.174800 -0.468218
O25   O     O_R   0.667400 0.923970 0.829950 -0.546588
O26   O     O_R   0.332600 0.923970 0.170050 -0.547909
O27   O     O_R   0.167400 0.423970 0.829950 -0.550838
O28   O     O_R   0.832600 0.423970 0.170050 -0.543960
O29   O     O_R   0.553960 0.081340 0.821780 -0.528933
O30   O     O_R   0.446040 0.081340 0.178220 -0.533504
O31   O     O_R   0.053960 0.581340 0.821780 -0.530426
O32   O     O_R   0.946040 0.581340 0.178220 -0.532087
O33   O     O_R   0.543180 0.283240 0.826740 -0.554811
O34   O     O_R   0.456820 0.283240 0.173260 -0.539379
O35   O     O_R   0.043180 0.783240 0.826740 -0.557633
O36   O     O_R   0.956820 0.783240 0.173260 -0.536875
O37   O     O_R   0.678360 0.375140 0.822710 -0.510271
O38   O     O_R   0.321640 0.375140 0.177290 -0.516664
O39   O     O_R   0.178360 0.875140 0.822710 -0.513158
O40   O     O_R   0.821640 0.875140 0.177290 -0.513699
O41   O     O_R   0.785050 0.289380 0.670560 -0.552442
O42   O     O_R   0.214950 0.289380 0.329440 -0.538258
O43   O     O_R   0.285050 0.789380 0.670560 -0.539166
O44   O     O_R   0.714950 0.789380 0.329440 -0.550413
O45   O     O_R   0.763320 0.039990 0.676930 -0.518379
O46   O     O_R   0.236680 0.039990 0.323070 -0.518049
O47   O     O_R   0.263320 0.539990 0.676930 -0.516565
O48   O     O_R   0.736680 0.539990 0.323070 -0.520158
O49   O     O_R   0.668130 0.922920 0.670000 -0.514884
O50   O     O_R   0.331870 0.922920 0.330000 -0.527255
O51   O     O_R   0.168130 0.422920 0.670000 -0.526716
O52   O     O_R   0.831870 0.422920 0.330000 -0.516261
C93   C     C_3   0.651389 0.571448 0.434796 -0.265798
C94   C     C_3   0.590733 0.615294 0.480260 -0.491601
H29   H     H_    0.564295 0.536180 0.503948 0.141296
H30   H     H_    0.608923 0.678291 0.522061 0.160388
H31   H     H_    0.552961 0.663660 0.446914 0.137280
H32   H     H_    0.672188 0.653363 0.409843 0.207975
H33   H     H_    0.630494 0.508923 0.394078 0.163606
C95   C     C_3   0.363086 0.529213 0.574978 -0.261904
C96   C     C_3   0.428915 0.555185 0.532297 -0.481531
H34   H     H_    0.448196 0.470520 0.507385 0.168144
H35   H     H_    0.419474 0.625102 0.491586 0.137929
H36   H     H_    0.468822 0.591316 0.568720 0.139000
H37   H     H_    0.346551 0.617398 0.597154 0.192575
H38   H     H_    0.377389 0.467856 0.618770 0.159418
C97   C     C_3   0.138546 0.032802 0.426733 -0.260887
C98   C     C_3   0.073564 0.060137 0.470221 -0.481687
H39   H     H_    0.052906 0.975686 0.494641 0.167594
H40   H     H_    0.084685 0.129212 0.511399 0.138524
H41   H     H_    0.034006 0.097929 0.434526 0.138920
H42   H     H_    0.156793 0.120703 0.405245 0.194803
H43   H     H_    0.122607 0.972603 0.382553 0.160764
C99   C     C_3   0.850266 0.070096 0.566606 -0.265858
C100  C     C_3   0.911511 0.114379 0.521629 -0.492356
H44   H     H_    0.937202 0.035663 0.497191 0.141390
H45   H     H_    0.894084 0.178151 0.480402 0.158984
H46   H     H_    0.949751 0.162069 0.555491 0.137177
H47   H     H_    0.830854 0.151736 0.592677 0.208071
H48   H     H_    0.870216 0.006280 0.606580 0.161980
O53   O     O_3   0.588110 0.215457 0.090142 -0.561054
C101  C     C_3   0.622993 0.193410 0.153717 -0.077662
H49   H     H_    0.679422 0.210176 0.144839 0.144456
H50   H     H_    0.616613 0.097488 0.170942 0.082881
H51   H     H_    0.605032 0.256744 0.195768 0.149145
O54   O     O_3   0.410954 0.125964 0.907665 -0.585634
C102  C     C_3   0.381845 0.123928 0.839725 -0.089545
H52   H     H_    0.325167 0.106047 0.845058 0.139198
H53   H     H_    0.404722 0.049691 0.807349 0.107785
H54   H     H_    0.388215 0.212731 0.812615 0.157999
O55   O     O_3   0.088092 0.715530 0.090117 -0.560471
C103  C     C_3   0.122992 0.693589 0.153694 -0.079723
H55   H     H_    0.179417 0.710377 0.144797 0.142113
H56   H     H_    0.116635 0.597687 0.170961 0.083266
H57   H     H_    0.105030 0.756975 0.195717 0.147978
O56   O     O_3   0.910955 0.625904 0.907640 -0.586017
C104  C     C_3   0.881868 0.623830 0.839688 -0.088254
H58   H     H_    0.825193 0.605904 0.845002 0.140949
H59   H     H_    0.904774 0.549609 0.807320 0.106808
H60   H     H_    0.888224 0.712633 0.812574 0.159248
C105  C     C_3   0.613128 0.475696 0.941074 -0.248047
C106  C     C_3   0.613306 0.596761 0.902618 -0.437285
H61   H     H_    0.635611 0.667577 0.937349 0.148508
H62   H     H_    0.645145 0.592626 0.853442 0.177598
H63   H     H_    0.559280 0.621678 0.889034 0.113440
H64   H     H_    0.594725 0.402875 0.907606 0.199614
H65   H     H_    0.572325 0.476977 0.982680 0.166380
C107  C     C_3   0.390028 0.388564 0.048963 -0.208429
C108  C     C_3   0.420100 0.495635 0.090934 -0.390879
H66   H     H_    0.384173 0.572781 0.091138 0.128869
H67   H     H_    0.428195 0.477474 0.147185 0.207021
H68   H     H_    0.471787 0.520047 0.068864 0.123290
H69   H     H_    0.386934 0.304285 0.078892 0.177891
H70   H     H_    0.426084 0.367809 0.004995 0.182893
C109  C     C_3   0.113131 0.975747 0.941072 -0.247691
C110  C     C_3   0.113318 0.096828 0.902625 -0.438342
H71   H     H_    0.135879 0.167556 0.937226 0.148750
H72   H     H_    0.144910 0.092546 0.853316 0.175752
H73   H     H_    0.059280 0.121997 0.889295 0.113104
H74   H     H_    0.094708 0.902943 0.907598 0.199653
H75   H     H_    0.072331 0.977029 0.982681 0.166392
C111  C     C_3   0.890025 0.888552 0.048968 -0.208807
C112  C     C_3   0.920100 0.995625 0.090935 -0.390507
H76   H     H_    0.884174 0.072774 0.091137 0.129425
H77   H     H_    0.928194 0.977471 0.147188 0.207734
H78   H     H_    0.971787 0.020033 0.068864 0.123140
H79   H     H_    0.886929 0.804273 0.078897 0.177733
H80   H     H_    0.926081 0.867789 0.005001 0.182854
O57   O     O_3   0.639090 0.478809 0.088440 -0.544071
C113  C     C_3   0.624501 0.604338 0.089896 -0.079733
H81   H     H_    0.666428 0.662988 0.066813 0.134426
H82   H     H_    0.615380 0.632441 0.145423 0.164010
H83   H     H_    0.575616 0.621689 0.062201 0.076512
O58   O     O_3   0.357073 0.396037 0.902408 -0.566370
C114  C     C_3   0.400029 0.497465 0.887206 -0.116657
H84   H     H_    0.370527 0.581871 0.878884 0.146302
H85   H     H_    0.429024 0.478757 0.837429 0.143638
H86   H     H_    0.439448 0.512522 0.928362 0.097535
O59   O     O_3   0.139089 0.978812 0.088440 -0.544686
C115  C     C_3   0.124502 0.104343 0.089902 -0.079889
H87   H     H_    0.166422 0.162992 0.066806 0.134790
H88   H     H_    0.115397 0.132443 0.145432 0.163372
H89   H     H_    0.075609 0.121697 0.062224 0.076740
O60   O     O_3   0.857074 0.896033 0.902411 -0.565246
C116  C     C_3   0.900037 0.997458 0.887223 -0.115163
H90   H     H_    0.870536 0.081862 0.878884 0.146170
H91   H     H_    0.929051 0.978742 0.837459 0.144306
H92   H     H_    0.939441 0.012522 0.928391 0.096821
C117  C     C_3   0.880175 0.328305 0.049697 -0.252364
C118  C     C_3   0.909923 0.237625 0.996122 -0.480196
H93   H     H_    0.869010 0.169428 0.984898 0.164421
H94   H     H_    0.928748 0.277821 0.946025 0.139827
H95   H     H_    0.955640 0.193406 0.018400 0.122860
H96   H     H_    0.919069 0.397002 0.065789 0.170635
H97   H     H_    0.867130 0.271970 0.096275 0.170224
C119  C     C_3   0.104992 0.425775 0.954533 -0.246920
C120  C     C_3   0.048936 0.402783 0.009521 -0.477825
H98   H     H_    0.050962 0.308052 0.027395 0.128951
H99   H     H_    0.052919 0.462103 0.055819 0.164249
H100  H     H_    0.999207 0.422247 0.983842 0.167656
H101  H     H_    0.097125 0.515059 0.931193 0.188626
H102  H     H_    0.095310 0.354236 0.914829 0.178986
C121  C     C_3   0.380174 0.828307 0.049695 -0.252244
C122  C     C_3   0.409921 0.737627 0.996120 -0.480322
H103  H     H_    0.369009 0.669426 0.984898 0.164522
H104  H     H_    0.428745 0.777823 0.946022 0.139849
H105  H     H_    0.455640 0.693411 0.018397 0.122829
H106  H     H_    0.419067 0.897004 0.065788 0.170898
H107  H     H_    0.367128 0.771972 0.096274 0.169488
C123  C     C_3   0.604991 0.925790 0.954534 -0.247230
C124  C     C_3   0.548934 0.902787 0.009519 -0.477627
H108  H     H_    0.550961 0.808053 0.027387 0.128897
H109  H     H_    0.552916 0.962097 0.055822 0.164225
H110  H     H_    0.499204 0.922254 0.983842 0.167623
H111  H     H_    0.597129 0.015078 0.931199 0.188129
H112  H     H_    0.595302 0.854267 0.914822 0.179023

loop_
_geom_bond_atom_site_label_1
_geom_bond_atom_site_label_2
_ccdc_geom_bond_type
C3    O27   A    
C112  H77   S    
C55   C59   A    
O55   C103  S    
C32   C75   S    
C93   H32   S    
C124  H109  S    
C86   H2    S    
C109  H74   S    
C118  H93   S    
Cr6   O6    S    
C88   H4    S    
O59   C115  S    
C29   C33   A    
C97   H43   S    
Cr2   O46   S    
C9    C13   A    
C11   C15   A    
C55   C97   S    
C12   C16   A    
C115  H87   S    
C100  H46   S    
C8    C92   A    
C47   C83   S    
C46   O34   A    
C18   H14   S    
C81   C86   D    
C83   C88   D    
C97   C98   S    
C5    O57   S    
C106  H62   S    
C41   C49   A    
O56   C104  S    
Cr6   O30   S    
C110  H72   S    
C71   O51   A    
C72   O52   A    
C99   C100  S    
C21   C89   A    
C17   C21   A    
C106  H63   S    
C19   C23   A    
C104  H58   S    
C124  H108  S    
C16   C20   A    
C33   H21   S    
Cr4   O48   S    
C35   H23   S    
C8    O60   S    
C75   O11   A    
C44   H8    S    
C122  H103  S    
C97   H42   S    
C20   H16   S    
Cr6   O18   S    
C117  H96   S    
C45   C81   S    
C123  H112  S    
C84   O55   S    
Cr11  O11   S    
C113  H82   S    
C57   C61   A    
C48   O32   A    
Cr2   O18   S    
C82   C85   D    
C59   C63   A    
C60   C64   A    
Cr12  O20   S    
Cr1   O21   S    
C105  H65   S    
C31   C76   S    
Cr4   O24   S    
C73   O5    A    
C111  H79   S    
C115  H89   S    
C49   C53   A    
Cr1   O41   S    
C37   H25   S    
C51   C55   A    
C78   O14   A    
C99   H48   S    
C80   O16   A    
C87   H3    S    
C98   H40   S    
C96   H34   S    
C94   H29   S    
C25   H17   S    
C5    C89   A    
C69   O49   A    
C38   C62   A    
Cr10  O38   S    
Cr11  O35   S    
Cr7   O27   S    
C68   O40   A    
Cr11  O15   S    
C85   C86   S    
Cr8   O20   S    
Cr9   O13   S    
C54   C95   S    
C32   C36   A    
C104  H60   S    
Cr1   O1    S    
O57   C113  S    
C114  H86   S    
C101  H50   S    
Cr12  O36   S    
Cr4   O20   S    
C45   O29   A    
C108  H66   S    
C23   C67   S    
Cr3   O43   S    
C46   C82   S    
C122  H105  S    
C61   C77   S    
C6    O58   S    
C105  C106  S    
Cr7   O51   S    
C44   C52   A    
Cr10  O34   S    
C41   H5    S    
C116  H90   S    
Cr11  O39   S    
Cr7   O7    S    
C36   H24   S    
C1    C12   S    
C43   H7    S    
C2    C11   S    
C24   C92   A    
Cr5   O5    S    
C83   O56   S    
C30   C34   A    
C10   C14   A    
Cr1   O45   S    
C57   H9    S    
C29   C74   S    
C25   C26   A    
C6    C90   A    
C5    C9    A    
C82   O53   S    
C8    C12   A    
C96   H36   S    
C120  H98   S    
C42   C50   A    
Cr7   O31   S    
C119  H102  S    
C60   H12   S    
C72   O48   A    
Cr12  O40   S    
C18   C22   A    
C62   C78   S    
C4    O28   A    
C114  H84   S    
C28   H20   S    
C113  H81   S    
Cr11  O19   S    
C118  H94   S    
C13   C17   A    
C108  H68   S    
C42   H6    S    
C75   O7    A    
C102  H54   S    
C13   C117  S    
C107  C108  S    
C37   C41   A    
C40   C44   A    
C56   C99   S    
O60   C116  S    
C118  H95   S    
C115  H88   S    
C116  H92   S    
C58   H10   S    
Cr5   O17   S    
Cr10  O10   S    
C4    C9    S    
C92   C111  S    
C58   C62   A    
C87   C88   S    
Cr12  O16   S    
Cr1   O17   S    
C35   C36   A    
C103  H55   S    
C113  H83   S    
Cr4   O4    S    
C73   O9    A    
O53   C101  S    
C15   C19   A    
C74   O6    A    
C50   C54   A    
C38   H26   S    
C39   H27   S    
C120  H100  S    
C59   H11   S    
C52   C69   S    
C69   O45   A    
C70   O50   A    
Cr6   O26   S    
Cr9   O37   S    
C17   H13   S    
C121  H107  S    
C47   O31   A    
C122  H104  S    
C112  H78   S    
C19   H15   S    
C107  H70   S    
C64   C80   S    
C93   H33   S    
C124  H110  S    
C91   C109  S    
C100  H44   S    
C121  C122  S    
C53   C57   A    
C79   O15   A    
C123  H111  S    
C56   C60   A    
C65   O37   A    
Cr6   O50   S    
C67   O3    A    
C105  H64   S    
C111  C112  S    
C111  H80   S    
C2    O26   A    
C7    C91   A    
C3    O23   A    
C22   C90   A    
Cr8   O32   S    
C95   H37   S    
Cr9   O33   S    
Cr10  O18   S    
C4    O24   A    
C31   C35   A    
Cr3   O19   S    
C106  H61   S    
C94   H30   S    
C103  H57   S    
C102  H52   S    
C110  H71   S    
C25   C30   A    
C77   O41   A    
Cr4   O44   S    
C21   C65   S    
C27   C32   A    
C28   C31   A    
C6    C10   A    
C121  H106  S    
C94   H31   S    
C7    O59   S    
C104  H59   S    
C119  C120  S    
C114  H85   S    
C43   C51   A    
C93   C94   S    
Cr8   O52   S    
C24   C68   S    
C95   H38   S    
C26   H18   S    
C45   O33   A    
Cr5   O29   S    
C117  H97   S    
C14   C18   A    
C84   C87   D    
C50   C71   S    
C63   C79   S    
C7    C11   A    
C15   C121  S    
C38   C42   A    
C89   C105  S    
C71   O47   A    
C53   C93   S    
C22   C66   S    
Cr8   O8    S    
C120  H99   S    
Cr9   O9    S    
C99   H47   S    
C20   C24   A    
C98   H39   S    
C96   H35   S    
C49   C72   S    
Cr12  O12   S    
C51   C70   S    
C110  H73   S    
C34   H22   S    
C74   O10   A    
C66   O2    A    
C85   H1    S    
C76   O8    A    
C79   O43   A    
C68   O4    A    
C80   O44   A    
C14   C119  S    
C30   C73   S    
C27   H19   S    
C101  H49   S    
C70   O46   A    
C39   C43   A    
C67   O39   A    
C117  C118  S    
C119  H101  S    
Cr7   O19   S    
C48   C84   S    
C108  H67   S    
Cr5   O25   S    
C1    O21   A    
C102  H53   S    
C47   O35   A    
Cr8   O28   S    
C48   O36   A    
Cr2   O22   S    
Cr3   O3    S    
C33   C34   A    
Cr2   O42   S    
C109  H75   S    
Cr3   O47   S    
C116  H91   S    
C23   C91   A    
C112  H76   S    
C77   O13   A    
C100  H45   S    
C54   C58   A    
C123  C124  S    
C66   O38   A    
C76   O12   A    
C101  H51   S    
C103  H56   S    
C37   C61   A    
C109  C110  S    
Cr5   O49   S    
C39   C63   A    
C40   C64   A    
C90   C107  S    
C95   C96   S    
C1    O25   A    
C3    C10   S    
Cr10  O14   S    
O54   C102  S    
C107  H69   S    
C98   H41   S    
C81   O54   S    
Cr9   O17   S    
Cr2   O2    S    
Cr3   O23   S    
C40   H28   S    
O58   C114  S    
C26   C29   A    
C2    O22   A    
C46   O30   A    
C16   C123  S    
C27   C28   A    
C78   O42   A    
C65   O1    A    
C52   C56   A    
