data_mof_unit_45830.cif
_audit_creation_date              2012-12-10T18:57:38-0500
_audit_creation_method            fapswitch 2.2
_symmetry_space_group_name_H-M    P1
_symmetry_Int_Tables_number       1
_space_group_crystal_system       triclinic
_cell_length_a                    10.953767
_cell_length_b                    10.847596
_cell_length_c                    9.557936
_cell_angle_alpha                 91.072066
_cell_angle_beta                  88.994134
_cell_angle_gamma                 90.957773
_cell_volume                      1135.16712127

loop_
_atom_site_label
_atom_site_type_symbol
_atom_type_description
_atom_site_fract_x
_atom_site_fract_y
_atom_site_fract_z
_atom_type_partial_charge
C1    C     C_R   0.491732 0.262540 0.498692 0.808719
C2    C     C_R   0.470634 0.129585 0.497111 -0.213249
C3    C     C_R   0.445022 0.059402 0.373632 0.389320
C4    C     C_R   0.454232 0.930889 0.376474 -0.209746
C5    C     C_R   0.480148 0.870901 0.501796 -0.184946
C6    C     C_R   0.478141 0.940572 0.626140 0.129597
C7    C     C_3   0.561515 0.944317 0.748337 -0.480858
C8    C     C_3   0.560484 0.083639 0.742311 -0.402543
C9    C     C_R   0.598496 0.544640 0.072593 0.202031
C10   C     C_R   0.413184 0.436867 0.075757 -0.085304
C11   C     C_R   0.414699 0.433970 0.926903 0.010125
C12   C     C_R   0.265106 0.495480 0.500998 0.794518
C13   C     C_R   0.599206 0.543276 0.925590 0.298893
C14   C     C_3   0.656751 0.667825 0.920801 0.141302
C15   C     C_3   0.654577 0.670489 0.080276 -0.529397
C16   C     C_R   0.496892 0.737916 0.501031 0.822056
C17   C     C_R   0.734155 0.506088 0.499004 0.862906
C18   C     C_2   0.934215 0.497072 0.386116 -0.179344
C19   C     C_2   0.864716 0.525263 0.498125 -0.288724
C20   C     C_2   0.067709 0.508110 0.391089 -0.207570
C21   C     C_2   0.132904 0.479381 0.504109 -0.170413
C22   C     C_R   0.476177 0.067146 0.622725 0.103847
Cu1   Cu    Cu3+1 0.499990 0.499980 0.640670 0.978480
Cu2   Cu    Cu3+1 0.500010 0.500020 0.359330 0.955144
H1    H     H_    0.893326 0.467368 0.288114 0.183041
H2    H     H_    0.650255 0.124891 0.710922 0.201080
H3    H     H_    0.343079 0.386433 0.133107 0.143866
H4    H     H_    0.597429 0.734182 0.871022 0.120991
H5    H     H_    0.746663 0.670167 0.127404 0.220566
H6    H     H_    0.591365 0.740248 0.125635 0.183167
H7    H     H_    0.904045 0.564154 0.592868 0.187835
H8    H     H_    0.113856 0.539080 0.296205 0.176208
H9    H     H_    0.442564 0.878753 0.279713 0.181780
H10   H     H_    0.514290 0.911471 0.844749 0.200600
H11   H     H_    0.652523 0.904585 0.723757 0.196140
H12   H     H_    0.515306 0.127761 0.835041 0.217054
N1    N     N_R   0.500780 0.500930 0.147930 -0.192940
N2    N     N_R   0.500780 0.500890 0.852020 -0.251626
O1    O     O_R   0.500000 0.319640 0.618810 -0.579048
O2    O     O_R   0.500010 0.319680 0.381230 -0.566929
O3    O     O_R   0.321940 0.499980 0.618760 -0.577496
O4    O     O_R   0.321950 0.500020 0.381180 -0.595708
O5    O     O_R   0.499990 0.680320 0.618770 -0.582838
O6    O     O_R   0.500000 0.680360 0.381190 -0.587928
O7    O     O_R   0.678050 0.499980 0.618820 -0.545597
O8    O     O_R   0.678060 0.500020 0.381240 -0.580464
C23   C     C_1   0.332744 0.349113 0.857704 0.321030
N3    N     N_1   0.268238 0.278296 0.803468 -0.284549
O9    O     O_3   0.775346 0.662907 0.864082 -0.703988
H13   H     H_    0.806005 0.749460 0.863283 0.326268
C24   C     C_1   0.077839 0.421770 0.626306 0.293565
N4    N     N_1   0.032730 0.376246 0.723289 -0.253503
O10   O     O_3   0.415556 0.111544 0.248632 -0.721305
H14   H     H_    0.362126 0.182372 0.270334 0.325884

loop_
_geom_bond_atom_site_label_1
_geom_bond_atom_site_label_2
_ccdc_geom_bond_type
C10   H3    S    
C2    C22   A    
C11   N2    A    
C8    C22   S    
Cu1   Cu2   S    
C14   H4    S    
C12   O3    A    
Cu1   O7    S    
Cu1   N2    S    
Cu2   O4    S    
C16   O6    A    
C11   C23   S    
C23   N3    T    
Cu1   O3    S    
C19   H7    S    
C8    H2    S    
C9    N1    A    
C2    C3    A    
C9    C15   S    
Cu2   O8    S    
C7    C8    S    
C13   C14   S    
C20   C21   D    
C3    O10   S    
C16   O5    A    
C13   N2    A    
C6    C7    S    
C18   H1    S    
C10   N1    A    
Cu1   O1    S    
C17   C19   S    
C17   O7    A    
C15   H5    S    
C18   C20   S    
C8    H12   S    
C5    C6    A    
Cu2   O6    S    
C7    H10   S    
C14   O9    S    
C10   C11   A    
C1    O1    A    
C3    C4    A    
C6    C22   A    
C21   C24   S    
Cu1   O5    S    
C17   O8    A    
C15   H6    S    
Cu2   N1    S    
C1    C2    S    
C20   H8    S    
O9    H13   S    
C9    C13   A    
C4    H9    S    
C18   C19   D    
C5    C16   S    
C12   O4    A    
C1    O2    A    
Cu2   O2    S    
C14   C15   S    
C7    H11   S    
C12   C21   S    
C24   N4    T    
O10   H14   S    
C4    C5    A    
