data_mof_unit_41264.cif
_audit_creation_date              2012-12-10T16:42:57-0500
_audit_creation_method            fapswitch 2.2
_symmetry_space_group_name_H-M    P1
_symmetry_Int_Tables_number       1
_space_group_crystal_system       triclinic
_cell_length_a                    7.459163
_cell_length_b                    8.678782
_cell_length_c                    12.999709
_cell_angle_alpha                 88.013836
_cell_angle_beta                  79.551379
_cell_angle_gamma                 102.786904
_cell_volume                      804.617416768

loop_
_atom_site_label
_atom_site_type_symbol
_atom_type_description
_atom_site_fract_x
_atom_site_fract_y
_atom_site_fract_z
_atom_type_partial_charge
C1    C     C_R   0.452812 0.199719 0.503170 0.876094
C2    C     C_R   0.547191 0.800282 0.496811 0.877350
C3    C     C_R   0.467918 0.499074 0.700840 0.809815
C4    C     C_R   0.532534 0.502077 0.299402 0.803520
C5    C     C_R   0.550707 0.512205 0.186802 -0.123166
C6    C     C_R   0.451114 0.493549 0.813911 -0.134083
C7    C     C_R   0.277276 0.369104 0.981825 0.165804
C8    C     C_R   0.711687 0.657876 0.022610 0.175728
C9    C     C_R   0.294149 0.392170 0.874722 -0.219888
C10   C     C_R   0.692485 0.632055 0.129719 -0.227384
C11   C     C_R   0.588312 0.587958 0.860706 0.093629
C12   C     C_R   0.424672 0.410626 0.137271 0.109745
C13   C     C_R   0.576651 0.566579 0.970310 0.053293
C14   C     C_R   0.424875 0.447213 0.030522 0.022828
C15   C     C_2   0.426240 0.031858 0.504612 -0.373623
C16   C     C_2   0.573766 0.968145 0.495322 -0.371235
Cu1   Cu    Cu3+1 0.686350 0.517570 0.488220 0.946977
Cu2   Cu    Cu3+1 0.313650 0.482430 0.511780 0.949855
H1    H     H_    0.790407 0.707948 0.169251 0.176181
H2    H     H_    0.183777 0.326903 0.838266 0.178050
H3    H     H_    0.934193 0.376785 0.582994 0.224331
H4    H     H_    0.065806 0.623279 0.417046 0.228162
N1    N     N_2   0.033570 0.455950 0.529530 -0.219600
N2    N     N_2   0.966430 0.544050 0.470470 -0.216362
O1    O     O_R   0.621060 0.286250 0.492350 -0.579375
O2    O     O_R   0.378940 0.713750 0.507650 -0.583344
O3    O     O_R   0.306310 0.256580 0.512240 -0.589550
O4    O     O_R   0.693690 0.743420 0.487760 -0.590486
O5    O     O_R   0.631800 0.512400 0.642670 -0.597263
O6    O     O_R   0.368200 0.487600 0.357330 -0.579659
O7    O     O_R   0.317060 0.482730 0.662570 -0.586747
O8    O     O_R   0.682940 0.517270 0.337430 -0.582612
N3    N     N_3   0.310419 0.263313 0.190774 -0.597915
H5    H     H_    0.330295 0.245621 0.267205 0.228696
H6    H     H_    0.357856 0.172174 0.151830 0.208459
N4    N     N_3   0.734994 0.707556 0.797398 -0.622168
H7    H     H_    0.829234 0.653973 0.750506 0.252764
H8    H     H_    0.677434 0.776457 0.750670 0.223325
N5    N     N_3   0.102019 0.274313 0.038428 -0.586868
H9    H     H_    0.052170 0.331668 0.103244 0.258895
H10   H     H_    0.117981 0.162328 0.061076 0.244087
N6    N     N_3   0.868261 0.780770 0.971990 -0.592445
H11   H     H_    0.820883 0.871131 0.937863 0.253402
H12   H     H_    0.957387 0.733205 0.917054 0.250422
H13   H     H_    0.284023 0.960350 0.513347 0.180272
H14   H     H_    0.715982 0.039653 0.486584 0.182088

loop_
_geom_bond_atom_site_label_1
_geom_bond_atom_site_label_2
_ccdc_geom_bond_type
C3    O7    A    
N1    N2    D    
C8    C13   A    
Cu2   O6    S    
C1    O3    A    
Cu1   O5    S    
C9    H2    S    
Cu2   O2    S    
C10   H1    S    
C3    C6    S    
Cu1   O1    S    
C6    C9    A    
N4    H8    S    
N3    H5    S    
C5    C10   A    
C2    O2    A    
C13   C14   A    
C1    O1    A    
C11   C13   A    
C3    O5    A    
C4    O8    A    
N6    H12   S    
C1    C15   S    
C8    C10   A    
C11   N4    S    
N3    H6    S    
C12   C14   A    
Cu1   Cu2   S    
H3    N1    S    
H4    N2    S    
Cu1   N2    S    
N6    H11   S    
C15   H13   S    
Cu2   N1    S    
C6    C11   A    
C2    C16   S    
C5    C12   A    
N5    H10   S    
C16   H14   S    
N5    H9    S    
C7    C9    A    
Cu1   O8    S    
C7    N5    S    
N4    H7    S    
C2    O4    A    
Cu2   O7    S    
C12   N3    S    
Cu1   O4    S    
C7    C14   A    
C4    O6    A    
Cu2   O3    S    
C15   C16   D    
C8    N6    S    
C4    C5    S    
