data_mof_unit_58641.cif
_audit_creation_date              2012-10-26T20:07:12-0400
_audit_creation_method            fapswitch 2.2
_symmetry_space_group_name_H-M    P1
_symmetry_Int_Tables_number       1
_space_group_crystal_system       triclinic
_cell_length_a                    10.864491
_cell_length_b                    9.686948
_cell_length_c                    27.740976
_cell_angle_alpha                 88.17148
_cell_angle_beta                  91.548441
_cell_angle_gamma                 88.088486
_cell_volume                      2915.30114759

loop_
_atom_site_label
_atom_site_type_symbol
_atom_type_description
_atom_site_fract_x
_atom_site_fract_y
_atom_site_fract_z
_atom_type_partial_charge
C1    C     C_R   0.262593 0.502030 0.503494 0.623369
C2    C     C_R   0.404087 0.635471 0.867703 0.012382
C3    C     C_R   0.491812 0.509791 0.353891 -0.066205
C4    C     C_R   0.504861 0.494288 0.645974 -0.055030
C5    C     C_R   0.384371 0.589610 0.968692 -0.009848
C6    C     C_R   0.586079 0.467941 0.023126 -0.012813
C7    C     C_R   0.598183 0.500302 0.973297 0.047041
C8    C     C_R   0.383478 0.585815 0.020181 0.039394
C9    C     C_R   0.496207 0.557340 0.945950 0.019558
C10   C     C_R   0.485298 0.525912 0.047187 0.017960
C11   C     C_R   0.279652 0.631804 0.939294 0.021222
C12   C     C_R   0.736735 0.498639 0.495251 0.648026
C13   C     C_R   0.673211 0.383080 0.050108 0.009349
C14   C     C_R   0.297047 0.680828 0.891558 0.231739
C15   C     C_R   0.688584 0.404569 0.099893 0.178614
C16   C     C_R   0.494815 0.502207 0.407492 0.630442
C17   C     C_R   0.504860 0.498105 0.592469 0.617811
C18   C     C_R   0.287285 0.648361 0.045469 -0.084105
C19   C     C_R   0.712527 0.486148 0.951038 -0.066982
C20   C     C_R   0.065672 0.380876 0.513598 0.022790
C21   C     C_R   0.931576 0.623354 0.483233 0.009888
C22   C     C_R   0.941839 0.373555 0.499317 0.025728
C23   C     C_R   0.485693 0.521808 0.098364 -0.078066
C24   C     C_R   0.057379 0.630540 0.494854 -0.003409
C25   C     C_R   0.871803 0.497001 0.490030 0.001536
C26   C     C_R   0.126943 0.506374 0.506402 -0.025237
C27   C     C_R   0.444803 0.078954 0.462907 0.125761
C28   C     C_R   0.554508 0.921326 0.537310 0.127112
C29   C     C_R   0.554744 0.068799 0.537022 0.105313
C30   C     C_R   0.448437 0.931631 0.462305 0.106396
C31   C     C_R   0.380169 0.550828 0.172917 0.449842
C32   C     C_R   0.618652 0.564862 0.822094 0.430689
C33   C     C_R   0.584159 0.462770 0.176489 0.477636
C34   C     C_R   0.505363 0.578453 0.895488 -0.071975
C35   C     C_R   0.411061 0.632351 0.816768 0.502498
C36   C     C_R   0.606124 0.536710 0.279608 0.239591
C37   C     C_R   0.389347 0.506835 0.720353 0.258377
C38   C     C_R   0.603803 0.499499 0.329037 -0.012398
C39   C     C_R   0.391735 0.514345 0.669610 0.007265
C40   C     C_R   0.382689 0.554296 0.327611 0.132449
C41   C     C_R   0.613587 0.460098 0.674289 0.092638
C42   C     C_R   0.390618 0.593761 0.278315 0.059272
C43   C     C_R   0.605524 0.450878 0.725054 0.043414
C44   C     C_R   0.494346 0.549444 0.252293 0.132824
C45   C     C_R   0.382032 0.572285 0.122593 0.025255
C46   C     C_R   0.501747 0.511979 0.747065 0.126507
C47   C     C_2   0.373759 0.154464 0.423638 0.656630
C48   C     C_2   0.618662 0.846245 0.578425 0.643039
C49   C     C_2   0.613899 0.135008 0.578044 0.644795
C50   C     C_2   0.396778 0.866265 0.419668 0.631116
C51   C     C_2   0.321137 0.720771 0.260304 0.661539
C52   C     C_2   0.684621 0.347446 0.753677 0.658173
C53   C     C_2   0.177126 0.710362 0.118171 0.667095
C54   C     C_2   0.848565 0.486729 0.882268 0.646021
C55   C     C_2   0.274558 0.543476 0.642104 0.665956
C56   C     C_R   0.618692 0.552764 0.872884 0.020184
C57   C     C_2   0.720052 0.447702 0.353322 0.636979
C58   C     C_2   0.154417 0.588302 0.953280 0.587437
C59   C     C_2   0.724752 0.253104 0.029089 0.605440
C60   C     C_2   0.122738 0.264005 0.543237 0.691057
C61   C     C_2   0.863102 0.747586 0.462412 0.664873
C62   C     C_2   0.892511 0.238046 0.486063 0.648088
C63   C     C_2   0.110195 0.769787 0.499063 0.672152
C64   C     C_R   0.282587 0.638296 0.095688 0.067722
C65   C     C_R   0.724616 0.512213 0.901658 0.066668
C66   C     C_R   0.588658 0.464468 0.125261 -0.014797
Cu1   Cu    Cu3+1 0.500000 0.640660 0.500000 1.152695
Cu2   Cu    Cu3+1 0.500000 0.359340 0.500000 1.158459
H1    H     H_    0.216540 0.711534 0.026538 0.162709
H2    H     H_    0.854862 0.272460 0.773258 0.362965
H3    H     H_    0.118111 0.839410 0.168907 0.385959
H4    H     H_    0.993124 0.352997 0.876207 0.372285
H5    H     H_    0.116155 0.657758 0.634935 0.380453
H6    H     H_    0.872854 0.324342 0.350302 0.388821
H7    H     H_    0.140411 0.264185 0.727091 0.395845
H8    H     H_    0.841880 0.707596 0.320196 0.384974
H9    H     H_    0.220621 0.997641 0.819918 0.392758
H10   H     H_    0.850020 0.608101 0.137057 0.365905
H11   H     H_    0.054169 0.448292 0.989009 0.372028
H12   H     H_    0.794759 0.456563 0.972380 0.149543
H13   H     H_    0.719081 0.119254 0.974704 0.374780
H14   H     H_    0.224739 0.086180 0.546193 0.361917
H15   H     H_    0.781170 0.930827 0.475015 0.334039
H16   H     H_    0.798138 0.133082 0.435908 0.347869
H17   H     H_    0.130616 0.959836 0.468920 0.387315
H18   H     H_    0.081207 0.673700 0.371034 0.386322
H19   H     H_    0.810066 0.633280 0.684279 0.352008
H20   H     H_    0.366488 0.220308 0.353833 0.367494
H21   H     H_    0.776142 0.755464 0.605420 0.361882
H22   H     H_    0.608226 0.173871 0.649128 0.364701
H23   H     H_    0.405361 0.839266 0.348095 0.357309
H24   H     H_    0.329731 0.909955 0.228100 0.378130
N1    N     N_R   0.487966 0.527115 0.199632 -0.377662
N2    N     N_R   0.509284 0.566005 0.796216 -0.380889
N3    N     N_R   0.500000 0.852070 0.500000 -0.308984
N4    N     N_R   0.500000 0.147930 0.500000 -0.314150
O1    O     O_R   0.319640 0.618740 0.500000 -0.460968
O2    O     O_2   0.724290 0.583607 0.798984 -0.398616
O3    O     O_2   0.321965 0.693587 0.788300 -0.336124
O4    O     O_2   0.668790 0.385854 0.202559 -0.342653
O5    O     O_2   0.157432 0.456290 0.317632 -0.185278
O6    O     O_2   0.238708 0.465028 0.400141 -0.283588
O7    O     O_3   0.161898 0.693817 0.357057 -0.424259
O8    O     O_2   0.812135 0.298872 0.654952 -0.159544
O9    O     O_2   0.761479 0.487264 0.596718 -0.290254
O10   O     O_3   0.858915 0.547284 0.678886 -0.398194
O11   O     O_2   0.266993 0.191534 0.429671 -0.424884
O12   O     O_R   0.680360 0.381260 0.500000 -0.457105
O13   O     O_R   0.425402 0.171631 0.378279 -0.628242
O14   O     O_2   0.569767 0.840147 0.617618 -0.460617
O15   O     O_R   0.738330 0.792950 0.573704 -0.611177
O16   O     O_2   0.713850 0.186703 0.573473 -0.400123
O17   O     O_R   0.557191 0.131747 0.622713 -0.628299
O18   O     O_2   0.306319 0.796549 0.423295 -0.424905
O19   O     O_R   0.451323 0.885566 0.375014 -0.621061
O20   O     O_2   0.209699 0.733033 0.264516 -0.353110
O21   O     O_R   0.385002 0.826723 0.237740 -0.637410
O22   O     O_2   0.636114 0.265442 0.781053 -0.455743
O23   O     O_R   0.680360 0.618740 0.500000 -0.470508
O24   O     O_R   0.812987 0.346309 0.751218 -0.545536
O25   O     O_2   0.073028 0.700754 0.100971 -0.450120
O26   O     O_R   0.197138 0.794505 0.157352 -0.630025
O27   O     O_2   0.901764 0.580350 0.862008 -0.344942
O28   O     O_R   0.907706 0.357274 0.890054 -0.653179
O29   O     O_2   0.248087 0.474655 0.607593 -0.497672
O30   O     O_R   0.193474 0.648693 0.656266 -0.571697
O31   O     O_2   0.752376 0.492147 0.392022 -0.497982
O32   O     O_R   0.794077 0.349045 0.331074 -0.570805
O33   O     O_2   0.293163 0.371420 0.797035 -0.261689
O34   O     O_R   0.319640 0.381260 0.500000 -0.450060
O35   O     O_2   0.153452 0.530376 0.749304 -0.127566
O36   O     O_3   0.217133 0.297017 0.712766 -0.450103
O37   O     O_2   0.845119 0.533425 0.255359 -0.127833
O38   O     O_2   0.707411 0.705843 0.212823 -0.206680
O39   O     O_3   0.768991 0.746978 0.301707 -0.435622
O40   O     O_2   0.100253 0.760087 0.835287 -0.124791
O41   O     O_2   0.140451 0.896795 0.906643 -0.215223
O42   O     O_3   0.281826 0.928865 0.834150 -0.448193
O43   O     O_2   0.857421 0.259481 0.155659 -0.104425
O44   O     O_2   0.934440 0.386957 0.085798 -0.234316
O45   O     O_R   0.500020 0.618770 0.430260 -0.473998
O46   O     O_3   0.869348 0.526591 0.158736 -0.367294
O47   O     O_2   0.061738 0.654434 0.939547 -0.409240
O48   O     O_R   0.143068 0.468149 0.981954 -0.648356
O49   O     O_2   0.800019 0.178504 0.051886 -0.396500
O50   O     O_R   0.679065 0.209658 0.984621 -0.661745
O51   O     O_2   0.102553 0.255663 0.586350 -0.364072
O52   O     O_R   0.191796 0.159694 0.521923 -0.648556
O53   O     O_2   0.820620 0.747309 0.421187 -0.456709
O54   O     O_R   0.843612 0.862361 0.490588 -0.581385
O55   O     O_2   0.913457 0.134469 0.511637 -0.411398
O56   O     O_R   0.499980 0.381230 0.569740 -0.473007
O57   O     O_R   0.824962 0.229636 0.442683 -0.652558
O58   O     O_2   0.164388 0.799502 0.536342 -0.469979
O59   O     O_R   0.092214 0.868877 0.461529 -0.605603
O60   O     O_R   0.499980 0.618770 0.569740 -0.482105
O61   O     O_R   0.500020 0.381230 0.430260 -0.472544
O62   O     O_2   0.270308 0.537688 0.193598 -0.385244
S1    S     S_3+6 0.233127 0.538540 0.351806 0.072461
S2    S     S_3+6 0.762583 0.445212 0.649068 0.081386
S3    S     S_3+6 0.260138 0.428087 0.747097 0.117002
S4    S     S_3+6 0.735254 0.629980 0.260164 0.146161
S5    S     S_3+6 0.199046 0.818077 0.866909 0.136050
S6    S     S_3+6 0.841486 0.389892 0.124990 0.157088

loop_
_geom_bond_atom_site_label_1
_geom_bond_atom_site_label_2
_ccdc_geom_bond_type
C2    C35   A    
C49   O17   S    
C54   O27   D    
C34   C56   A    
C23   C45   A    
Cu1   O23   S    
H3    O26   S    
C32   N2    A    
O7    S1    S    
O37   S4    D    
C57   O32   S    
C54   C65   S    
C29   C49   S    
Cu2   N4    S    
C28   N3    A    
C23   C66   A    
C37   S3    S    
C28   C29   A    
C24   C26   A    
C5    C11   A    
C53   O26   S    
H10   O46   S    
O46   S6    S    
C53   C64   S    
C43   C52   S    
O9    S2    D    
C4    C41   A    
O35   S3    D    
C56   C65   A    
C12   O23   A    
C50   O19   S    
H17   O59   S    
H22   O17   S    
C14   S5    S    
O36   S3    S    
C21   C25   A    
C44   N1    S    
C40   S1    S    
C51   O21   S    
C58   O47   D    
H6    O32   S    
C55   O29   D    
C3    C38   A    
H2    O24   S    
C22   C25   A    
C41   S2    S    
C55   O30   S    
O42   S5    S    
C60   O51   D    
C20   C60   S    
C11   C58   S    
C61   O54   S    
C21   C61   S    
C42   C51   S    
H15   O54   S    
C2    C34   A    
C18   H1    S    
C40   C42   A    
C30   C50   S    
H4    O28   S    
C27   C30   A    
Cu1   N3    S    
C41   C43   A    
C28   C48   S    
C27   N4    A    
C42   C44   A    
O8    S2    D    
C35   O3    S    
H18   O7    S    
H8    O39   S    
C33   C66   A    
C39   C55   S    
C62   O55   D    
Cu1   Cu2   S    
C15   S6    S    
H9    O42   S    
C1    O34   A    
C1    O1    A    
C12   O12   A    
C47   O13   S    
C15   C66   A    
C8    C18   A    
O38   S4    D    
Cu1   O60   S    
C50   O18   D    
H24   O21   S    
C5    C9    A    
C30   N3    A    
Cu2   O56   S    
C22   C62   S    
C38   C57   S    
H16   O57   S    
H11   O48   S    
C46   N2    S    
C4    C39   A    
O33   S3    D    
Cu2   O34   S    
C49   O16   D    
H20   O13   S    
C59   O49   D    
C20   C22   A    
C3    C40   A    
C24   C63   S    
C47   O11   D    
C13   C15   A    
C9    C34   A    
O39   S4    S    
C36   C44   A    
C17   O56   A    
C4    C17   S    
Cu2   O61   S    
Cu1   O45   S    
C52   O24   S    
H7    O36   S    
O41   S5    D    
C35   N2    A    
C27   C47   S    
C7    C9    A    
C54   O28   S    
O43   S6    D    
C16   O61   A    
C63   O58   D    
C33   N1    A    
O6    S1    D    
C57   O31   D    
C29   N4    A    
H14   O52   S    
C6    C7    A    
C13   C59   S    
C10   C23   A    
O44   S6    D    
Cu2   O12   S    
H21   O15   S    
C45   C64   A    
C7    C19   A    
C51   O20   D    
C62   O57   S    
C12   C25   S    
C33   O4    S    
C36   C38   A    
C16   O45   A    
C37   C46   A    
C63   O59   S    
C37   C39   A    
C31   N1    A    
C6    C13   A    
C18   C64   A    
C1    C26   S    
H19   O10   S    
C20   C26   A    
C36   S4    S    
O10   S2    S    
C11   C14   A    
C32   O2    S    
C19   C65   A    
C19   H12   S    
C2    C14   A    
C43   C46   A    
C31   O62   S    
C6    C10   A    
Cu1   O1    S    
C59   O50   S    
C58   O48   S    
C48   O15   S    
H23   O19   S    
O5    S1    D    
C8    C10   A    
H13   O50   S    
C31   C45   A    
C21   C24   A    
C5    C8    A    
C53   O25   D    
C60   O52   S    
C48   O14   D    
C17   O60   A    
C61   O53   D    
C32   C56   A    
C3    C16   S    
H5    O30   S    
O40   S5    D    
C52   O22   D    
