data_mof_unit_38142.cif
_audit_creation_date              2013-03-05T16:20:27-0500
_audit_creation_method            fapswitch 2.2
_symmetry_space_group_name_H-M    P1
_symmetry_Int_Tables_number       1
_space_group_crystal_system       triclinic
_cell_length_a                    15.9659
_cell_length_b                    15.031068
_cell_length_c                    10.746139
_cell_angle_alpha                 90.260366
_cell_angle_beta                  88.948661
_cell_angle_gamma                 90.811486
_cell_volume                      2578.19067445

loop_
_atom_site_label
_atom_site_type_symbol
_atom_site_description
_atom_site_fract_x
_atom_site_fract_y
_atom_site_fract_z
_atom_type_partial_charge
O1    O     O_R   0.377210 0.574260 0.500130 -0.622829
O2    O     O_R   0.377210 0.425740 0.500130 -0.613999
C1    C     C_R   0.337249 0.498965 0.501980 0.933190
O3    O     O_R   0.500050 0.574220 0.314080 -0.581009
O4    O     O_R   0.500050 0.425780 0.314080 -0.579021
C2    C     C_R   0.501687 0.500180 0.256867 0.996999
Zn1   Zn    Zn3+2 0.500090 0.599130 0.500180 1.050530
Zn2   Zn    Zn3+2 0.500090 0.400870 0.500180 1.057833
O5    O     O_R   0.622930 0.574200 0.500140 -0.588001
O6    O     O_R   0.622930 0.425800 0.500140 -0.591426
O7    O     O_R   0.500090 0.574240 0.686180 -0.631047
O8    O     O_R   0.500090 0.425760 0.686180 -0.618418
C3    C     C_R   0.661625 0.500745 0.499372 0.909239
C4    C     C_R   0.503085 0.500165 0.743158 1.020815
C5    C     C_3   0.448247 0.557561 0.040882 0.371730
C6    C     C_3   0.488268 0.419488 0.040709 0.372757
C7    C     C_3   0.430571 0.475315 0.961586 0.194022
C8    C     C_3   0.505946 0.500293 0.877530 -0.253969
C9    C     C_3   0.524351 0.584421 0.957176 -0.312322
C10   C     C_3   0.565186 0.443028 0.956773 -0.340526
C11   C     C_3   0.580163 0.526364 0.038275 0.321711
C12   C     C_3   0.505031 0.501502 0.122196 -0.244284
H1    H     H_    0.540851 0.651882 0.921932 0.186740
H2    H     H_    0.613240 0.396477 0.920434 0.203409
C13   C     C_3   0.050779 0.588410 0.566913 0.691750
C14   C     C_3   0.039234 0.411049 0.601117 0.656392
C15   C     C_3   0.937711 0.411898 0.589635 0.308551
C16   C     C_3   0.949600 0.588054 0.587845 0.259244
C17   C     C_1   0.749110 0.502996 0.503439 -0.014814
C18   C     C_3   0.078312 0.490724 0.516093 -0.249211
C19   C     C_3   0.914149 0.501913 0.515621 -0.443017
C20   C     C_3   0.948652 0.498949 0.373930 0.687176
C21   C     C_3   0.047078 0.476969 0.375433 0.729095
C22   C     C_1   0.823315 0.504479 0.509171 0.266819
C23   C     C_1   0.171556 0.490892 0.513787 0.081547
C24   C     C_1   0.247272 0.495008 0.508663 -0.247158
C25   C     C_3   0.428722 0.051737 0.408100 0.599587
C26   C     C_3   0.418429 0.946506 0.437528 0.575310
C27   C     C_3   0.503359 0.053424 0.618918 0.183119
C28   C     C_3   0.522386 0.951445 0.618671 0.265747
H3    H     H_    0.553589 0.085927 0.674844 0.072229
H4    H     H_    0.589737 0.943886 0.637634 0.134702
N1    N     N_1   0.498630 0.731150 0.497460 -0.095601
N2    N     N_1   0.498630 0.268850 0.497460 -0.098581
C29   C     C_3   0.507232 0.089857 0.482027 -0.303918
C30   C     C_3   0.507367 0.909919 0.485630 -0.336371
C31   C     C_3   0.585869 0.946682 0.401416 0.389260
C32   C     C_3   0.592451 0.055653 0.417998 0.445843
C33   C     C_1   0.503870 0.808994 0.494217 0.318415
C34   C     C_1   0.503279 0.191183 0.489541 0.388008
N3    N     N_R   0.348012 0.447008 0.922504 0.175529
O9    O     O_R   0.290455 0.430582 0.006401 -0.471285
O10   O     O_R   0.331898 0.436417 0.805278 -0.501579
O11   O     O_3   0.940075 0.584858 0.317386 -0.623424
C35   C     C_3   0.860034 0.606799 0.271234 0.142520
H5    H     H_    0.823949 0.644382 0.341309 0.222290
H6    H     H_    0.820188 0.549536 0.244752 0.195357
C36   C     C_3   0.871559 0.667810 0.159206 -0.676710
H7    H     H_    0.898086 0.630721 0.078518 0.250384
H8    H     H_    0.810231 0.695143 0.132600 0.258609
H9    H     H_    0.914304 0.724169 0.182471 0.261672
O12   O     O_3   0.899573 0.430999 0.312540 -0.603800
C37   C     C_3   0.912492 0.416015 0.183526 0.151690
H10   H     H_    0.964625 0.369529 0.167067 0.198067
H11   H     H_    0.922413 0.477608 0.129696 0.140020
C38   C     C_3   0.834698 0.369687 0.132970 -0.706441
H12   H     H_    0.778707 0.411554 0.148274 0.260912
H13   H     H_    0.842871 0.357164 0.031653 0.262898
H14   H     H_    0.824171 0.305042 0.180868 0.260766
O13   O     O_3   0.359076 0.940661 0.539691 -0.517939
C39   C     C_3   0.311439 0.860721 0.549436 0.213841
H15   H     H_    0.347823 0.800608 0.527018 0.138649
H16   H     H_    0.257420 0.863805 0.486590 0.143984
C40   C     C_3   0.276923 0.851342 0.681659 -0.830014
H17   H     H_    0.229067 0.902795 0.700933 0.250547
H18   H     H_    0.248467 0.784303 0.694099 0.178733
H19   H     H_    0.327631 0.858467 0.749773 0.309096
O14   O     O_3   0.356971 0.096620 0.458479 -0.584256
C41   C     C_3   0.290152 0.111933 0.376624 0.172569
H20   H     H_    0.294091 0.077649 0.285517 0.196600
H21   H     H_    0.287916 0.184428 0.357918 0.139019
C42   C     C_3   0.208582 0.083666 0.439907 -0.783787
H22   H     H_    0.198546 0.124183 0.525262 0.247727
H23   H     H_    0.156294 0.092803 0.374962 0.200595
H24   H     H_    0.210271 0.012509 0.465811 0.283977
O15   O     O_3   0.422851 0.067310 0.673956 -0.465224
C43   C     C_3   0.418777 0.145025 0.747976 0.142947
H25   H     H_    0.471030 0.193592 0.731779 0.086692
H26   H     H_    0.420100 0.124442 0.846594 0.138133
C44   C     C_3   0.336700 0.191954 0.723345 -0.756793
H27   H     H_    0.282589 0.147504 0.746763 0.248174
H28   H     H_    0.332338 0.253586 0.779395 0.215799
H29   H     H_    0.333706 0.211824 0.624388 0.275782
O16   O     O_3   0.476296 0.906652 0.713990 -0.543721
C45   C     C_3   0.515962 0.920056 0.829705 0.113067
H30   H     H_    0.526786 0.991888 0.850252 0.146435
H31   H     H_    0.576886 0.884900 0.830868 0.155478
C46   C     C_3   0.461024 0.882591 0.932636 -0.781227
H32   H     H_    0.455940 0.809754 0.919621 0.232429
H33   H     H_    0.489676 0.896873 0.023559 0.271700
H34   H     H_    0.398181 0.913240 0.931348 0.276052
O17   O     O_3   0.599805 0.098021 0.299189 -0.537631
C47   C     C_3   0.678453 0.089926 0.237100 0.279180
H35   H     H_    0.686404 0.022208 0.199032 0.187482
H36   H     H_    0.732418 0.106618 0.296827 0.191804
C48   C     C_3   0.681292 0.153831 0.127696 -0.806088
H37   H     H_    0.742725 0.149448 0.078040 0.210121
H38   H     H_    0.630728 0.136562 0.061789 0.258856
H39   H     H_    0.672641 0.223164 0.161309 0.276174
O18   O     O_3   0.570128 0.927206 0.273011 -0.588784
C49   C     C_3   0.592678 0.840408 0.230333 0.233623
H40   H     H_    0.538036 0.809023 0.185271 0.202211
H41   H     H_    0.611414 0.793340 0.303580 0.172203
C50   C     C_3   0.661055 0.845869 0.129556 -0.846619
H42   H     H_    0.722224 0.864690 0.169602 0.282756
H43   H     H_    0.667723 0.779883 0.083728 0.248383
H44   H     H_    0.644466 0.895333 0.058001 0.244967
N4    N     N_R   0.662511 0.089099 0.496905 0.157338
O19   O     O_R   0.681020 0.173780 0.496156 -0.340802
O20   O     O_R   0.699426 0.040304 0.578516 -0.377059
N5    N     N_R   0.667239 0.906789 0.436428 0.207572
O21   O     O_R   0.736272 0.932070 0.379973 -0.370127
O22   O     O_R   0.671692 0.842637 0.516996 -0.370762
N6    N     N_R   0.441368 0.075564 0.274599 0.186166
O23   O     O_R   0.445104 0.017493 0.184807 -0.364853
O24   O     O_R   0.450056 0.159069 0.245635 -0.395975
N7    N     N_R   0.383949 0.897708 0.328244 0.182481
O25   O     O_R   0.313398 0.922533 0.281794 -0.441233
O26   O     O_R   0.410405 0.819627 0.295637 -0.472903
O27   O     O_3   0.388736 0.617084 0.090725 -0.571318
C51   C     C_3   0.346684 0.659076 0.992918 0.096706
H45   H     H_    0.296184 0.614837 0.958132 0.184276
H46   H     H_    0.388510 0.675937 0.912300 0.132587
C52   C     C_3   0.308490 0.745042 0.041010 -0.768607
H47   H     H_    0.357667 0.788734 0.079952 0.318252
H48   H     H_    0.277218 0.780226 0.964490 0.200282
H49   H     H_    0.262683 0.731619 0.116644 0.265157
O28   O     O_3   0.471052 0.336621 0.097034 -0.558353
C53   C     C_3   0.446386 0.272129 0.008950 0.213086
H50   H     H_    0.491941 0.217080 0.011891 0.167214
H51   H     H_    0.446542 0.295986 0.910941 0.101914
C54   C     C_3   0.359481 0.235619 0.045578 -0.710903
H52   H     H_    0.344267 0.251163 0.144306 0.282231
H53   H     H_    0.310909 0.265752 0.988690 0.230642
H54   H     H_    0.356015 0.162399 0.032642 0.218006
N8    N     N_R   0.661707 0.555840 0.081570 0.188910
O29   O     O_R   0.723860 0.564247 0.002438 -0.351628
O30   O     O_R   0.669567 0.585576 0.194565 -0.489972
N9    N     N_R   0.922743 0.582257 0.721968 0.204694
O31   O     O_R   0.970988 0.553955 0.809061 -0.338340
O32   O     O_R   0.847012 0.604073 0.755884 -0.272625
N10   N     N_R   0.895525 0.408620 0.716200 0.275959
O33   O     O_R   0.927851 0.365695 0.808045 -0.380274
O34   O     O_R   0.816046 0.425427 0.728935 -0.322680
O35   O     O_3   0.093420 0.609488 0.680823 -0.627354
C55   C     C_3   0.075994 0.695552 0.732630 0.221365
H55   H     H_    0.009212 0.713526 0.733718 0.196917
H56   H     H_    0.109519 0.749556 0.684298 0.108842
C56   C     C_3   0.105812 0.700154 0.865643 -0.860863
H57   H     H_    0.171391 0.677228 0.869154 0.247306
H58   H     H_    0.103254 0.769753 0.900573 0.218135
H59   H     H_    0.064899 0.658328 0.926485 0.288079
O36   O     O_3   0.060861 0.428250 0.727615 -0.570701
C57   C     C_3   0.143666 0.408662 0.761803 0.249672
H60   H     H_    0.176838 0.472303 0.782034 0.219887
H61   H     H_    0.181346 0.373420 0.689709 0.141810
C58   C     C_3   0.140648 0.352826 0.879852 -0.781211
H62   H     H_    0.199830 0.316438 0.888526 0.236359
H63   H     H_    0.130955 0.395978 0.961843 0.260036
H64   H     H_    0.088775 0.303282 0.879885 0.232811
O37   O     O_3   0.071299 0.327022 0.557743 -0.619641
C59   C     C_3   0.058576 0.252734 0.638373 0.123196
H65   H     H_    0.012812 0.263756 0.713999 0.203927
H66   H     H_    0.119528 0.235891 0.679576 0.127424
C60   C     C_3   0.029236 0.170100 0.567463 -0.711418
H67   H     H_    0.051719 0.172400 0.469504 0.277174
H68   H     H_    0.053046 0.109224 0.612255 0.192585
H69   H     H_    0.959824 0.164795 0.569286 0.292563
O38   O     O_3   0.073789 0.650065 0.469044 -0.537929
C61   C     C_3   0.153402 0.693886 0.475411 0.173052
H70   H     H_    0.196689 0.666334 0.544505 0.146488
H71   H     H_    0.142244 0.765026 0.496272 0.142364
C62   C     C_3   0.198033 0.694429 0.349826 -0.733836
H72   H     H_    0.154556 0.718061 0.278217 0.274118
H73   H     H_    0.252979 0.740204 0.351868 0.224205
H74   H     H_    0.222073 0.627624 0.326832 0.276686
N11   N     N_R   0.903586 0.332685 0.521790 0.229316
O39   O     O_R   0.941720 0.295853 0.427497 -0.305245
O40   O     O_R   0.830337 0.299810 0.553201 -0.295063
N12   N     N_R   0.911991 0.672177 0.540252 0.233494
O41   O     O_R   0.956792 0.743845 0.520065 -0.345904
O42   O     O_R   0.831491 0.683907 0.550862 -0.329203
O43   O     O_3   0.093823 0.537668 0.297223 -0.597128
C63   C     C_3   0.081868 0.528525 0.167399 0.132861
H75   H     H_    0.029202 0.569577 0.137416 0.195887
H76   H     H_    0.072647 0.459206 0.136767 0.136103
C64   C     C_3   0.158600 0.564018 0.098698 -0.842892
H77   H     H_    0.158078 0.542188 0.000175 0.252677
H78   H     H_    0.157376 0.637286 0.099993 0.237945
H79   H     H_    0.216608 0.541068 0.142778 0.304691
O44   O     O_3   0.058933 0.386955 0.335126 -0.596587
C65   C     C_3   0.142589 0.360298 0.308850 0.173180
H80   H     H_    0.173641 0.337772 0.394185 0.186170
H81   H     H_    0.182943 0.412676 0.265984 0.169177
C66   C     C_3   0.139374 0.280989 0.220674 -0.835559
H82   H     H_    0.103899 0.225208 0.264912 0.269618
H83   H     H_    0.107676 0.299019 0.133747 0.247709
H84   H     H_    0.203522 0.258737 0.197388 0.204226

loop_
_geom_bond_atom_site_label_1
_geom_bond_atom_site_label_2
_geom_bond_distance
_ccdc_geom_bond_type
C63   H76   1.100001 S    
C35   H5    1.098875 S    
C37   H11   1.101895 S    
N12   O41   1.301440 A    
C13   O35   1.443329 S    
C53   H51   1.114088 S    
O44   C65   1.422854 S    
C4    C8    1.445525 S    
C38   H13   1.109731 S    
C45   H30   1.112804 S    
C43   H25   1.112562 S    
C51   C52   1.520955 S    
C7    N3    1.448334 S    
C52   H49   1.100767 S    
C26   O13   1.439221 S    
C50   H42   1.107019 S    
C45   C46   1.505342 S    
C13   O38   1.443942 S    
C27   H3    1.116663 S    
C19   C20   1.610330 S    
C66   H82   1.109083 S    
C61   H70   1.109132 S    
C13   C16   1.626849 S    
C28   C30   1.578386 S    
C30   C33   1.520406 S    
C14   C15   1.628089 S    
C15   N10   1.507306 S    
C65   H81   1.106874 S    
C18   C23   1.488452 S    
C1    C24   1.437453 S    
C3    C17   1.398184 S    
C55   H55   1.103464 S    
C9    C11   1.540291 S    
N9    O32   1.302421 A    
O4    C2    1.278329 A    
O7    C4    1.275023 A    
C66   H84   1.105884 S    
C63   C64   1.510762 S    
C48   H37   1.110589 S    
C64   H77   1.107144 S    
C36   H8    1.109964 S    
C2    C12   1.447413 S    
C14   O36   1.430192 S    
C60   H68   1.110876 S    
C5    C7    1.524285 S    
C8    C9    1.551403 S    
C30   C31   1.624361 S    
C64   H78   1.101766 S    
O5    C3    1.272737 A    
N4    O19   1.302648 A    
Zn1   O7    2.035163 S    
O18   C49   1.429670 S    
O36   C57   1.413966 S    
C55   H56   1.093846 S    
C5    C12   1.533928 S    
C49   H41   1.108724 S    
C49   H40   1.104492 S    
C61   H71   1.107763 S    
C6    C7    1.527369 S    
C65   C66   1.520326 S    
C6    C12   1.532182 S    
C56   H58   1.110884 S    
O13   C39   1.416188 S    
Zn1   N1    1.985221 S    
C58   H64   1.105907 S    
O43   C63   1.417369 S    
C59   C60   1.526713 S    
C6    C10   1.548182 S    
C27   C29   1.571851 S    
C36   H9    1.110784 S    
C28   H4    1.105655 S    
C63   H75   1.103662 S    
C37   C38   1.523017 S    
C21   O43   1.435423 S    
C16   N9    1.498742 S    
C11   C12   1.530528 S    
C57   H61   1.109478 S    
C54   H54   1.109425 S    
O17   C47   1.417605 S    
O3    Zn1   2.032943 S    
C20   O11   1.438982 S    
C59   H66   1.109484 S    
C26   N7    1.491541 S    
C60   H69   1.109790 S    
N8    O30   1.299630 A    
C55   C56   1.515812 S    
O2    Zn2   2.002391 S    
C19   C22   1.454233 S    
C26   C30   1.624076 S    
C65   H80   1.107074 S    
C15   C19   1.624795 S    
N3    O9    1.297473 A    
C31   C32   1.648882 S    
C10   H2    1.110160 S    
C38   H12   1.109867 S    
C58   H63   1.101642 S    
C40   H17   1.110999 S    
C62   H74   1.105380 S    
C27   C28   1.566868 S    
C41   H21   1.110157 S    
O15   C43   1.411841 S    
N1    C33   1.172514 T    
C32   N4    1.495981 S    
C36   H7    1.109415 S    
C17   C22   1.187364 T    
C40   H19   1.105113 S    
O38   C61   1.425924 S    
C50   H43   1.110965 S    
N3    O10   1.298984 A    
C23   C24   1.209831 T    
C47   C48   1.521190 S    
C64   H79   1.108045 S    
C5    C9    1.548486 S    
C62   H72   1.108717 S    
N7    O26   1.297487 A    
C25   C26   1.619927 S    
O4    Zn2   2.036291 S    
C25   N6    1.489681 S    
C44   H28   1.105020 S    
C56   H57   1.108261 S    
Zn2   O8    2.031821 S    
C32   O17   1.431492 S    
O12   C37   1.415398 S    
C45   H31   1.113829 S    
C7    C8    1.534769 S    
C56   H59   1.107173 S    
C47   H36   1.109041 S    
C15   N11   1.494777 S    
N10   O33   1.300277 A    
O37   C59   1.426470 S    
N5    O21   1.301138 A    
C40   H18   1.107109 S    
O3    C2    1.269351 A    
O8    C4    1.273314 A    
C14   O37   1.441787 S    
C14   C18   1.620541 S    
C46   H33   1.105325 S    
C35   H6    1.102479 S    
C54   H53   1.100061 S    
C35   C36   1.523582 S    
C25   C29   1.594585 S    
N7    O25   1.300553 A    
C42   H24   1.107239 S    
C58   H62   1.104089 S    
C59   H65   1.096449 S    
C9    H1    1.110542 S    
C44   H29   1.107916 S    
N6    O24   1.299462 A    
N8    O29   1.300099 A    
N10   O34   1.301993 A    
C29   C32   1.603510 S    
N2    C34   1.173426 T    
C13   C18   1.627779 S    
Zn1   O5    2.001926 S    
O11   C35   1.422855 S    
C57   H60   1.109425 S    
N12   O42   1.302625 A    
C18   C21   1.611866 S    
O1    Zn1   1.991989 S    
C16   C19   1.607932 S    
C6    O28   1.408689 S    
Zn2   N2    1.984296 S    
C28   O16   1.417237 S    
C37   H10   1.105561 S    
C51   H46   1.112059 S    
O6    C3    1.277083 A    
C16   N12   1.503206 S    
C39   C40   1.520969 S    
C52   H48   1.109798 S    
C53   H50   1.110308 S    
C61   C62   1.514526 S    
C52   H47   1.103558 S    
C31   O18   1.435211 S    
C25   O14   1.434008 S    
C42   H23   1.108315 S    
C46   H34   1.110313 S    
C11   N8    1.453203 S    
C43   H26   1.106013 S    
O27   C51   1.413443 S    
C41   C42   1.514441 S    
C39   H15   1.104379 S    
C60   H67   1.106485 S    
N9    O31   1.299849 A    
C20   C21   1.610769 S    
O14   C41   1.417050 S    
C44   H27   1.110531 S    
C5    O27   1.411101 S    
C48   H38   1.110899 S    
C29   C34   1.526944 S    
C21   O44   1.432826 S    
C53   C54   1.530240 S    
C46   H32   1.105112 S    
O2    C1    1.279889 A    
C49   C50   1.525201 S    
C8    C10   1.555610 S    
C57   C58   1.523901 S    
O16   C45   1.418072 S    
N4    O20   1.300572 A    
N5    O22   1.302408 A    
C50   H44   1.110156 S    
C31   N5    1.493630 S    
O28   C53   1.409015 S    
C20   O12   1.443108 S    
C41   H20   1.105498 S    
C38   H14   1.110899 S    
N11   O39   1.298370 A    
C10   C11   1.543567 S    
C62   H73   1.107671 S    
Zn2   O6    1.991501 S    
C42   H22   1.109139 S    
C43   C44   1.524958 S    
C39   H16   1.106741 S    
C47   H35   1.103403 S    
C54   H52   1.108637 S    
C27   O15   1.422736 S    
O1    C1    1.291363 A    
O35   C55   1.434852 S    
C66   H83   1.107101 S    
N11   O40   1.302483 A    
C51   H45   1.107074 S    
N6    O23   1.299320 A    
C48   H39   1.111050 S    
