data_mof_unit_42671.cif
_audit_creation_date              2012-12-10T20:57:15-0500
_audit_creation_method            fapswitch 2.2
_symmetry_space_group_name_H-M    P1
_symmetry_Int_Tables_number       1
_space_group_crystal_system       triclinic
_cell_length_a                    15.851254
_cell_length_b                    15.07576
_cell_length_c                    14.934074
_cell_angle_alpha                 89.754943
_cell_angle_beta                  90.433133
_cell_angle_gamma                 89.209764
_cell_volume                      3568.31554585

loop_
_atom_site_label
_atom_site_type_symbol
_atom_type_description
_atom_site_fract_x
_atom_site_fract_y
_atom_site_fract_z
_atom_type_partial_charge
C1    C     C_R   0.338936 0.500493 0.499086 0.938561
C2    C     C_R   0.087159 0.497663 0.489669 -0.201617
C3    C     C_1   0.824370 0.497513 0.503560 0.119687
C4    C     C_1   0.176059 0.499939 0.491285 0.115956
C5    C     C_1   0.250741 0.501144 0.494720 -0.190068
C6    C     C_1   0.749521 0.498067 0.503478 -0.182178
C7    C     C_R   0.460675 0.953988 0.429348 0.373442
C8    C     C_R   0.533398 0.046415 0.573084 0.374949
C9    C     C_R   0.536874 0.952177 0.571099 0.369245
C10   C     C_R   0.463113 0.048214 0.427987 0.378338
C11   C     C_R   0.499222 0.905157 0.499975 -0.307377
C12   C     C_R   0.661133 0.499410 0.501373 0.913063
C13   C     C_R   0.498608 0.095112 0.500396 -0.299410
C14   C     C_1   0.499671 0.807117 0.499908 0.259807
C15   C     C_1   0.499322 0.192973 0.500189 0.234005
C16   C     C_R   0.499896 0.500225 0.326677 1.016444
C17   C     C_R   0.500321 0.499737 0.673347 1.013308
C18   C     C_R   0.577341 0.502889 0.814786 0.399325
C19   C     C_R   0.423103 0.491991 0.185880 0.366003
C20   C     C_R   0.500295 0.499502 0.768698 -0.325442
C21   C     C_R   0.499684 0.501470 0.231382 -0.309473
C22   C     C_R   0.423247 0.497812 0.812735 0.381597
C23   C     C_R   0.343122 0.504534 0.044538 0.549853
C24   C     C_R   0.575329 0.516348 0.187106 0.378954
C25   C     C_R   0.422255 0.506867 0.905536 -0.020451
C26   C     C_R   0.574630 0.523606 0.094136 -0.007564
C27   C     C_R   0.499042 0.514566 0.953136 -0.090853
C28   C     C_R   0.497869 0.515075 0.046634 -0.085607
C29   C     C_R   0.577127 0.518237 0.907291 -0.071664
C30   C     C_R   0.420442 0.504279 0.092615 -0.084978
C31   C     C_R   0.345470 0.508166 0.950890 -0.307903
C32   C     C_R   0.649743 0.539256 0.048464 -0.318197
C33   C     C_3   0.663900 0.396253 0.753399 0.107730
C34   C     C_R   0.652734 0.535392 0.954646 0.553421
C35   C     C_3   0.714882 0.351823 0.829120 -0.382430
C36   C     C_3   0.721975 0.251644 0.815905 -0.950973
C37   C     C_3   0.340244 0.378281 0.229816 0.134772
C38   C     C_3   0.257171 0.354833 0.274790 -0.297485
C39   C     C_3   0.232240 0.259678 0.253985 -1.000667
C40   C     C_3   0.332344 0.392060 0.766214 0.031233
C41   C     C_3   0.242656 0.376697 0.732475 -0.283425
C42   C     C_3   0.220183 0.278859 0.739818 -0.972259
C43   C     C_3   0.686976 0.438657 0.246627 0.044271
C44   C     C_3   0.781078 0.448533 0.265869 -0.338924
C45   C     C_R   0.953209 0.571438 0.462663 0.317420
C46   C     C_3   0.822269 0.360616 0.294035 -0.953705
C47   C     C_3   0.204469 0.455776 0.052318 -0.331258
C48   C     C_3   0.800800 0.531656 0.950845 -0.342030
C49   C     C_3   0.090176 0.708105 0.502414 0.122423
C50   C     C_3   0.147207 0.783683 0.473606 -0.334575
C51   C     C_3   0.157689 0.851567 0.548254 -0.986662
C52   C     C_3   0.904509 0.367623 0.661902 0.105836
C53   C     C_3   0.980788 0.338237 0.719040 -0.310944
C54   C     C_3   0.960603 0.337411 0.818667 -1.021022
C55   C     C_3   0.909338 0.650869 0.339235 0.111200
C56   C     C_R   0.046972 0.421835 0.521517 0.302505
C57   C     C_3   0.829130 0.697615 0.304942 -0.335022
C58   C     C_3   0.827845 0.704311 0.202936 -0.934430
C59   C     C_3   0.093722 0.282743 0.486756 0.115172
C60   C     C_3   0.139522 0.200801 0.524729 -0.326891
C61   C     C_3   0.139342 0.123554 0.459102 -0.966270
C62   C     C_3   0.484232 0.106892 0.290195 -0.271825
C63   C     C_3   0.659686 0.895637 0.626455 -0.215453
C64   C     C_3   0.505104 0.103381 0.709719 -0.259073
C65   C     C_3   0.338129 0.898183 0.377178 -0.241970
C66   C     C_R   0.041466 0.573137 0.461748 0.306198
C67   C     C_R   0.959600 0.424302 0.532661 0.335155
C68   C     C_R   0.913386 0.498029 0.500582 -0.203954
H1    H     H_    0.287154 0.511125 0.912921 0.191727
H2    H     H_    0.392620 0.342405 0.265204 0.136357
H3    H     H_    0.338219 0.355123 0.159042 0.125995
H4    H     H_    0.263603 0.362992 0.348426 0.217592
H5    H     H_    0.206243 0.400519 0.250774 0.242877
H6    H     H_    0.228840 0.249165 0.180470 0.262804
H7    H     H_    0.168940 0.246704 0.281834 0.257113
H8    H     H_    0.278811 0.212226 0.283915 0.299907
H9    H     H_    0.337819 0.363578 0.835172 0.131228
H10   H     H_    0.377205 0.355910 0.722018 0.164476
H11   H     H_    0.197456 0.416512 0.772911 0.216191
H12   H     H_    0.706065 0.553862 0.086503 0.190752
H13   H     H_    0.237100 0.398286 0.661470 0.248532
H14   H     H_    0.264269 0.237700 0.699477 0.256178
H15   H     H_    0.155147 0.269073 0.714634 0.282492
H16   H     H_    0.223246 0.256609 0.810788 0.255341
H17   H     H_    0.680190 0.396070 0.186018 0.124256
H18   H     H_    0.656962 0.405000 0.304338 0.168309
H19   H     H_    0.812788 0.473941 0.205003 0.204046
H20   H     H_    0.789695 0.497265 0.320269 0.238712
H21   H     H_    0.792886 0.335309 0.356259 0.279289
H22   H     H_    0.890507 0.370672 0.307292 0.257825
H23   H     H_    0.699438 0.388788 0.690005 0.155902
H24   H     H_    0.815356 0.310760 0.240026 0.259914
H25   H     H_    0.230214 0.390437 0.029972 0.134989
H26   H     H_    0.171709 0.491053 0.996366 0.166168
H27   H     H_    0.156082 0.442322 0.103636 0.192739
H28   H     H_    0.797132 0.465058 0.983057 0.137696
H29   H     H_    0.818785 0.583110 0.000174 0.170072
H30   H     H_    0.851841 0.528226 0.900588 0.194094
H31   H     H_    0.118596 0.675896 0.563186 0.133297
H32   H     H_    0.026906 0.736094 0.519317 0.170006
H33   H     H_    0.210158 0.755918 0.455794 0.231808
H34   H     H_    0.603736 0.359937 0.743735 0.135778
H35   H     H_    0.119731 0.817234 0.413482 0.225927
H36   H     H_    0.095586 0.881449 0.565874 0.272033
H37   H     H_    0.199837 0.905181 0.525539 0.255532
H38   H     H_    0.186265 0.819631 0.608627 0.274921
H39   H     H_    0.849781 0.326969 0.680957 0.167889
H40   H     H_    0.886662 0.437881 0.676825 0.127820
H41   H     H_    0.001195 0.270480 0.698750 0.242072
H42   H     H_    0.033532 0.384663 0.708197 0.238315
H43   H     H_    0.938955 0.404185 0.840421 0.259711
H44   H     H_    0.018264 0.318794 0.857459 0.272437
H45   H     H_    0.778876 0.380540 0.831416 0.240905
H46   H     H_    0.911128 0.288070 0.833032 0.279330
H47   H     H_    0.914795 0.584959 0.305725 0.117549
H48   H     H_    0.964658 0.691294 0.320490 0.189919
H49   H     H_    0.772986 0.660294 0.327198 0.252666
H50   H     H_    0.825194 0.765428 0.333684 0.224684
H51   H     H_    0.882380 0.743222 0.179215 0.259575
H52   H     H_    0.768668 0.738077 0.180402 0.280795
H53   H     H_    0.830443 0.637175 0.172736 0.253201
H54   H     H_    0.127141 0.305661 0.425824 0.134171
H55   H     H_    0.028075 0.264007 0.468336 0.171938
H56   H     H_    0.683768 0.364047 0.894300 0.216589
H57   H     H_    0.205865 0.217799 0.541114 0.233826
H58   H     H_    0.107863 0.179553 0.587245 0.223306
H59   H     H_    0.073728 0.106557 0.439827 0.266587
H60   H     H_    0.169691 0.064623 0.491175 0.264200
H61   H     H_    0.175590 0.140350 0.398358 0.277175
H62   H     H_    0.506436 0.042349 0.262428 0.193481
H63   H     H_    0.538808 0.146111 0.314375 0.139520
H64   H     H_    0.453603 0.144964 0.234830 0.171463
H65   H     H_    0.691534 0.960900 0.623146 0.178282
H66   H     H_    0.671595 0.857248 0.564170 0.140536
H67   H     H_    0.658657 0.221425 0.820084 0.271512
H68   H     H_    0.688379 0.857686 0.683010 0.193125
H69   H     H_    0.481356 0.038865 0.734996 0.188951
H70   H     H_    0.451892 0.144921 0.683102 0.133993
H71   H     H_    0.532669 0.139008 0.767506 0.169814
H72   H     H_    0.304317 0.963046 0.383578 0.180341
H73   H     H_    0.329844 0.857613 0.438800 0.143845
H74   H     H_    0.308672 0.861928 0.320815 0.192661
H75   H     H_    0.762755 0.222185 0.869314 0.262229
H76   H     H_    0.749801 0.235731 0.749849 0.273125
N1    N     N_1   0.500000 0.270550 0.500000 -0.114524
N2    N     N_1   0.500000 0.729450 0.500000 -0.102214
O1    O     O_R   0.378020 0.573650 0.500030 -0.608331
O2    O     O_3   0.351533 0.471119 0.233910 -0.591316
O3    O     O_3   0.349283 0.484036 0.764866 -0.644179
O4    O     O_3   0.650130 0.524030 0.234962 -0.644258
O5    O     O_3   0.267109 0.509944 0.090729 -0.548799
O6    O     O_3   0.725036 0.556226 0.906367 -0.541517
O7    O     O_3   0.083296 0.647170 0.431271 -0.626515
O8    O     O_3   0.919431 0.352126 0.569841 -0.628517
O9    O     O_3   0.905210 0.643665 0.433564 -0.628540
O10   O     O_3   0.094156 0.349891 0.552286 -0.640985
O11   O     O_3   0.424539 0.094430 0.358404 -0.587571
O12   O     O_R   0.621980 0.426350 0.499970 -0.632577
O13   O     O_3   0.572573 0.906057 0.642379 -0.575526
O14   O     O_3   0.568326 0.090768 0.644895 -0.579465
O15   O     O_3   0.424265 0.909785 0.358308 -0.573498
O16   O     O_R   0.621980 0.573650 0.499970 -0.599877
O17   O     O_R   0.378020 0.426350 0.500030 -0.622754
O18   O     O_R   0.499980 0.573670 0.367860 -0.588814
O19   O     O_R   0.500020 0.426330 0.632140 -0.658965
O20   O     O_R   0.500020 0.573670 0.632140 -0.592390
O21   O     O_R   0.499980 0.426330 0.367860 -0.656938
O22   O     O_3   0.652416 0.488523 0.769391 -0.593366
Zn1   Zn    Zn3+2 0.500000 0.598370 0.500000 1.030558
Zn2   Zn    Zn3+2 0.500000 0.401630 0.500000 0.954619

loop_
_geom_bond_atom_site_label_1
_geom_bond_atom_site_label_2
_ccdc_geom_bond_type
C53   H42   S    
C25   C31   A    
C7    C10   A    
C26   C32   A    
C16   C21   S    
C27   C29   A    
C41   C42   S    
C62   H62   S    
C3    C68   S    
C42   H14   S    
C63   O13   S    
C56   O10   S    
C3    C6    T    
C46   H21   S    
C64   H70   S    
C53   C54   S    
C16   O18   A    
C55   O9    S    
C48   H29   S    
C7    O15   S    
C8    C13   A    
C67   O8    S    
C1    C5    S    
C63   H65   S    
C49   O7    S    
C35   H56   S    
C19   C21   A    
C36   H75   S    
C24   C26   A    
C17   O20   A    
C33   H23   S    
C6    C12   S    
C38   C39   S    
C11   C14   S    
C32   H12   S    
C55   H48   S    
C9    O13   S    
C16   O21   A    
C52   O8    S    
C17   C20   S    
C39   H6    S    
C60   H58   S    
O17   Zn2   S    
C65   H72   S    
C35   C36   S    
C52   H39   S    
C8    C9    A    
C22   C25   A    
C54   H43   S    
C45   O9    S    
C39   H7    S    
C44   H19   S    
C61   H61   S    
C59   H54   S    
C22   O3    S    
C50   H35   S    
C37   H2    S    
O18   Zn1   S    
C44   C46   S    
C7    C11   A    
O21   Zn2   S    
C64   H69   S    
C59   H55   S    
C38   H4    S    
C33   H34   S    
C43   H17   S    
C23   C30   A    
C62   H64   S    
C42   H16   S    
C15   N1    T    
C18   O22   S    
O12   Zn2   S    
C51   H36   S    
C29   C34   A    
C67   C68   A    
C60   C61   S    
C32   C34   A    
C2    C4    S    
C43   C44   S    
C63   H66   S    
C55   C57   S    
C37   C38   S    
C49   H31   S    
C65   H73   S    
C31   H1    S    
C51   H37   S    
C41   H13   S    
C64   O14   S    
C45   C68   A    
C58   H52   S    
C50   C51   S    
C47   H25   S    
C62   O11   S    
C54   H44   S    
C61   H59   S    
C18   C29   A    
C39   H8    S    
C9    C11   A    
C10   O11   S    
C52   H40   S    
C43   O4    S    
C24   O4    S    
C50   H33   S    
C40   C41   S    
C47   O5    S    
C37   H3    S    
C48   O6    S    
C40   H10   S    
C1    O1    A    
C33   O22   S    
C21   C24   A    
C8    O14   S    
C36   H67   S    
C45   C66   A    
C52   C53   S    
C57   H49   S    
C53   H41   S    
O19   Zn2   S    
C23   O5    S    
N1    Zn2   S    
C60   H57   S    
C58   H53   S    
C34   O6    S    
C48   H28   S    
C43   H18   S    
C62   H63   S    
C42   H15   S    
C20   C22   A    
C4    C5    T    
C2    C66   A    
C10   C13   A    
C41   H11   S    
C66   O7    S    
C59   O10   S    
C46   H22   S    
C25   C27   A    
C56   C67   A    
C48   H30   S    
C14   N2    T    
C26   C28   A    
C19   O2    S    
C63   H68   S    
C13   C15   S    
C36   H76   S    
C17   O19   A    
C49   H32   S    
C65   H74   S    
C57   C58   S    
O16   Zn1   S    
C55   H47   S    
C51   H38   S    
C54   H46   S    
C28   C30   A    
C58   H51   S    
C33   C35   S    
C47   H26   S    
C40   O3    S    
C35   H45   S    
C61   H60   S    
C18   C20   A    
C37   O2    S    
C12   O16   A    
C59   C60   S    
C46   H24   S    
C1    O17   A    
O20   Zn1   S    
C49   C50   S    
N2    Zn1   S    
C65   O15   S    
C27   C28   A    
C47   H27   S    
C40   H9    S    
C2    C56   A    
C12   O12   A    
C44   H20   S    
C19   C30   A    
C38   H5    S    
O1    Zn1   S    
C23   C31   A    
C57   H50   S    
C64   H71   S    
