data_mof_unit_19793.cif
_audit_creation_date              2012-10-26T20:33:20-0400
_audit_creation_method            fapswitch 2.2
_symmetry_space_group_name_H-M    P1
_symmetry_Int_Tables_number       1
_space_group_crystal_system       triclinic
_cell_length_a                    17.703999
_cell_length_b                    10.843178
_cell_length_c                    9.546956
_cell_angle_alpha                 90.137043
_cell_angle_beta                  89.768716
_cell_angle_gamma                 90.815556
_cell_volume                      1832.5007656

loop_
_atom_site_label
_atom_site_type_symbol
_atom_type_description
_atom_site_fract_x
_atom_site_fract_y
_atom_site_fract_z
_atom_type_partial_charge
C1    C     C_R   0.497628 0.262457 0.499501 0.551580
C2    C     C_R   0.114576 0.505196 0.506284 0.044579
C3    C     C_R   0.515965 0.064820 0.618096 -0.078398
C4    C     C_R   0.355568 0.500783 0.500425 0.526924
C5    C     C_R   0.496805 0.129067 0.497293 0.001587
C6    C     C_R   0.480428 0.061725 0.373452 0.215981
C7    C     C_R   0.481940 0.933095 0.375908 -0.156102
C8    C     C_R   0.497958 0.870128 0.499942 -0.060764
C9    C     C_R   0.515568 0.937934 0.619845 -0.024553
C10   C     C_3   0.486939 0.935527 0.768968 0.165518
C11   C     C_3   0.487348 0.076096 0.765314 -0.226988
C12   C     C_R   0.885430 0.500315 0.505161 0.030963
C13   C     C_R   0.564500 0.528017 0.072497 0.157159
C14   C     C_R   0.438310 0.461435 0.074687 0.003851
C15   C     C_R   0.438266 0.461588 0.926020 -0.017484
C16   C     C_R   0.498858 0.737283 0.500295 0.535007
C17   C     C_R   0.564593 0.525802 0.925534 0.177384
C18   C     C_3   0.612581 0.638467 0.912804 0.150323
C19   C     C_3   0.610573 0.645589 0.072929 0.146922
C20   C     C_R   0.644434 0.498566 0.499860 0.531614
C21   C     C_R   0.844956 0.455292 0.620654 -0.123335
C22   C     C_R   0.766178 0.453070 0.618208 -0.109780
C23   C     C_1   0.966081 0.502578 0.506829 -0.027350
C24   C     C_R   0.727421 0.496587 0.500468 0.010126
C25   C     C_R   0.768737 0.540201 0.384664 -0.140274
C26   C     C_R   0.847388 0.542342 0.387051 -0.120429
C27   C     C_3   0.359374 0.893110 0.694305 0.028727
C28   C     C_3   0.281429 0.880944 0.762453 -0.262399
C29   C     C_3   0.218723 0.885138 0.653368 -0.476754
C30   C     C_3   0.732709 0.708937 0.843736 -0.009806
C31   C     C_3   0.711818 0.790426 0.718397 -0.258814
C32   C     C_3   0.775895 0.880112 0.681254 -0.480469
C33   C     C_3   0.609109 0.857310 0.118399 -0.006030
C34   C     C_1   0.033805 0.504224 0.506861 0.007347
C35   C     C_3   0.664182 0.870277 0.241767 -0.266570
C36   C     C_3   0.692691 0.003042 0.257432 -0.472185
C37   C     C_3   0.119478 0.452040 0.844575 -0.012649
C38   C     C_3   0.068401 0.475189 0.970092 -0.373068
C39   C     C_3   0.384007 0.124646 0.234177 -0.004872
C40   C     C_3   0.364633 0.129023 0.079220 -0.384076
C41   C     C_R   0.154594 0.525960 0.630848 0.270850
C42   C     C_R   0.233710 0.526460 0.627646 -0.133526
C43   C     C_R   0.272626 0.502692 0.502062 -0.036601
C44   C     C_R   0.231678 0.481096 0.378617 -0.157787
C45   C     C_R   0.153033 0.482443 0.380915 -0.174107
Cu1   Cu    Cu3+1 0.500000 0.499980 0.640670 0.957753
Cu2   Cu    Cu3+1 0.500000 0.500020 0.359330 0.989569
H1    H     H_    0.874222 0.421958 0.712250 0.108657
H2    H     H_    0.735640 0.416914 0.707967 0.164869
H3    H     H_    0.740462 0.574330 0.293340 0.105913
H4    H     H_    0.878487 0.577077 0.297085 0.104884
H5    H     H_    0.264430 0.546474 0.723118 0.125409
H6    H     H_    0.260317 0.462502 0.280519 0.123004
H7    H     H_    0.122140 0.465348 0.284958 0.109158
H8    H     H_    0.364682 0.817485 0.616548 0.154948
H9    H     H_    0.362983 0.983302 0.639432 0.114965
H10   H     H_    0.277223 0.791902 0.819709 0.186473
H11   H     H_    0.273765 0.957276 0.838914 0.154289
H12   H     H_    0.467369 0.882955 0.281394 0.185901
H13   H     H_    0.220752 0.974442 0.596604 0.133039
H14   H     H_    0.162960 0.875379 0.706133 0.168913
H15   H     H_    0.224765 0.808403 0.576991 0.160065
H16   H     H_    0.790254 0.672527 0.825362 0.165260
H17   H     H_    0.736671 0.763378 0.942074 0.104267
H18   H     H_    0.699142 0.731888 0.625700 0.186016
H19   H     H_    0.661007 0.845033 0.743513 0.127098
H20   H     H_    0.789999 0.939408 0.772800 0.143467
H21   H     H_    0.758158 0.939948 0.593498 0.144301
H22   H     H_    0.826840 0.828782 0.648135 0.156575
H23   H     H_    0.530454 0.901457 0.841814 0.116890
H24   H     H_    0.567864 0.933284 0.123649 0.183416
H25   H     H_    0.638786 0.870739 0.016953 0.089602
H26   H     H_    0.635834 0.841397 0.340526 0.185238
H27   H     H_    0.713588 0.810066 0.224771 0.129268
H28   H     H_    0.721060 0.034087 0.159417 0.145072
H29   H     H_    0.733957 0.008917 0.344477 0.140143
H30   H     H_    0.645022 0.065233 0.281563 0.176979
H31   H     H_    0.178057 0.439329 0.883413 0.114546
H32   H     H_    0.099466 0.365672 0.791965 0.124932
H33   H     H_    0.009321 0.487842 0.934729 0.156098
H34   H     H_    0.430852 0.119055 0.772288 0.135025
H35   H     H_    0.070050 0.395193 0.042353 0.084877
H36   H     H_    0.087712 0.559244 0.027066 0.155715
H37   H     H_    0.363002 0.209625 0.285863 0.141597
H38   H     H_    0.353421 0.043284 0.279883 0.106423
H39   H     H_    0.381645 0.041730 0.027741 0.189933
H40   H     H_    0.302852 0.140595 0.066074 0.079173
H41   H     H_    0.394776 0.207188 0.027945 0.146558
H42   H     H_    0.530412 0.118251 0.835816 0.120256
H43   H     H_    0.388027 0.431246 0.129965 0.105569
H44   H     H_    0.387909 0.431652 0.871316 0.106879
H45   H     H_    0.582929 0.711968 0.855515 0.137596
H46   H     H_    0.665950 0.633636 0.123858 0.097739
N1    N     N_R   0.500470 0.500930 0.147930 -0.208312
N2    N     N_R   0.500480 0.500890 0.852020 -0.247669
O1    O     O_R   0.500000 0.319640 0.618810 -0.514940
O2    O     O_3   0.683739 0.605493 0.857524 -0.601486
O3    O     O_3   0.567435 0.744988 0.124176 -0.561857
O4    O     O_3   0.116198 0.553926 0.753108 -0.559449
O5    O     O_3   0.463385 0.119561 0.248837 -0.544969
O6    O     O_R   0.500010 0.319680 0.381230 -0.455432
O7    O     O_R   0.391250 0.499990 0.618840 -0.516097
O8    O     O_R   0.391260 0.500020 0.381250 -0.517661
O9    O     O_R   0.499990 0.680320 0.618770 -0.487082
O10   O     O_R   0.500000 0.680360 0.381190 -0.458089
O11   O     O_R   0.608740 0.499980 0.618750 -0.470614
O12   O     O_R   0.608750 0.500010 0.381160 -0.509507
O13   O     O_3   0.415162 0.879536 0.798963 -0.552425

loop_
_geom_bond_atom_site_label_1
_geom_bond_atom_site_label_2
_ccdc_geom_bond_type
C31   H19   S    
C35   H27   S    
Cu2   O6    S    
C30   H17   S    
C38   H36   S    
C41   C42   A    
C10   O13   S    
C35   C36   S    
C7    C8    A    
C28   H10   S    
C11   H34   S    
C37   H32   S    
C12   C23   S    
C1    C5    S    
C40   H40   S    
C28   C29   S    
C39   H37   S    
C18   C19   S    
C36   H30   S    
C15   N2    A    
C30   C31   S    
C27   H8    S    
C2    C41   A    
C4    O8    A    
C33   O3    S    
C40   H39   S    
C25   H3    S    
C14   H43   S    
C36   H29   S    
C33   H25   S    
Cu1   Cu2   S    
C44   H6    S    
C16   O9    A    
Cu1   N2    S    
C20   C24   S    
C8    C9    A    
Cu2   O10   S    
C4    O7    A    
C41   O4    S    
C17   N2    A    
C18   O2    S    
C9    C10   S    
C19   H46   S    
C32   H21   S    
C20   O12   A    
C2    C34   S    
C8    C16   S    
C30   H16   S    
C38   H35   S    
C7    H12   S    
C19   O3    S    
C20   O11   A    
C2    C45   A    
C29   H14   S    
Cu2   O8    S    
C13   C19   S    
C24   C25   A    
C39   C40   S    
C27   H9    S    
C25   C26   A    
Cu1   O9    S    
C12   C21   A    
C12   C26   A    
C6    O5    S    
C43   C44   A    
C37   C38   S    
C3    C9    A    
C36   H28   S    
Cu1   O7    S    
C11   H42   S    
C31   C32   S    
C30   O2    S    
C29   H13   S    
C23   C34   T    
C17   C18   S    
C32   H22   S    
C16   O10   A    
C32   H20   S    
C10   H23   S    
C45   H7    S    
Cu2   O12   S    
C22   H2    S    
C22   C24   A    
C42   C43   A    
C39   H38   S    
C1    O6    A    
C37   O4    S    
C44   C45   A    
C31   H18   S    
C29   H15   S    
C35   H26   S    
C3    C5    A    
C6    C7    A    
C4    C43   S    
C28   H11   S    
C37   H31   S    
C13   C17   A    
C13   N1    A    
C18   H45   S    
C21   H1    S    
C26   H4    S    
C40   H41   S    
C39   O5    S    
C5    C6    A    
C38   H33   S    
C27   O13   S    
C1    O1    A    
Cu1   O11   S    
C33   C35   S    
Cu2   N1    S    
C3    C11   S    
C10   C11   S    
C33   H24   S    
C15   H44   S    
Cu1   O1    S    
C27   C28   S    
C14   C15   A    
C21   C22   A    
C14   N1    A    
C42   H5    S    
