data_mof_unit_61936.cif
_audit_creation_date              2012-12-10T20:01:45-0500
_audit_creation_method            fapswitch 2.2
_symmetry_space_group_name_H-M    P1
_symmetry_Int_Tables_number       1
_space_group_crystal_system       triclinic
_cell_length_a                    14.306505
_cell_length_b                    14.966269
_cell_length_c                    16.867185
_cell_angle_alpha                 88.054731
_cell_angle_beta                  94.763845
_cell_angle_gamma                 89.876648
_cell_volume                      3596.92231859

loop_
_atom_site_label
_atom_site_type_symbol
_atom_type_description
_atom_site_fract_x
_atom_site_fract_y
_atom_site_fract_z
_atom_type_partial_charge
C1    C     C_R   0.500091 0.328062 0.498018 0.967282
C2    C     C_R   0.545899 0.903748 0.564478 0.411273
C3    C     C_R   0.512206 0.047734 0.491151 -0.045375
C4    C     C_R   0.515896 0.951174 0.493528 -0.039747
C5    C     C_R   0.109371 0.467434 0.562945 -0.273921
C6    C     C_R   0.891446 0.567302 0.462320 -0.265091
C7    C     C_R   0.207485 0.463637 0.562423 0.482491
C8    C     C_R   0.793015 0.565854 0.460097 0.475052
C9    C     C_R   0.197475 0.537419 0.436125 0.172457
C10   C     C_R   0.799861 0.432115 0.539328 0.184691
C11   C     C_R   0.098484 0.527606 0.429265 0.288872
C12   C     C_R   0.500285 0.671666 0.500092 0.988106
C13   C     C_R   0.897481 0.424393 0.531750 0.289127
C14   C     C_R   0.052192 0.495870 0.495183 0.011992
C15   C     C_R   0.945955 0.495019 0.495746 0.004740
C16   C     C_R   0.512405 0.499759 0.653093 0.927742
C17   C     C_R   0.487594 0.502724 0.346924 0.923228
C18   C     C_R   0.519745 0.510103 0.738485 -0.060677
C19   C     C_R   0.479997 0.513995 0.261068 -0.067969
C20   C     C_R   0.441073 0.539356 0.774440 -0.144525
C21   C     C_R   0.557157 0.546527 0.223471 -0.123547
C22   C     C_R   0.447296 0.553345 0.854992 -0.150348
C23   C     C_R   0.450662 0.179885 0.545030 0.386752
C24   C     C_R   0.550680 0.559629 0.141891 -0.142910
C25   C     C_R   0.532462 0.536922 0.901372 0.269967
C26   C     C_R   0.466876 0.539037 0.096536 0.260123
C27   C     C_R   0.612181 0.510713 0.864980 0.175889
C28   C     C_R   0.388490 0.509744 0.134436 0.179851
C29   C     C_R   0.605710 0.497215 0.783598 -0.204107
C30   C     C_R   0.395328 0.496704 0.216611 -0.202421
C31   C     C_R   0.454299 0.088188 0.542015 -0.176440
C32   C     C_R   0.483224 0.906834 0.425366 -0.161039
C33   C     C_R   0.479624 0.814727 0.427009 0.383901
C34   C     C_R   0.501303 0.232162 0.492943 -0.272182
C35   C     C_R   0.502620 0.767227 0.499023 -0.239772
C36   C     C_R   0.556357 0.191843 0.438005 0.068382
C37   C     C_R   0.537726 0.810917 0.567702 0.046457
C38   C     C_R   0.563790 0.098735 0.438874 0.405015
Cl1   Cl    Cl    0.267590 0.410227 0.645418 -0.464417
Cl2   Cl    Cl    0.731003 0.650461 0.403475 -0.490788
Cl3   Cl    Cl    0.035096 0.548933 0.335812 -0.491638
Cl4   Cl    Cl    0.955542 0.322599 0.561416 -0.463172
Cl5   Cl    Cl    0.387376 0.225382 0.619248 -0.437643
Cl6   Cl    Cl    0.453427 0.761182 0.336564 -0.515918
Cl7   Cl    Cl    0.640175 0.046169 0.377311 -0.449415
Cl8   Cl    Cl    0.595867 0.960479 0.648025 -0.459384
H1    H     H_    0.622536 0.562319 0.257021 0.220656
H2    H     H_    0.924784 0.624719 0.436253 0.239585
H3    H     H_    0.374757 0.552741 0.740277 0.203853
H4    H     H_    0.611689 0.584429 0.114320 0.195959
H5    H     H_    0.385005 0.575833 0.880962 0.190203
H6    H     H_    0.667455 0.476318 0.755990 0.197295
H7    H     H_    0.335084 0.472051 0.245356 0.197870
H8    H     H_    0.414294 0.047825 0.581627 0.213745
H9    H     H_    0.461584 0.944094 0.370651 0.216429
H10   H     H_    0.078013 0.445838 0.616533 0.236210
I1    I     I_    0.252556 0.627325 0.352054 -0.079303
I2    I     I_    0.740696 0.341265 0.621353 -0.093137
I3    I     I_    0.742475 0.487122 0.931662 -0.155601
I4    I     I_    0.260173 0.479821 0.069061 -0.144612
I5    I     I_    0.624731 0.269257 0.350551 -0.128700
I6    I     I_    0.579659 0.737610 0.675752 -0.190998
N1    N     N_2   0.538715 0.541056 0.984889 -0.153591
N2    N     N_2   0.460916 0.541740 0.012864 -0.155017
N3    N     N_R   0.252470 0.499980 0.500000 -0.183487
N4    N     N_R   0.747530 0.500020 0.500000 -0.181603
O1    O     O_R   0.579480 0.369070 0.499990 -0.596362
O2    O     O_R   0.420520 0.630930 0.500010 -0.608755
O3    O     O_R   0.420520 0.369060 0.499990 -0.561476
O4    O     O_R   0.579480 0.630940 0.500010 -0.555571
O5    O     O_R   0.588340 0.499180 0.616130 -0.622900
O6    O     O_R   0.411660 0.500820 0.383870 -0.614358
O7    O     O_R   0.429390 0.499170 0.616130 -0.577851
O8    O     O_R   0.570610 0.500830 0.383870 -0.592816
Zn1   Zn    Zn3+2 0.606140 0.500010 0.500000 1.060998
Zn2   Zn    Zn3+2 0.393860 0.499990 0.500000 1.062391

loop_
_geom_bond_atom_site_label_1
_geom_bond_atom_site_label_2
_ccdc_geom_bond_type
C8    N4    A    
C27   C29   A    
C5    H10   S    
O6    Zn2   S    
C37   I6    S    
C2    Cl8   S    
C12   O2    A    
N3    Zn2   S    
C6    H2    S    
C10   I2    S    
C24   C26   A    
C11   C14   A    
C23   Cl5   S    
O3    Zn2   S    
C25   N1    S    
C26   N2    S    
C38   Cl7   S    
C33   C35   A    
C6    C15   A    
C19   C21   A    
C3    C38   A    
C22   C25   A    
C32   H9    S    
C9    I1    S    
C28   I4    S    
C16   O5    A    
C13   Cl4   S    
C1    C34   S    
C10   N4    A    
C24   H4    S    
C30   H7    S    
O8    Zn1   S    
C16   O7    A    
C5    C7    A    
C6    C8    A    
C1    O3    A    
C23   C31   A    
C2    C4    A    
C20   H3    S    
C7    N3    A    
C23   C34   A    
C18   C29   A    
C12   C35   S    
C3    C31   A    
C9    C11   A    
C5    C14   A    
C4    C32   A    
C20   C22   A    
C13   C15   A    
C17   O8    A    
O7    Zn2   S    
O1    Zn1   S    
C36   I5    S    
C12   O4    A    
C35   C37   A    
C33   Cl6   S    
C10   C13   A    
C1    O1    A    
O2    Zn2   S    
C26   C28   A    
C32   C33   A    
C36   C38   A    
C27   I3    S    
O5    Zn1   S    
C2    C37   A    
N4    Zn1   S    
C28   C30   A    
C17   C19   S    
C34   C36   A    
C11   Cl3   S    
C18   C20   A    
C31   H8    S    
C9    N3    A    
N1    N2    D    
C17   O6    A    
C16   C18   S    
C21   C24   A    
O4    Zn1   S    
C7    Cl1   S    
C14   C15   S    
C8    Cl2   S    
C19   C30   A    
C29   H6    S    
C3    C4    S    
C22   H5    S    
C21   H1    S    
C25   C27   A    
