data_mof_unit_33941.cif
_audit_creation_date              2012-12-10T16:57:05-0500
_audit_creation_method            fapswitch 2.2
_symmetry_space_group_name_H-M    P1
_symmetry_Int_Tables_number       1
_space_group_crystal_system       triclinic
_cell_length_a                    7.853084
_cell_length_b                    8.553995
_cell_length_c                    16.797776
_cell_angle_alpha                 93.134099
_cell_angle_beta                  79.944928
_cell_angle_gamma                 93.638443
_cell_volume                      1107.73181868

loop_
_atom_site_label
_atom_site_type_symbol
_atom_type_description
_atom_site_fract_x
_atom_site_fract_y
_atom_site_fract_z
_atom_type_partial_charge
C1    C     C_R   0.545247 0.794543 0.500664 0.941982
C2    C     C_R   0.454226 0.205619 0.502444 0.993345
C3    C     C_2   0.568923 0.958427 0.501489 -0.381269
C4    C     C_2   0.429868 0.042261 0.505406 -0.259011
C5    C     C_R   0.474070 0.490571 0.653910 0.898016
C6    C     C_R   0.523796 0.502058 0.346547 0.804569
C7    C     C_R   0.447359 0.464837 0.741375 -0.152033
C8    C     C_R   0.536915 0.535804 0.262103 -0.194104
C9    C     C_R   0.574292 0.516533 0.788744 -0.055552
C10   C     C_R   0.503571 0.689434 0.244096 -0.011244
C11   C     C_R   0.524237 0.536335 0.872062 -0.131472
C12   C     C_R   0.452020 0.714761 0.170989 -0.101676
C13   C     C_R   0.353995 0.498565 0.909398 0.141262
C14   C     C_R   0.435236 0.589877 0.116067 0.081545
C15   C     C_R   0.235882 0.427479 0.864443 -0.209273
C16   C     C_R   0.484442 0.440351 0.130677 -0.110709
C17   C     C_R   0.281719 0.405717 0.780849 0.009294
C18   C     C_R   0.535339 0.411559 0.203821 -0.052975
C19   C     C_2   0.310275 0.508530 0.997364 -0.204203
C20   C     C_2   0.387536 0.621017 0.038751 -0.210746
H1    H     H_    0.443539 0.727364 0.009575 0.175719
H2    H     H_    0.241682 0.407906 0.027606 0.168309
H3    H     H_    0.109227 0.385645 0.894996 0.139217
H4    H     H_    0.483327 0.346215 0.084905 0.176658
H5    H     H_    0.423743 0.831563 0.156871 0.204075
H6    H     H_    0.621065 0.574738 0.908742 0.177607
H7    H     H_    0.700548 0.009313 0.497176 0.203340
H8    H     H_    0.298245 0.991445 0.509756 0.209654
N1    N     N_2   0.953500 0.457650 0.478520 0.018506
N2    N     N_2   0.046500 0.542350 0.521480 0.014016
O1    O     O_R   0.388470 0.738640 0.505270 -0.602968
O2    O     O_R   0.611530 0.261360 0.494730 -0.623944
O3    O     O_R   0.679650 0.711510 0.491500 -0.606217
O4    O     O_R   0.320350 0.288490 0.508500 -0.574797
O5    O     O_R   0.337210 0.515200 0.623500 -0.575654
O6    O     O_R   0.662790 0.484800 0.376500 -0.615577
O7    O     O_R   0.628380 0.488060 0.609730 -0.643521
O8    O     O_R   0.371620 0.511940 0.390270 -0.587250
Zn1   Zn    Zn3+2 0.305580 0.518120 0.509190 1.064832
Zn2   Zn    Zn3+2 0.694420 0.481880 0.490810 1.020518
C21   C     C_2   0.760867 0.540947 0.755208 0.402118
H9    H     H_    0.819073 0.473251 0.702268 0.106201
O9    O     O_2   0.854306 0.632453 0.788792 -0.561526
C22   C     C_2   0.521232 0.824043 0.301648 0.455344
H10   H     H_    0.614705 0.822802 0.341801 0.042626
O10   O     O_2   0.432393 0.936902 0.304462 -0.565588
C23   C     C_2   0.582283 0.251915 0.219425 0.473871
H11   H     H_    0.620142 0.228075 0.276467 0.092922
O11   O     O_2   0.581386 0.145049 0.168203 -0.571335
C24   C     C_2   0.156069 0.311625 0.738740 0.459311
H12   H     H_    0.019664 0.305010 0.765278 0.052911
O12   O     O_2   0.204193 0.232602 0.677189 -0.568926
I1    I     I_    0.052153 0.276775 0.400067 -0.185457
I2    I     I_    0.959291 0.741575 0.588053 -0.170740

loop_
_geom_bond_atom_site_label_1
_geom_bond_atom_site_label_2
_ccdc_geom_bond_type
C17   C24   S    
C24   O12   D    
C6    O8    A    
C15   C17   A    
N1    N2    D    
C5    O7    A    
C23   O11   D    
N2    I2    S    
C21   H9    S    
C9    C21   S    
C19   C20   D    
O6    Zn2   S    
C12   H5    S    
C9    C11   A    
C18   C23   S    
C2    O4    A    
C3    H7    S    
C24   H12   S    
C12   C14   A    
C1    O3    A    
C16   H4    S    
C20   H1    S    
C21   O9    D    
C10   C12   A    
C2    C4    S    
C5    O5    A    
N1    Zn2   S    
C16   C18   A    
C4    H8    S    
C6    O6    A    
N2    Zn1   S    
O7    Zn2   S    
C5    C7    S    
C13   C15   A    
O8    Zn1   S    
C8    C10   A    
C14   C16   A    
C11   C13   A    
C15   H3    S    
C10   C22   S    
C3    C4    D    
O3    Zn2   S    
C23   H11   S    
C14   C20   S    
C1    O1    A    
O2    Zn2   S    
C22   H10   S    
C2    O2    A    
C19   H2    S    
C1    C3    S    
C7    C9    A    
C13   C19   S    
C6    C8    S    
C22   O10   D    
C11   H6    S    
C7    C17   A    
O5    Zn1   S    
C8    C18   A    
O4    Zn1   S    
O1    Zn1   S    
N1    I1    S    
