data_mof_unit_21507.cif
_audit_creation_date              2012-10-26T17:13:05-0400
_audit_creation_method            fapswitch 2.2
_symmetry_space_group_name_H-M    P1
_symmetry_Int_Tables_number       1
_space_group_crystal_system       triclinic
_cell_length_a                    16.82342
_cell_length_b                    16.868722
_cell_length_c                    16.843449
_cell_angle_alpha                 67.920511
_cell_angle_beta                  67.912005
_cell_angle_gamma                 67.651274
_cell_volume                      3942.3050027

loop_
_atom_site_label
_atom_site_type_symbol
_atom_type_description
_atom_site_fract_x
_atom_site_fract_y
_atom_site_fract_z
_atom_type_partial_charge
C1    C     C_R   0.305753 0.014054 0.436796 0.010861
C2    C     C_R   0.304539 0.434019 0.018493 0.015393
C3    C     C_R   0.535761 0.417486 0.007775 -0.030676
C4    C     C_R   0.964969 0.471597 0.595748 -0.029514
C5    C     C_R   0.936820 0.558481 0.425634 -0.033227
C6    C     C_R   0.973246 0.698955 0.568168 0.015965
C7    C     C_R   0.941121 0.325940 0.453766 0.016520
C8    C     C_R   0.442384 0.031064 0.442040 -0.005055
C9    C     C_R   0.536763 0.052530 0.536629 -0.004431
C10   C     C_R   0.943443 0.466697 0.462777 -0.004527
C11   C     C_R   0.962505 0.562081 0.558182 -0.005474
C12   C     C_R   0.443213 0.450606 0.017810 -0.005503
C13   C     C_R   0.535517 0.543705 0.044211 -0.005996
C14   C     C_R   0.011584 0.832312 0.569786 0.555841
C15   C     C_R   0.673788 0.063358 0.544945 0.025111
C16   C     C_R   0.972335 0.171736 0.434846 0.581076
C17   C     C_R   0.828309 0.565334 0.027689 0.575861
C18   C     C_R   0.168111 0.430343 0.987482 0.558783
C19   C     C_R   0.564897 0.027897 0.828584 0.553809
C20   C     C_R   0.430696 0.986417 0.168586 0.570451
C21   C     C_R   0.432711 0.170277 0.981015 0.564047
C22   C     C_R   0.564039 0.828707 0.029965 0.561260
C23   C     C_R   0.970849 0.435708 0.171535 0.593038
C24   C     C_R   0.014341 0.568947 0.831205 0.545096
C25   C     C_R   0.168767 0.985229 0.431270 0.547250
C26   C     C_R   0.934382 0.457223 0.325541 0.026941
C27   C     C_R   0.828293 0.028860 0.564645 0.590733
C28   C     C_R   0.395109 0.017978 0.395546 -0.065931
C29   C     C_R   0.585761 0.056870 0.586166 -0.070070
C30   C     C_R   0.940840 0.416322 0.413462 -0.069907
C31   C     C_R   0.975845 0.608130 0.605703 -0.066787
C32   C     C_R   0.397580 0.401027 0.006985 -0.068737
C33   C     C_R   0.584334 0.590525 0.052861 -0.072135
C34   C     C_R   0.260916 0.994927 0.391274 -0.016029
C35   C     C_R   0.728995 0.048178 0.598879 0.010199
C36   C     C_R   0.951092 0.402298 0.270587 0.012179
C37   C     C_R   0.983126 0.565282 0.694076 0.011472
C38   C     C_R   0.003100 0.609825 0.739193 -0.016444
C39   C     C_R   0.395068 0.264755 0.985370 -0.010789
C40   C     C_R   0.597235 0.730243 0.049920 -0.001367
C41   C     C_R   0.598888 0.046425 0.729829 -0.008798
C42   C     C_R   0.389910 0.996765 0.260893 -0.009895
C43   C     C_R   0.728835 0.600426 0.046082 0.000330
C44   C     C_R   0.260785 0.389851 0.996691 -0.008368
C45   C     C_R   0.998638 0.741315 0.611176 -0.008784
C46   C     C_R   0.953809 0.271143 0.400524 0.003599
C47   C     C_R   0.451870 0.071859 0.707841 0.403930
C48   C     C_R   0.443544 0.314399 0.994471 0.018590
C49   C     C_R   0.510904 0.049346 0.260873 0.406256
C50   C     C_R   0.939544 0.744706 0.492358 0.395359
C51   C     C_R   0.927523 0.294416 0.546647 0.416549
C52   C     C_R   0.707239 0.457609 0.062352 0.420027
C53   C     C_R   0.258062 0.506804 0.056621 0.398900
C54   C     C_R   0.264578 0.033096 0.520700 0.399352
C55   C     C_R   0.701776 0.088385 0.451038 0.421576
C56   C     C_R   0.535163 0.281827 0.994594 0.416105
C57   C     C_R   0.447802 0.705298 0.086835 0.406260
C58   C     C_R   0.907617 0.551581 0.297656 0.421183
C59   C     C_R   0.542528 0.676916 0.062599 0.015875
C60   C     C_R   0.967027 0.480395 0.733961 0.395543
C61   C     C_R   0.305189 0.984048 0.305700 -0.166372
C62   C     C_R   0.690075 0.040637 0.690296 -0.160826
C63   C     C_R   0.959642 0.310635 0.309543 -0.147234
C64   C     C_R   0.013264 0.695512 0.695235 -0.178879
C65   C     C_R   0.306631 0.306094 0.981838 -0.171356
C66   C     C_R   0.688880 0.690670 0.043308 -0.157190
C67   C     C_R   0.657378 0.077450 0.400794 0.012217
C68   C     C_R   0.315719 0.026031 0.572976 0.015094
C69   C     C_R   0.974071 0.429215 0.682050 0.013357
C70   C     C_R   0.545188 0.058256 0.675901 0.009937
C71   C     C_R   0.914707 0.603031 0.343695 0.015326
C72   C     C_R   0.397435 0.660664 0.075944 0.005061
C73   C     C_R   0.582632 0.336582 0.987266 0.011937
C74   C     C_R   0.563409 0.052240 0.307343 0.007891
C75   C     C_R   0.407235 0.050607 0.666636 0.006382
C76   C     C_R   0.303018 0.561754 0.058367 0.009015
C77   C     C_R   0.669192 0.418566 0.031673 0.010847
C78   C     C_R   0.948091 0.336228 0.591190 0.012466
C79   C     C_R   0.935393 0.698346 0.439890 0.009647
C80   C     C_R   0.693201 0.085000 0.308137 0.128118
C81   C     C_R   0.433708 0.018883 0.305129 0.009513
C82   C     C_R   0.279013 0.017962 0.664810 0.121016
C83   C     C_R   0.985039 0.337087 0.717141 0.118078
C84   C     C_R   0.902118 0.696776 0.310203 0.130784
C85   C     C_R   0.303575 0.694431 0.087111 0.120540
C86   C     C_R   0.675685 0.303561 0.975198 0.132472
C87   C     C_R   0.648665 0.066827 0.263332 0.129618
C88   C     C_R   0.322648 0.034380 0.711376 0.121187
C89   C     C_R   0.256819 0.645035 0.078129 0.113382
C90   C     C_R   0.717865 0.340169 0.004535 0.135948
C91   C     C_R   0.966070 0.291375 0.674872 0.136161
C92   C     C_R   0.674573 0.549228 0.054180 0.014195
C93   C     C_R   0.918119 0.742527 0.355625 0.117072
C94   C     C_R   0.527836 0.044833 0.398651 -0.034460
C95   C     C_R   0.449819 0.042998 0.578924 -0.033934
C96   C     C_R   0.954064 0.424350 0.549156 -0.034024
C97   C     C_R   0.946217 0.606176 0.473793 -0.032154
C98   C     C_R   0.396472 0.531807 0.041014 -0.032473
C99   C     C_R   0.580662 0.461047 0.025587 -0.034703
C100  C     C_R   0.575099 0.056175 0.445618 -0.034171
C101  C     C_R   0.403352 0.031704 0.531766 -0.030072
C102  C     C_R   0.443190 0.579915 0.051784 -0.035489
Cu1   Cu    Cu3+1 0.995180 0.995180 0.424630 1.179097
Cu2   Cu    Cu3+1 0.004820 0.004820 0.575370 1.182064
Cu3   Cu    Cu3+1 0.995180 0.424630 0.995180 1.190535
Cu4   Cu    Cu3+1 0.004820 0.575370 0.004820 1.162716
Cu5   Cu    Cu3+1 0.424630 0.995180 0.995180 1.162936
Cu6   Cu    Cu3+1 0.575370 0.004820 0.004820 1.184968
F1    F     F_    0.402831 0.121750 0.766389 -0.591167
F2    F     F_    0.406196 0.765807 0.134837 -0.596160
F3    F     F_    0.862912 0.591461 0.234398 -0.597792
F4    F     F_    0.917771 0.458264 0.819791 -0.605864
F5    F     F_    0.519588 0.100628 0.176395 -0.551713
F6    F     F_    0.890967 0.831309 0.482484 -0.611989
F7    F     F_    0.878103 0.235773 0.595149 -0.592276
F8    F     F_    0.762751 0.404680 0.114922 -0.581317
F9    F     F_    0.173605 0.511100 0.109968 -0.606688
F10   F     F_    0.178763 0.084253 0.540513 -0.597297
F11   F     F_    0.762467 0.135813 0.410445 -0.590963
F12   F     F_    0.572972 0.196887 0.033464 -0.534081
H1    H     H_    0.272216 0.967176 0.272504 0.179221
H2    H     H_    0.732078 0.027074 0.731953 0.173266
H3    H     H_    0.973946 0.268693 0.267693 0.176627
H4    H     H_    0.031673 0.727841 0.727759 0.166513
H5    H     H_    0.271973 0.271491 0.969077 0.177541
H6    H     H_    0.730486 0.731626 0.032104 0.176024
I1    I     I_    0.266406 0.020783 0.851622 -0.129379
I2    I     I_    0.230999 0.824149 0.108696 -0.134549
I3    I     I_    0.859381 0.773554 0.191160 -0.131729
I4    I     I_    0.059341 0.265913 0.813834 -0.142292
I5    I     I_    0.719053 0.040398 0.136251 -0.069952
I6    I     I_    0.936842 0.872617 0.287143 -0.134211
I7    I     I_    0.977132 0.152618 0.732328 -0.057321
I8    I     I_    0.855701 0.281303 0.999625 -0.045114
I9    I     I_    0.118672 0.704415 0.078790 -0.141882
I10   I     I_    0.174103 0.954468 0.734934 -0.190326
I11   I     I_    0.815466 0.120898 0.233086 -0.059079
I12   I     I_    0.751215 0.206134 0.902140 -0.131291
O1    O     O_R   0.124540 0.978640 0.385460 -0.527594
O2    O     O_R   0.124540 0.385460 0.978640 -0.523909
O3    O     O_R   0.021360 0.875460 0.614540 -0.529845
O4    O     O_R   0.978640 0.124540 0.385460 -0.503693
O5    O     O_R   0.013780 0.867370 0.487190 -0.446482
O6    O     O_R   0.986220 0.132630 0.512810 -0.411130
O7    O     O_R   0.867370 0.487190 0.013780 -0.416006
O8    O     O_R   0.132630 0.512810 0.986220 -0.454124
O9    O     O_R   0.487190 0.013780 0.867370 -0.449659
O10   O     O_R   0.512810 0.986220 0.132630 -0.436878
O11   O     O_R   0.512810 0.132630 0.986220 -0.396279
O12   O     O_R   0.875460 0.021360 0.614540 -0.509522
O13   O     O_R   0.487190 0.867370 0.013780 -0.454454
O14   O     O_R   0.986220 0.512810 0.132630 -0.403077
O15   O     O_R   0.013780 0.487190 0.867370 -0.432973
O16   O     O_R   0.132630 0.986220 0.512810 -0.437557
O17   O     O_R   0.867370 0.013780 0.487190 -0.406211
O18   O     O_R   0.978640 0.385460 0.124540 -0.508484
O19   O     O_R   0.021360 0.614540 0.875460 -0.533964
O20   O     O_R   0.385460 0.124540 0.978640 -0.501173
O21   O     O_R   0.614540 0.875460 0.021360 -0.529261
O22   O     O_R   0.614540 0.021360 0.875460 -0.524008
O23   O     O_R   0.385460 0.978640 0.124540 -0.494066
O24   O     O_R   0.875460 0.614540 0.021360 -0.503529

loop_
_geom_bond_atom_site_label_1
_geom_bond_atom_site_label_2
_ccdc_geom_bond_type
C49   F5    S    
C23   O14   A    
C89   I9    S    
C6    C45   A    
C63   H3    S    
C32   C48   A    
C21   O20   A    
C74   C94   A    
Cu3   O15   S    
C50   C79   A    
C72   C85   A    
C75   C95   A    
Cu6   O21   S    
C55   F11   S    
C24   O15   A    
C69   C83   A    
C19   O22   A    
C61   H1    S    
C16   O6    A    
C79   C93   A    
C88   I1    S    
C18   C44   S    
C90   I8    S    
C53   F9    S    
C58   C71   A    
C57   C59   A    
C54   C68   A    
C22   O21   A    
C76   C98   A    
C80   I11   S    
C3    C99   A    
C84   I3    S    
C2    C32   A    
C80   C87   A    
C49   C81   A    
C3    C12   A    
C4    C96   A    
Cu5   O23   S    
C78   C96   A    
C91   I7    S    
C1    C28   A    
C24   C38   S    
Cu5   Cu6   S    
C20   O10   A    
C10   C96   A    
C74   C87   A    
C35   C62   A    
C36   C63   A    
C8    C101  A    
C9    C95   A    
C85   I2    S    
C12   C98   A    
C9    C29   A    
C25   C34   S    
Cu5   O13   S    
C6    C31   A    
C28   C81   A    
C14   O3    A    
C11   C31   A    
C33   C59   A    
C7    C30   A    
C40   C66   A    
C23   O18   A    
C12   C32   A    
C56   F12   S    
C44   C65   A    
C42   C81   A    
C41   C62   A    
C15   C35   A    
C4    C69   A    
C1    C34   A    
C15   C29   A    
C14   C45   S    
C38   C64   A    
C52   F8    S    
C27   O17   A    
C77   C90   A    
Cu4   O14   S    
C58   F3    S    
C7    C46   A    
C8    C94   A    
C68   C101  A    
C83   I4    S    
C86   C90   A    
C33   C92   A    
C16   C46   S    
C85   C89   A    
C24   O19   A    
C27   C35   S    
C47   F1    S    
C34   C61   A    
C51   F7    S    
C66   H6    S    
C50   F6    S    
C15   C55   A    
C13   C99   A    
C16   O4    A    
C1    C54   A    
C17   C43   S    
C47   C70   A    
C13   C33   A    
C37   C38   A    
C60   F4    S    
Cu1   O1    S    
Cu5   O9    S    
C10   C30   A    
C20   C42   S    
C57   F2    S    
C21   C39   S    
C94   C100  A    
C22   C40   S    
Cu2   O6    S    
C6    C50   A    
C4    C11   A    
C18   O2    A    
C26   C58   A    
C42   C61   A    
C87   I5    S    
C67   C100  A    
Cu1   O17   S    
C5    C97   A    
C26   C30   A    
C9    C100  A    
C21   O11   A    
C54   F10   S    
C17   O7    A    
C8    C28   A    
C64   H4    S    
C52   C92   A    
C53   C76   A    
C52   C77   A    
C93   I6    S    
Cu1   O4    S    
C62   H2    S    
Cu5   O20   S    
C2    C44   A    
C71   C84   A    
C26   C36   A    
C48   C56   A    
C22   O13   A    
C56   C73   A    
C25   O1    A    
C25   O16   A    
C49   C74   A    
C79   C97   A    
C67   C80   A    
C18   O8    A    
C2    C53   A    
Cu1   O5    S    
C55   C67   A    
Cu2   O12   S    
Cu6   O22   S    
C78   C91   A    
C27   O12   A    
Cu4   O19   S    
C83   C91   A    
Cu3   Cu4   S    
C39   C65   A    
C45   C64   A    
C95   C101  A    
C43   C92   A    
Cu4   O8    S    
C46   C63   A    
C11   C97   A    
C68   C82   A    
C14   O5    A    
C51   C78   A    
C7    C51   A    
C5    C10   A    
C5    C71   A    
C98   C102  A    
Cu3   O2    S    
C72   C102  A    
C60   C69   A    
C43   C66   A    
C82   C88   A    
C20   O23   A    
C77   C99   A    
C29   C70   A    
C84   C93   A    
Cu4   O24   S    
C57   C72   A    
C82   I10   S    
C3    C73   A    
C19   O9    A    
C73   C86   A    
C37   C60   A    
C17   O24   A    
C86   I12   S    
C47   C75   A    
Cu6   O11   S    
C31   C37   A    
C75   C88   A    
Cu3   O18   S    
C23   C36   S    
Cu1   Cu2   S    
C40   C59   A    
Cu2   O3    S    
C41   C70   A    
C76   C89   A    
Cu2   O16   S    
C13   C102  A    
Cu3   O7    S    
C19   C41   S    
C65   H5    S    
C39   C48   A    
Cu6   O10   S    
