data_mof_unit_6173.cif
_audit_creation_date              2013-03-05T16:11:15-0500
_audit_creation_method            fapswitch 2.2
_symmetry_space_group_name_H-M    P1
_symmetry_Int_Tables_number       1
_space_group_crystal_system       triclinic
_cell_length_a                    6.952115
_cell_length_b                    20.565179
_cell_length_c                    24.484924
_cell_angle_alpha                 90.06263
_cell_angle_beta                  90.649221
_cell_angle_gamma                 89.668381
_cell_volume                      3500.36084766

loop_
_atom_site_label
_atom_site_type_symbol
_atom_site_description
_atom_site_fract_x
_atom_site_fract_y
_atom_site_fract_z
_atom_type_partial_charge
O1    O     O_R   0.507280 0.423750 0.460310 -0.580459
O2    O     O_R   0.171030 0.555650 0.437630 -0.591314
O3    O     O_R   0.004080 0.576250 0.539690 -0.600156
C1    C     C_R   0.338987 0.575797 0.421874 1.020662
O4    O     O_R   0.177330 0.422980 0.453960 -0.585371
O5    O     O_R   0.010420 0.442640 0.556140 -0.586357
C2    C     C_R   0.345720 0.399077 0.443336 1.074257
O6    O     O_R   0.500930 0.557360 0.443860 -0.575563
O7    O     O_3   0.340310 0.506600 0.533500 -0.283826
V1    V     V_3+5 0.064140 0.498780 0.493780 1.217973
O8    O     O_R   0.680890 0.444350 0.562370 -0.585896
C3    C     C_R   0.850517 0.424195 0.577939 0.958441
O9    O     O_R   0.674590 0.577020 0.546040 -0.601994
C4    C     C_R   0.843377 0.601026 0.556514 0.962254
V2    V     V_3+5 0.564550 0.501220 0.506220 1.213856
O10   O     O_3   0.838250 0.493400 0.466500 -0.247532
C5    C     C_R   0.970156 0.838744 0.910766 -0.097401
C6    C     C_R   0.852942 0.662311 0.587899 -0.155623
C7    C     C_R   0.963861 0.721345 0.908010 -0.166114
C8    C     C_R   0.976678 0.778989 0.937626 -0.165369
C9    C     C_R   0.951433 0.840588 0.853509 -0.236024
C10   C     C_R   0.938854 0.782278 0.822103 0.111069
C11   C     C_R   0.944591 0.722395 0.850862 0.175016
C12   C     C_R   0.920431 0.781108 0.763532 0.054414
C13   C     C_R   0.905595 0.720100 0.735091 0.063528
C14   C     C_R   0.911214 0.662343 0.766166 -0.184278
C15   C     C_R   0.930804 0.663676 0.822641 -0.225541
C16   C     C_R   0.917356 0.838827 0.732426 -0.188785
C17   C     C_R   0.900355 0.837451 0.675905 -0.207271
C18   C     C_R   0.885059 0.778744 0.647702 0.161485
C19   C     C_R   0.886568 0.718967 0.676514 0.118121
C20   C     C_R   0.868840 0.779854 0.590524 -0.262457
C21   C     C_R   0.851801 0.722258 0.560492 0.179420
C22   C     C_R   0.869896 0.660767 0.645215 -0.281994
H1    H     H_    0.934932 0.617902 0.844577 0.143232
H2    H     H_    0.870504 0.613338 0.663825 0.117810
H3    H     H_    0.899326 0.883201 0.653922 0.141072
H4    H     H_    0.968587 0.675605 0.929955 0.122565
H5    H     H_    0.990857 0.777007 0.981713 0.110512
H6    H     H_    0.946149 0.888119 0.835106 0.105630
H7    H     H_    0.901608 0.614744 0.748078 0.140457
H8    H     H_    0.929013 0.886387 0.750494 0.139968
H9    H     H_    0.868463 0.825863 0.568915 0.126738
H10   H     H_    0.653623 0.235234 0.817037 0.210723
C23   C     C_R   0.738901 0.285518 0.743820 0.390638
C24   C     C_R   0.887164 0.293147 0.705139 -0.089570
C25   C     C_R   0.056357 0.256056 0.710682 -0.249352
H11   H     H_    0.169304 0.262339 0.681047 0.206542
C26   C     C_R   0.084084 0.211960 0.754253 0.391850
C27   C     C_R   0.936090 0.204532 0.793089 -0.092424
C28   C     C_R   0.766661 0.241496 0.787427 -0.245760
C29   C     C_1   0.873233 0.339838 0.660410 0.167011
C30   C     C_1   0.950617 0.158441 0.838274 0.173756
C31   C     C_1   0.961586 0.120391 0.876179 -0.253525
C32   C     C_1   0.862475 0.378528 0.622986 -0.250010
H12   H     H_    0.672315 0.734592 0.317972 0.125999
C33   C     C_R   0.579800 0.784740 0.245031 -0.234888
H13   H     H_    0.712140 0.812036 0.242404 0.131212
C34   C     C_R   0.433486 0.793775 0.205667 0.126694
C35   C     C_R   0.261475 0.757766 0.210363 0.178697
C36   C     C_R   0.238760 0.714268 0.254517 -0.271668
H14   H     H_    0.106335 0.687117 0.258075 0.139017
C37   C     C_R   0.386150 0.705172 0.293494 0.168960
C38   C     C_R   0.556750 0.740728 0.288333 -0.170941
C39   C     C_1   0.459214 0.840651 0.161383 0.005915
C40   C     C_1   0.363447 0.659293 0.338514 -0.001484
C41   C     C_1   0.348652 0.621110 0.376273 -0.243932
C42   C     C_1   0.475297 0.879153 0.123905 -0.290078
C43   C     C_R   0.471459 0.161270 0.089068 -0.100764
C44   C     C_R   0.349254 0.338370 0.410857 -0.321210
C45   C     C_R   0.491897 0.278420 0.092580 -0.155462
C46   C     C_R   0.497082 0.220735 0.062869 -0.160608
C47   C     C_R   0.442704 0.159633 0.145799 -0.239051
C48   C     C_R   0.436764 0.217949 0.177220 0.107561
C49   C     C_R   0.461795 0.277611 0.149167 0.170510
C50   C     C_R   0.404996 0.219385 0.235103 0.061123
C51   C     C_R   0.410748 0.280046 0.264206 0.084088
C52   C     C_R   0.422645 0.337690 0.233330 -0.091452
C53   C     C_R   0.451215 0.336394 0.177345 -0.250395
C54   C     C_R   0.358186 0.162766 0.264371 -0.194166
C55   C     C_R   0.310938 0.165577 0.319217 -0.180054
C56   C     C_R   0.320732 0.223918 0.348212 0.148606
C57   C     C_R   0.385974 0.281379 0.322565 -0.031378
C58   C     C_R   0.263273 0.224739 0.402795 -0.256736
C59   C     C_R   0.270138 0.281806 0.433578 0.159133
C60   C     C_R   0.418563 0.337388 0.356518 0.235977
H15   H     H_    0.461686 0.382164 0.155671 0.146290
H16   H     H_    0.265885 0.121284 0.339241 0.125585
H17   H     H_    0.510698 0.323992 0.071146 0.124757
H18   H     H_    0.520444 0.222471 0.019216 0.120188
H19   H     H_    0.428590 0.112252 0.164011 0.099056
H20   H     H_    0.399675 0.384976 0.251049 0.181058
H21   H     H_    0.346410 0.115689 0.245396 0.126915
H22   H     H_    0.208850 0.180855 0.421515 0.129058
O11   O     O_R   0.323320 0.942780 0.056240 -0.587376
O12   O     O_R   0.647300 0.077050 0.046060 -0.592792
O13   O     O_R   0.813840 0.057330 0.943840 -0.586125
C61   C     C_R   0.478749 0.100886 0.056810 0.928265
O14   O     O_R   0.653250 0.944380 0.062400 -0.591917
O15   O     O_R   0.819830 0.923720 0.960300 -0.589625
C62   C     C_R   0.485220 0.924500 0.078339 0.970846
O16   O     O_R   0.317330 0.076390 0.039790 -0.590188
O17   O     O_3   0.483830 0.993470 0.966560 -0.263981
V3    V     V_3+5 0.760140 0.001210 0.006210 1.175782
O18   O     O_R   0.149290 0.922840 0.953850 -0.590653
C63   C     C_R   0.980281 0.899144 0.943108 0.927076
O19   O     O_R   0.143340 0.055500 0.937510 -0.575166
C64   C     C_R   0.973667 0.075432 0.921767 0.966812
V4    V     V_3+5 0.259690 0.998600 0.993650 1.187804
O20   O     O_3   0.986130 0.006520 0.033440 -0.274854
N1    N     N_R   0.560445 0.321508 0.739857 0.242082
O21   O     O_R   0.453861 0.329284 0.782765 -0.400464
O22   O     O_R   0.494858 0.342058 0.692943 -0.417538
N2    N     N_R   0.262236 0.175751 0.757999 0.241656
O23   O     O_R   0.368819 0.168288 0.715051 -0.403414
O24   O     O_R   0.327273 0.154426 0.804724 -0.415096
N3    N     N_2   0.108872 0.766192 0.171698 -0.111626
H23   H     H_    0.974238 0.758656 0.187703 0.169251
C65   C     C_3   0.134683 0.731180 0.121005 -0.895730
H24   H     H_    0.133586 0.677904 0.128601 0.251517
H25   H     H_    0.272288 0.744724 0.101544 0.254059
H26   H     H_    0.015290 0.743546 0.092263 0.241970
N4    N     N_R   0.539911 0.389498 0.338953 0.222386
O25   O     O_R   0.710460 0.376715 0.320228 -0.390981
O26   O     O_R   0.482276 0.449689 0.342171 -0.440105
N5    N     N_2   0.198544 0.281875 0.487903 -0.116342
H27   H     H_    0.085362 0.250453 0.493612 0.172220
C66   C     C_3   0.344851 0.274892 0.530037 -0.856942
H28   H     H_    0.416319 0.226583 0.526738 0.247402
H29   H     H_    0.277325 0.278903 0.570807 0.258665
H30   H     H_    0.454445 0.313703 0.526764 0.245090
N6    N     N_2   0.838446 0.724778 0.502484 -0.119918
H31   H     H_    0.922394 0.760554 0.485565 0.166966
C67   C     C_3   0.643424 0.726832 0.481292 -0.923293
H32   H     H_    0.571600 0.772925 0.493578 0.247607
H33   H     H_    0.559371 0.685041 0.496591 0.260369
H34   H     H_    0.645658 0.724190 0.436000 0.245135

loop_
_geom_bond_atom_site_label_1
_geom_bond_atom_site_label_2
_geom_bond_distance
_ccdc_geom_bond_type
C13   C19   1.439035 A    
C45   C49   1.403717 A    
N5    H27   1.031908 S    
N3    H23   1.031408 S    
C47   C48   1.424772 A    
C4    C6    1.476869 S    
O2    C1    1.303872 A    
C7    C8    1.391727 A    
C1    O6    1.297249 A    
C66   H28   1.111495 S    
C2    C44   1.479716 S    
C53   H15   1.084295 S    
N2    O23   1.301684 A    
N4    O25   1.301382 A    
C25   C26   1.411776 A    
C51   C52   1.410039 A    
C14   C15   1.388204 A    
C48   C50   1.437080 A    
C55   H16   1.084429 S    
C16   C17   1.387906 A    
N3    C65   1.446662 S    
O5    C3    1.297435 A    
C18   C19   1.417964 A    
N4    O26   1.301441 A    
C51   C57   1.441395 A    
V2    O10   2.151829 S    
C24   C29   1.459319 S    
O15   V3    1.993580 S    
C5    C8    1.394695 A    
C36   C37   1.404185 A    
O13   C64   1.297743 A    
O8    V2    1.969649 S    
N1    O21   1.301639 A    
N6    H31   1.031824 S    
O12   C61   1.297192 A    
O19   C64   1.300956 A    
H12   C38   1.083447 S    
C43   C47   1.406070 A    
O1    V2    1.988377 S    
C11   C15   1.393878 A    
O7    V1    2.149159 S    
V4    O20   2.151903 S    
C29   C32   1.215607 T    
C43   C61   1.471917 S    
C26   N2    1.443529 S    
C37   C40   1.462237 S    
C34   C35   1.416051 A    
C9    C10   1.426395 A    
O19   V4    1.969871 S    
C59   N5    1.425487 S    
C67   H34   1.110534 S    
O14   V3    1.961555 S    
C55   C56   1.395050 A    
C50   C51   1.436534 A    
C65   H25   1.110629 S    
C27   C30   1.459915 S    
C48   C49   1.419342 A    
O13   V3    1.955820 S    
C50   C54   1.409518 A    
C12   C13   1.437939 A    
C47   H19   1.077491 S    
O11   V4    1.960783 S    
O4    C2    1.296044 A    
C8    H5    1.083635 S    
C52   C53   1.387533 A    
C67   H33   1.109902 S    
C15   H1    1.084375 S    
C13   C14   1.411400 A    
C61   O16   1.297023 A    
C5    C9    1.407016 A    
C35   C36   1.414751 A    
C43   C46   1.394834 A    
C7    C11   1.404344 A    
C17   C18   1.394191 A    
C7    H4    1.083959 S    
C46   H18   1.083590 S    
C25   H11   1.083540 S    
C45   H17   1.083937 S    
C65   H24   1.111581 S    
C39   C42   1.219217 T    
C27   C28   1.403796 A    
C19   C22   1.425085 A    
C35   N3    1.423835 S    
N1    O22   1.301139 A    
C58   H22   1.084662 S    
C58   C59   1.394862 A    
C6    C22   1.407348 A    
O3    C4    1.296485 A    
H10   C28   1.083537 S    
O14   C62   1.303939 A    
C26   C27   1.417887 A    
O6    V2    1.960246 S    
C56   C58   1.399259 A    
O12   V3    1.999961 S    
C10   C12   1.438544 A    
V3    O20   1.703796 S    
O2    V1    1.961359 S    
C66   H30   1.110192 S    
O17   V3    2.149136 S    
C21   N6    1.423281 S    
C33   C38   1.405949 A    
C65   H26   1.110682 S    
O18   V4    1.989902 S    
C24   C25   1.403580 A    
N5    C66   1.447183 S    
O1    C2    1.298961 A    
C12   C16   1.410957 A    
C54   C55   1.387147 A    
C66   H29   1.110717 S    
O5    V1    1.955898 S    
C1    C41   1.457484 S    
N2    O24   1.301047 A    
O8    C3    1.300884 A    
C23   N1    1.443340 S    
C30   C31   1.216052 T    
C67   H32   1.111592 S    
O18   C63   1.298674 A    
O15   C63   1.296362 A    
C42   C62   1.457383 S    
C31   C64   1.451578 S    
O17   V4    1.703112 S    
C52   H20   1.076206 S    
C20   C21   1.398377 A    
O9    V2    1.989827 S    
O7    V2    1.705913 S    
O4    V1    1.999918 S    
O3    V1    1.993792 S    
V1    O10   1.703724 S    
C5    C63   1.473954 S    
C34   C39   1.464807 S    
C18   C20   1.403448 A    
C33   H13   1.083106 S    
C9    H6    1.077047 S    
C16   H8    1.076152 S    
C20   H9    1.084551 S    
C40   C41   1.219269 T    
C22   H2    1.076989 S    
C36   H14   1.083886 S    
C6    C21   1.404214 A    
C3    C32   1.450772 S    
C33   C34   1.405044 A    
C37   C38   1.403911 A    
C23   C24   1.417169 A    
C45   C46   1.391398 A    
C57   C60   1.437314 A    
N6    C67   1.446620 S    
C56   C57   1.418011 A    
C17   H3    1.084393 S    
C60   N4    1.436940 S    
C23   C28   1.411481 A    
C10   C11   1.419408 A    
O16   V4    1.997334 S    
C54   H21   1.076553 S    
O9    C4    1.298469 A    
C44   C59   1.407429 A    
C49   C53   1.393231 A    
O11   C62   1.297183 A    
C14   H7    1.076075 S    
C44   C60   1.420270 A    
