data_mof_unit_25417.cif
_audit_creation_date              2012-12-10T17:55:55-0500
_audit_creation_method            fapswitch 2.2
_symmetry_space_group_name_H-M    P1
_symmetry_Int_Tables_number       1
_space_group_crystal_system       triclinic
_cell_length_a                    18.206767
_cell_length_b                    18.573878
_cell_length_c                    26.0775
_cell_angle_alpha                 90.130402
_cell_angle_beta                  90.036996
_cell_angle_gamma                 90.045038
_cell_volume                      8818.60777772

loop_
_atom_site_label
_atom_site_type_symbol
_atom_type_description
_atom_site_fract_x
_atom_site_fract_y
_atom_site_fract_z
_atom_type_partial_charge
C1    C     C_R   0.140881 0.860499 0.250023 0.549162
C2    C     C_R   0.271331 0.819807 0.235271 0.150022
C3    C     C_3   0.323413 0.101913 0.818440 0.025518
C4    C     C_3   0.220390 0.605957 0.655230 0.040991
C5    C     C_3   0.206366 0.620643 0.342402 0.029741
C6    C     C_3   0.799220 0.611052 0.665560 0.027034
C7    C     C_3   0.835788 0.597501 0.295988 0.019573
C8    C     C_3   0.138731 0.763663 0.637703 -0.070622
C9    C     C_3   0.071596 0.689260 0.231650 -0.047268
C10   C     C_3   0.926500 0.693125 0.777527 -0.038095
C11   C     C_3   0.828675 0.780046 0.372672 -0.057463
C12   C     C_3   0.579669 0.210443 0.179081 -0.034803
C13   C     C_R   0.727157 0.821846 0.758757 0.144326
C14   C     C_3   0.571960 0.189820 0.730313 -0.047462
C15   C     C_3   0.422494 0.194212 0.286023 -0.053479
C16   C     C_3   0.323487 0.291741 0.873891 -0.064549
C17   C     C_R   0.729467 0.818952 0.228757 0.144897
C18   C     C_R   0.771854 0.320500 0.261318 0.162933
C19   C     C_R   0.771558 0.320098 0.735779 0.147571
C20   C     C_R   0.226825 0.322341 0.257061 0.143461
C21   C     C_R   0.231098 0.316894 0.726472 0.149122
C22   C     C_R   0.822815 0.265100 0.262564 -0.150712
C23   C     C_R   0.822292 0.264326 0.734852 -0.164115
C24   C     C_R   0.175640 0.266701 0.258684 -0.176898
C25   C     C_R   0.142296 0.861720 0.748161 0.535127
C26   C     C_R   0.183388 0.258938 0.724098 -0.153868
C27   C     C_R   0.321956 0.763881 0.767841 -0.151640
C28   C     C_R   0.322028 0.764040 0.234329 -0.163604
C29   C     C_R   0.676194 0.766111 0.760517 -0.176954
C30   C     C_R   0.681056 0.761256 0.226608 -0.155066
C31   C     C_R   0.804039 0.196130 0.246165 -0.045089
C32   C     C_R   0.803274 0.195357 0.751237 -0.033686
C33   C     C_R   0.196463 0.195782 0.248448 -0.036044
C34   C     C_R   0.194161 0.198099 0.754402 -0.033306
C35   C     C_R   0.304527 0.696598 0.747313 -0.039032
C36   C     C_R   0.857137 0.862603 0.252119 0.544426
C37   C     C_R   0.303193 0.695253 0.251153 -0.033732
C38   C     C_R   0.696526 0.695671 0.748418 -0.037311
C39   C     C_R   0.695077 0.697547 0.253298 -0.035288
C40   C     C_R   0.933799 0.987210 0.025768 0.188592
C41   C     C_R   0.932814 0.007541 0.973885 0.145692
C42   C     C_R   0.067995 0.993798 0.025818 0.200928
C43   C     C_R   0.066853 0.013839 0.973787 0.203757
C44   C     C_R   0.434290 0.486719 0.525602 0.190389
C45   C     C_R   0.433215 0.507295 0.473824 0.146862
C46   C     C_R   0.568317 0.493021 0.525841 0.200689
C47   C     C_R   0.858954 0.860730 0.749625 0.547230
C48   C     C_R   0.567364 0.512928 0.473746 0.202030
C49   C     C_R   0.999770 0.011038 0.946306 -0.067745
C50   C     C_R   0.000817 0.989442 0.053446 -0.068176
C51   C     C_R   0.500132 0.510800 0.446271 -0.068186
C52   C     C_R   0.501093 0.489136 0.553408 -0.067862
C53   C     C_R   0.859668 0.139868 0.249301 0.540324
C54   C     C_R   0.859499 0.139613 0.750220 0.548708
C55   C     C_R   0.140452 0.139747 0.249768 0.533636
C56   C     C_R   0.140114 0.140151 0.750816 0.542762
C57   C     C_R   0.359243 0.639482 0.750054 0.545341
C58   C     C_R   0.640915 0.360546 0.750054 0.548912
C59   C     C_R   0.359479 0.639584 0.250201 0.548803
C60   C     C_R   0.640487 0.639696 0.749787 0.532759
C61   C     C_R   0.640560 0.639832 0.250354 0.544269
C62   C     C_R   0.000165 0.995281 0.110638 0.547991
C63   C     C_R   0.999953 0.004802 0.889274 0.547202
C64   C     C_R   0.500210 0.495237 0.610625 0.549358
C65   C     C_R   0.500028 0.504779 0.389261 0.545979
C66   C     C_R   0.001512 0.000269 0.388280 0.540329
C67   C     C_R   0.997296 0.999980 0.611500 0.531524
C68   C     C_R   0.501498 0.500285 0.888277 0.538685
C69   C     C_R   0.640658 0.360175 0.249938 0.558900
C70   C     C_R   0.497175 0.499965 0.111499 0.538223
C71   C     C_2   0.978472 0.056057 0.525706 0.269761
C72   C     C_2   0.963058 0.044314 0.471264 0.271162
C73   C     C_2   0.477495 0.555867 0.025685 0.268745
C74   C     C_2   0.462393 0.543868 0.971208 0.271616
C75   C     C_2   0.979079 0.997540 0.556870 0.264375
C76   C     C_2   0.009914 0.002998 0.443848 0.281325
C77   C     C_2   0.478888 0.497377 0.056863 0.265994
C78   C     C_2   0.509848 0.503106 0.943858 0.281859
C79   C     C_R   0.732998 0.182188 0.226663 0.267612
C80   C     C_R   0.357222 0.362375 0.751950 0.544841
C81   C     C_R   0.731739 0.181052 0.768770 0.249822
C82   C     C_R   0.269879 0.179610 0.236451 0.249648
C83   C     C_R   0.252737 0.195924 0.789801 0.259192
C84   C     C_R   0.237633 0.685983 0.721455 0.262381
C85   C     C_R   0.231836 0.681103 0.269107 0.250614
C86   C     C_R   0.769270 0.680080 0.734158 0.247452
C87   C     C_R   0.757819 0.692192 0.284762 0.256849
C88   C     C_R   0.188977 0.743615 0.716230 0.233878
C89   C     C_R   0.177784 0.734072 0.264138 0.213272
C90   C     C_R   0.822906 0.733573 0.738902 0.214196
C91   C     C_R   0.358977 0.360734 0.249688 0.554019
C92   C     C_R   0.804088 0.751882 0.289834 0.210030
C93   C     C_R   0.678362 0.234691 0.232079 0.238436
C94   C     C_R   0.677750 0.234070 0.763781 0.214103
C95   C     C_R   0.323309 0.233250 0.241679 0.214698
C96   C     C_R   0.301216 0.254498 0.792501 0.213247
C97   C     C_R   0.202214 0.808766 0.743466 -0.031420
C98   C     C_R   0.197659 0.804670 0.249504 -0.012392
C99   C     C_R   0.801963 0.805247 0.749403 -0.015743
C100  C     C_R   0.795881 0.811322 0.256655 -0.031289
C101  C     C_R   0.697911 0.304760 0.248524 -0.016101
C102  C     C_R   0.272121 0.820317 0.766068 0.161668
C103  C     C_R   0.697751 0.304793 0.749579 -0.012530
C104  C     C_R   0.301959 0.305319 0.249694 -0.013078
C105  C     C_R   0.295727 0.311177 0.756543 -0.029422
C106  C     C_3   0.887240 0.915738 0.545067 -0.111551
C107  C     C_3   0.100095 0.913892 0.446759 -0.059719
C108  C     C_3   0.387969 0.414639 0.044864 -0.113699
C109  C     C_3   0.602822 0.416541 0.945705 -0.056684
C110  C     C_3   0.726793 0.115379 0.153551 0.003503
C111  C     C_3   0.705560 0.119625 0.841509 0.030986
C112  C     C_3   0.305254 0.107635 0.170683 0.022442
H1    H     H_    0.878451 0.276227 0.275040 0.207495
H2    H     H_    0.779207 0.122041 0.478923 0.383245
H3    H     H_    0.509861 0.747951 0.005529 0.380579
H4    H     H_    0.277688 0.619729 0.978489 0.383002
H5    H     H_    0.851501 0.957013 0.526903 0.163649
H6    H     H_    0.874814 0.911725 0.586724 0.142874
H7    H     H_    0.873648 0.863073 0.527288 0.149793
H8    H     H_    0.126145 0.922930 0.408770 0.133787
H9    H     H_    0.055635 0.872803 0.444390 0.155262
H10   H     H_    0.143064 0.892091 0.472580 0.150651
H11   H     H_    0.351899 0.455492 0.026541 0.164104
H12   H     H_    0.878080 0.275190 0.722719 0.206365
H13   H     H_    0.375337 0.410617 0.086488 0.141380
H14   H     H_    0.375038 0.361794 0.027118 0.148272
H15   H     H_    0.628339 0.427938 0.907865 0.130482
H16   H     H_    0.560052 0.373868 0.942666 0.155793
H17   H     H_    0.646750 0.395547 0.971073 0.156126
H18   H     H_    0.703026 0.162937 0.133892 0.046360
H19   H     H_    0.700764 0.066679 0.136852 0.222488
H20   H     H_    0.786172 0.113696 0.144313 0.169892
H21   H     H_    0.657161 0.152714 0.852325 0.140880
H22   H     H_    0.756001 0.142050 0.859600 0.161140
H23   H     H_    0.118488 0.278897 0.266279 0.194530
H24   H     H_    0.696495 0.065341 0.857653 0.232723
H25   H     H_    0.347745 0.147257 0.158743 0.121757
H26   H     H_    0.254034 0.116165 0.148239 0.154052
H27   H     H_    0.327162 0.053791 0.160930 0.226972
H28   H     H_    0.370016 0.128651 0.838127 0.159900
H29   H     H_    0.336752 0.092659 0.777252 0.141073
H30   H     H_    0.317210 0.048866 0.837055 0.238338
H31   H     H_    0.266577 0.635947 0.636992 0.092665
H32   H     H_    0.167339 0.618361 0.636370 0.154280
H33   H     H_    0.230354 0.548089 0.648598 0.252823
H34   H     H_    0.135854 0.262355 0.699251 0.218806
H35   H     H_    0.157177 0.652648 0.353114 0.142172
H36   H     H_    0.256334 0.644674 0.360110 0.157695
H37   H     H_    0.198960 0.566424 0.359073 0.232012
H38   H     H_    0.841873 0.650077 0.652960 0.136745
H39   H     H_    0.746535 0.622200 0.645455 0.146567
H40   H     H_    0.818461 0.557108 0.653563 0.227663
H41   H     H_    0.885642 0.630425 0.302852 0.147240
H42   H     H_    0.831929 0.583922 0.254526 0.153468
H43   H     H_    0.844213 0.547493 0.318026 0.235098
H44   H     H_    0.187830 0.740412 0.618575 0.074391
H45   H     H_    0.375088 0.772481 0.785520 0.213073
H46   H     H_    0.145598 0.823062 0.639303 0.137052
H47   H     H_    0.090348 0.751992 0.613176 0.168366
H48   H     H_    0.097996 0.638223 0.218946 0.177022
H49   H     H_    0.071794 0.729318 0.199942 0.112663
H50   H     H_    0.013425 0.677021 0.240846 0.151936
H51   H     H_    0.899186 0.643440 0.791816 0.168630
H52   H     H_    0.923846 0.736466 0.807039 0.088719
H53   H     H_    0.985301 0.680292 0.771168 0.185198
H54   H     H_    0.782477 0.746588 0.387283 0.156218
H55   H     H_    0.810455 0.836713 0.367070 0.126960
H56   H     H_    0.377698 0.774813 0.221898 0.206746
H57   H     H_    0.872227 0.780425 0.402442 0.151000
H58   H     H_    0.581294 0.153817 0.165567 0.158044
H59   H     H_    0.609722 0.246489 0.152117 0.097808
H60   H     H_    0.521277 0.227329 0.178255 0.193135
H61   H     H_    0.598538 0.139004 0.717339 0.175370
H62   H     H_    0.572513 0.230392 0.698940 0.112590
H63   H     H_    0.513691 0.177408 0.739070 0.156835
H64   H     H_    0.392248 0.146441 0.300765 0.168508
H65   H     H_    0.418966 0.239544 0.313917 0.098198
H66   H     H_    0.481115 0.178880 0.282654 0.199114
H67   H     H_    0.619433 0.777984 0.769641 0.196030
H68   H     H_    0.275415 0.261879 0.889456 0.155163
H69   H     H_    0.307780 0.348140 0.864540 0.132764
H70   H     H_    0.365806 0.294115 0.904475 0.150952
H71   H     H_    0.297841 0.957000 0.715081 0.329133
H72   H     H_    0.289288 0.891029 0.137510 0.355109
H73   H     H_    0.690807 0.902827 0.850042 0.348814
H74   H     H_    0.695569 0.957780 0.274024 0.338668
H75   H     H_    0.785267 0.448364 0.198202 0.331570
H76   H     H_    0.790515 0.391100 0.638218 0.354485
H77   H     H_    0.188161 0.406221 0.346455 0.348027
H78   H     H_    0.631015 0.766709 0.204507 0.216167
H79   H     H_    0.192917 0.456842 0.767654 0.342792
H80   H     H_    0.757675 0.890346 0.023742 0.390139
H81   H     H_    0.832386 0.942800 0.912799 0.362277
H82   H     H_    0.252856 0.913976 0.023107 0.372702
H83   H     H_    0.237971 0.119297 0.976145 0.361480
H84   H     H_    0.259645 0.387839 0.522700 0.391697
H85   H     H_    0.332903 0.442378 0.412470 0.362269
H86   H     H_    0.752370 0.411361 0.523584 0.373246
H87   H     H_    0.740679 0.615048 0.475580 0.362654
H88   H     H_    0.014856 0.247407 0.505337 0.381114
O1    O     O_3   0.000000 0.000000 0.250030 -0.507249
O2    O     O_R   0.585480 0.353820 0.219950 -0.541112
O3    O     O_2   0.777512 0.461177 0.758535 -0.214849
O4    O     O_2   0.886671 0.409356 0.718508 -0.250951
O5    O     O_3   0.771805 0.429142 0.661452 -0.448092
O6    O     O_2   0.230156 0.460219 0.225524 -0.226747
O7    O     O_2   0.111983 0.414605 0.255881 -0.252357
O8    O     O_3   0.213283 0.440592 0.323364 -0.453214
O9    O     O_2   0.241693 0.405854 0.646957 -0.178544
O10   O     O_2   0.120300 0.394780 0.685600 -0.247180
O11   O     O_3   0.218572 0.468030 0.735150 -0.460633
O12   O     O_2   0.877542 0.885718 0.088340 -0.250406
O13   O     O_R   0.414520 0.353820 0.780050 -0.496260
O14   O     O_2   0.809919 0.999433 0.080687 -0.230007
O15   O     O_3   0.802459 0.907376 0.005935 -0.490775
O16   O     O_2   0.803320 0.076001 0.990412 -0.211685
O17   O     O_2   0.872236 0.109384 0.914245 -0.281264
O18   O     O_3   0.802617 0.987364 0.913594 -0.441740
O19   O     O_2   0.189910 0.015162 0.082497 -0.227760
O20   O     O_2   0.133619 0.895265 0.086246 -0.270464
O21   O     O_3   0.207157 0.928405 0.005256 -0.438229
O22   O     O_2   0.191128 0.008395 0.917415 -0.165330
O23   O     O_2   0.118407 0.119032 0.912426 -0.267640
O24   O     O_R   0.414520 0.353820 0.219950 -0.519845
O25   O     O_3   0.195385 0.097720 0.994078 -0.474919
O26   O     O_2   0.379011 0.384987 0.588217 -0.247490
O27   O     O_2   0.310087 0.497867 0.579383 -0.235645
O28   O     O_3   0.304681 0.404807 0.505179 -0.491823
O29   O     O_2   0.303467 0.575345 0.490422 -0.212337
O30   O     O_2   0.372148 0.608957 0.414236 -0.282982
O31   O     O_3   0.302846 0.486740 0.413580 -0.444622
O32   O     O_2   0.690291 0.513450 0.582592 -0.230540
O33   O     O_2   0.632762 0.394165 0.586634 -0.270850
O34   O     O_3   0.706844 0.426067 0.505633 -0.438989
O35   O     O_R   0.914530 0.146170 0.280090 -0.520650
O36   O     O_2   0.691250 0.504917 0.417039 -0.159450
O37   O     O_2   0.620866 0.617060 0.412235 -0.276097
O38   O     O_3   0.697812 0.594250 0.493652 -0.474589
O39   O     O_R   0.914530 0.146170 0.719910 -0.535420
O40   O     O_R   0.085470 0.146170 0.280090 -0.550285
O41   O     O_R   0.085470 0.146170 0.719910 -0.542502
O42   O     O_R   0.414530 0.646170 0.780090 -0.526122
O43   O     O_R   0.414530 0.646170 0.219910 -0.536388
O44   O     O_R   0.585470 0.646170 0.780090 -0.550692
O45   O     O_3   0.000000 0.000000 0.749970 -0.510814
O46   O     O_R   0.585470 0.646170 0.219910 -0.542383
O47   O     O_R   0.146180 0.085440 0.219990 -0.483597
O48   O     O_R   0.146180 0.085440 0.780010 -0.440713
O49   O     O_R   0.853820 0.085440 0.219990 -0.499903
O50   O     O_R   0.853820 0.085440 0.780010 -0.456130
O51   O     O_R   0.646180 0.585440 0.719990 -0.482797
O52   O     O_R   0.646180 0.585440 0.280010 -0.436069
O53   O     O_R   0.353820 0.585440 0.719990 -0.497380
O54   O     O_R   0.353820 0.585440 0.280010 -0.455363
O55   O     O_R   0.853820 0.914550 0.219980 -0.446792
O56   O     O_3   0.500000 0.500000 0.750030 -0.506515
O57   O     O_R   0.853820 0.914550 0.780020 -0.479345
O58   O     O_R   0.146180 0.914550 0.219980 -0.447959
O59   O     O_R   0.146180 0.914550 0.780020 -0.455069
O60   O     O_R   0.353820 0.414550 0.719980 -0.449249
O61   O     O_R   0.353820 0.414550 0.280020 -0.479152
O62   O     O_R   0.646180 0.414550 0.719980 -0.448359
O63   O     O_R   0.646180 0.414550 0.280020 -0.450447
O64   O     O_R   0.060720 0.999990 0.135450 -0.476704
O65   O     O_R   0.060720 0.999990 0.864550 -0.469329
O66   O     O_R   0.939280 0.999990 0.135450 -0.487444
O67   O     O_3   0.500000 0.500000 0.249970 -0.508486
O68   O     O_R   0.939280 0.999990 0.864550 -0.512250
O69   O     O_R   0.560720 0.499990 0.635450 -0.477591
O70   O     O_R   0.560720 0.499990 0.364550 -0.472310
O71   O     O_R   0.439280 0.499990 0.635450 -0.485642
O72   O     O_R   0.439280 0.499990 0.364550 -0.512607
O73   O     O_R   1.000000 0.939270 0.364600 -0.570154
O74   O     O_R   1.000000 0.939270 0.635400 -0.538165
O75   O     O_R   0.500000 0.439270 0.864600 -0.569375
O76   O     O_R   0.500000 0.439270 0.135400 -0.535889
O77   O     O_R   0.000000 0.060730 0.364620 -0.484639
O78   O     O_R   0.085480 0.853820 0.280050 -0.512504
O79   O     O_R   0.000000 0.060730 0.635380 -0.486606
O80   O     O_R   0.500000 0.560730 0.864620 -0.485399
O81   O     O_R   0.500000 0.560730 0.135380 -0.485583
O82   O     O_2   0.943739 0.173926 0.580322 -0.231297
O83   O     O_2   0.075025 0.146808 0.569815 -0.260545
O84   O     O_3   0.004183 0.198560 0.491939 -0.461542
O85   O     O_2   0.894956 0.145150 0.414817 -0.194214
O86   O     O_2   0.842051 0.023649 0.413740 -0.332783
O87   O     O_3   0.823849 0.102270 0.495411 -0.509459
O88   O     O_2   0.440992 0.672893 0.080653 -0.233319
O89   O     O_R   0.085480 0.853820 0.719950 -0.517614
O90   O     O_2   0.572674 0.648212 0.069544 -0.258153
O91   O     O_3   0.500200 0.698941 0.992067 -0.460648
O92   O     O_2   0.393234 0.643575 0.914344 -0.195643
O93   O     O_2   0.341681 0.521519 0.913713 -0.336738
O94   O     O_3   0.322525 0.600549 0.995075 -0.508123
O95   O     O_3   0.962297 0.930270 0.536444 -0.586434
O96   O     O_3   0.074369 0.979239 0.467652 -0.582597
O97   O     O_3   0.462924 0.429911 0.036439 -0.582897
O98   O     O_3   0.574457 0.479999 0.967830 -0.581156
O99   O     O_3   0.714294 0.115366 0.207167 -0.474658
O100  O     O_R   0.914520 0.853820 0.280050 -0.497115
O101  O     O_3   0.713126 0.113940 0.787732 -0.481642
O102  O     O_3   0.290805 0.110242 0.223874 -0.486173
O103  O     O_3   0.257391 0.140604 0.825324 -0.503771
O104  O     O_3   0.214994 0.617047 0.708602 -0.483516
O105  O     O_3   0.213514 0.614227 0.288631 -0.480225
O106  O     O_3   0.789474 0.611378 0.719296 -0.484904
O107  O     O_3   0.770923 0.631075 0.313713 -0.494209
O108  O     O_3   0.126419 0.733559 0.686858 -0.509402
O109  O     O_3   0.105758 0.717003 0.276026 -0.535336
O110  O     O_3   0.895787 0.715808 0.730638 -0.524498
O111  O     O_R   0.914520 0.853820 0.719950 -0.503888
O112  O     O_3   0.858172 0.750897 0.327157 -0.537061
O113  O     O_3   0.604912 0.214554 0.230233 -0.533549
O114  O     O_3   0.605579 0.216849 0.775112 -0.535367
O115  O     O_3   0.396689 0.214931 0.237250 -0.554176
O116  O     O_3   0.353615 0.256169 0.830941 -0.544173
O117  O     O_2   0.269758 0.917957 0.841047 -0.179880
O118  O     O_2   0.384982 0.906842 0.793736 -0.274319
O119  O     O_3   0.275911 0.970254 0.748540 -0.535427
O120  O     O_2   0.277955 0.960689 0.258053 -0.213733
O121  O     O_2   0.386415 0.908779 0.217178 -0.256352
O122  O     O_R   0.585480 0.353820 0.780050 -0.512690
O123  O     O_3   0.270758 0.928913 0.160944 -0.451505
O124  O     O_2   0.728660 0.960730 0.729342 -0.222768
O125  O     O_2   0.611856 0.913553 0.760967 -0.254868
O126  O     O_3   0.715308 0.937846 0.827117 -0.455777
O127  O     O_2   0.736759 0.912088 0.151032 -0.167603
O128  O     O_2   0.617531 0.900108 0.192773 -0.250813
O129  O     O_3   0.719529 0.970060 0.241093 -0.441040
O130  O     O_2   0.779802 0.428744 0.327928 -0.180778
O131  O     O_2   0.886536 0.411683 0.272293 -0.284823
O132  O     O_3   0.768673 0.466348 0.232045 -0.538037
S1    S     S_3+6 0.001096 0.145549 0.544095 0.084601
S2    S     S_3+6 0.804125 0.407251 0.719727 0.058569
S3    S     S_3+6 0.193719 0.411618 0.263883 0.061725
S4    S     S_3+6 0.201341 0.397279 0.696646 0.055348
S5    S     S_3+6 0.854589 0.944501 0.052155 0.101796
S6    S     S_3+6 0.851253 0.047386 0.948189 0.081312
S7    S     S_3+6 0.151063 0.957956 0.051928 0.097233
S8    S     S_3+6 0.144339 0.060048 0.947446 0.107976
S9    S     S_3+6 0.355660 0.443044 0.551565 0.102716
S10   S     S_3+6 0.351422 0.546867 0.448170 0.080340
S11   S     S_3+6 0.650939 0.456465 0.552140 0.096885
S12   S     S_3+6 0.879412 0.079412 0.446527 0.036706
S13   S     S_3+6 0.645715 0.557554 0.447192 0.108162
S14   S     S_3+6 0.498559 0.645695 0.044133 0.084287
S15   S     S_3+6 0.378389 0.577921 0.946304 0.035241
S16   S     S_3+6 0.302678 0.904969 0.789037 0.023434
S17   S     S_3+6 0.303886 0.906836 0.218975 0.051880
S18   S     S_3+6 0.693862 0.910730 0.767529 0.060514
S19   S     S_3+6 0.699154 0.901219 0.201586 0.068621
S20   S     S_3+6 0.804091 0.408257 0.274802 0.017916
Zn1   Zn    Zn3+2 0.000000 0.086760 0.292960 1.014819
Zn2   Zn    Zn3+2 0.586770 0.499990 0.292890 1.093973
Zn3   Zn    Zn3+2 0.413230 0.499990 0.707110 1.057279
Zn4   Zn    Zn3+2 0.413230 0.499990 0.292890 1.051625
Zn5   Zn    Zn3+2 0.000000 0.913240 0.292940 0.982013
Zn6   Zn    Zn3+2 0.000000 0.913240 0.707060 0.966728
Zn7   Zn    Zn3+2 0.500000 0.413240 0.792940 0.982107
Zn8   Zn    Zn3+2 0.500000 0.413240 0.207060 0.952213
Zn9   Zn    Zn3+2 0.000000 0.086760 0.707040 1.019778
Zn10  Zn    Zn3+2 0.500000 0.586760 0.792960 1.012417
Zn11  Zn    Zn3+2 0.500000 0.586760 0.207040 1.023776
Zn12  Zn    Zn3+2 0.086770 0.999990 0.207110 1.065619
Zn13  Zn    Zn3+2 0.086770 0.999990 0.792890 1.082906
Zn14  Zn    Zn3+2 0.913230 0.999990 0.207110 1.062406
Zn15  Zn    Zn3+2 0.913230 0.999990 0.792890 1.051235
Zn16  Zn    Zn3+2 0.586770 0.499990 0.707110 1.065666

loop_
_geom_bond_atom_site_label_1
_geom_bond_atom_site_label_2
_ccdc_geom_bond_type
C33   C55   S    
O1    Zn1   S    
C21   C26   A    
H84   O28   S    
C34   C56   S    
O33   S11   D    
O25   S8    S    
H72   O123  S    
C39   C87   A    
C12   H60   S    
C6    O106  S    
C32   C81   A    
C56   O48   A    
O31   S10   S    
O36   S13   D    
O126  S18   S    
O120  S17   D    
O3    S2    D    
C16   H70   S    
C9    O109  S    
O64   Zn12  S    
C71   S1    S    
C5    H37   S    
C46   S11   S    
C3    O103  S    
O128  S19   D    
C109  H15   S    
C22   H1    S    
H74   O129  S    
O118  S16   D    
O119  S16   S    
C112  O102  S    
O67   Zn8   S    
C88   C97   A    
O117  S16   D    
C5    H36   S    
O16   S6    D    
C106  H6    S    
C11   H55   S    
C17   C30   A    
C4    H33   S    
C41   C49   A    
C58   O122  A    
O131  S20   D    
O65   Zn13  S    
C39   C61   S    
C46   C48   A    
H76   O5    S    
C36   O55   A    
O93   S15   D    
C112  H26   S    
O42   Zn10  S    
O125  S18   D    
C86   C90   A    
C93   C101  A    
C107  O96   S    
C27   C35   A    
C111  O101  S    
H71   O119  S    
C19   C23   A    
C14   H63   S    
C18   S20   S    
C66   C76   S    
O1    Zn5   S    
C110  H19   S    
C63   O65   A    
C68   O80   A    
C6    H39   S    
C11   H57   S    
C69   C101  S    
C12   O113  S    
C79   O99   S    
H87   O38   S    
C107  H8    S    
C77   O97   S    
C1    O58   A    
O1    Zn12  S    
O30   S10   D    
O54   Zn4   S    
C84   C88   A    
O71   Zn3   S    
C81   O101  S    
C4    H32   S    
C35   C84   A    
O76   Zn8   S    
C83   O103  S    
O57   Zn15  S    
C43   S8    S    
O59   Zn13  S    
C61   O52   A    
O7    S3    D    
C80   C105  S    
O66   Zn14  S    
C14   O114  S    
C17   C100  A    
C28   H56   S    
O91   S14   S    
C86   O106  S    
O19   S7    D    
C29   H67   S    
C73   C77   D    
C66   O73   A    
C107  H10   S    
C108  H14   S    
C91   O24   A    
C8    H47   S    
O68   Zn15  S    
C90   O110  S    
H79   O11   S    
C74   S15   S    
H88   O84   S    
O69   Zn16  S    
C3    H29   S    
C106  O95   S    
C69   O63   A    
C108  O97   S    
C38   C86   A    
C14   H61   S    
C4    O104  S    
C111  H24   S    
O127  S19   D    
H77   O8    S    
O45   Zn6   S    
C47   C99   S    
C26   H34   S    
O73   Zn5   S    
O85   S12   D    
C20   S3    S    
C84   O104  S    
C15   O115  S    
C2    S17   S    
O88   S14   D    
C93   O113  S    
C29   C38   A    
O21   S7    S    
O56   Zn16  S    
C91   O61   A    
C44   C52   A    
O45   Zn13  S    
O1    Zn14  S    
O5    S2    S    
C70   C77   S    
O35   Zn1   S    
C21   S4    S    
O39   Zn9   S    
O4    S2    D    
C10   O110  S    
O82   S1    D    
C70   O76   A    
H83   O25   S    
O47   Zn12  S    
O44   Zn10  S    
O12   S5    D    
C9    H48   S    
C61   O46   A    
O67   Zn4   S    
C13   C99   A    
O90   S14   D    
O77   Zn1   S    
O61   Zn4   S    
O43   Zn11  S    
C9    H49   S    
C65   O70   A    
C3    H28   S    
C37   C59   S    
C42   C50   A    
C38   C60   S    
C25   C97   S    
C88   O108  S    
C15   H65   S    
C109  H17   S    
C67   C75   S    
O129  S19   S    
C67   O79   A    
C90   C99   A    
C33   C82   A    
C82   C95   A    
C18   C22   A    
O122  Zn7   S    
O83   S1    D    
C1    C98   S    
C111  H22   S    
C80   O13   A    
C27   H45   S    
C27   C102  A    
C89   C98   A    
C67   O74   A    
C71   C72   S    
C62   O66   A    
O67   Zn11  S    
C81   C94   A    
C68   O75   A    
C28   C37   A    
C83   C96   A    
C72   S12   S    
C30   C39   A    
O20   S7    D    
C30   H78   S    
O56   Zn10  S    
C25   O59   A    
C78   O98   S    
C109  O98   S    
O45   Zn15  S    
O2    Zn8   S    
O13   Zn7   S    
C82   O102  S    
C96   C105  A    
C10   H51   S    
C5    H35   S    
C106  H7    S    
C73   C74   S    
C102  S16   S    
C8    H46   S    
O41   Zn9   S    
H4    O94   S    
C15   H64   S    
O67   Zn2   S    
C13   C29   A    
O26   S9    D    
C54   O39   A    
C48   S13   S    
C36   O100  A    
O49   Zn14  S    
O79   Zn9   S    
C66   O77   A    
C47   O111  A    
C51   C65   S    
C65   O72   A    
C75   O95   S    
H75   O132  S    
C42   S7    S    
C40   S5    S    
C60   O51   A    
O52   Zn2   S    
C110  H20   S    
O40   Zn1   S    
C55   O40   A    
C63   O68   A    
C96   O116  S    
H80   O15   S    
C97   C102  A    
C6    H40   S    
O121  S17   D    
C87   C92   A    
C58   O62   A    
O15   S5    S    
O56   Zn3   S    
C32   C54   S    
O70   Zn2   S    
C12   H59   S    
H85   O31   S    
C68   C78   S    
C60   O44   A    
O89   Zn6   S    
O130  S20   D    
C52   C64   S    
C62   O64   A    
C85   C89   A    
C16   H69   S    
C11   O112  S    
C94   O114  S    
H73   O126  S    
C109  H16   S    
O45   Zn9   S    
C110  O99   S    
C54   O50   A    
C36   C100  S    
C23   H12   S    
O9    S4    D    
C17   S19   S    
O23   S8    D    
O92   S15   D    
C94   C103  A    
C106  H5    S    
H3    O91   S    
C42   C43   A    
C107  H9    S    
C108  H11   S    
C44   C45   A    
O81   Zn11  S    
C16   O116  S    
O6    S3    D    
C112  H25   S    
O32   S11   D    
O100  Zn5   S    
C76   O96   S    
O56   Zn7   S    
C70   O81   A    
C8    O108  S    
C24   C33   A    
O48   Zn13  S    
C35   C57   S    
C23   C32   A    
C95   O115  S    
C1    O78   A    
C14   H62   S    
O132  S20   S    
C5    O105  S    
C47   O57   A    
C40   C50   A    
O58   Zn12  S    
C110  H18   S    
O37   S13   D    
C64   O69   A    
C6    H38   S    
C7    H43   S    
C74   C78   D    
O60   Zn3   S    
O18   S6    S    
C21   C105  A    
C19   S2    S    
C56   O41   A    
O11   S4    S    
C49   C63   S    
C91   C104  S    
C72   C76   D    
C4    H31   S    
O34   S11   S    
C7    H42   S    
O111  Zn6   S    
C57   O42   A    
O78   Zn5   S    
C37   C85   A    
C79   C93   A    
H2    O87   S    
C45   C51   A    
C87   O107  S    
C44   S9    S    
C46   C52   A    
C59   O43   A    
O51   Zn16  S    
O74   Zn6   S    
O38   S13   S    
O63   Zn2   S    
C19   C103  A    
C26   C34   A    
C48   C51   A    
C20   C24   A    
C11   H54   S    
C80   O60   A    
O72   Zn4   S    
C108  H13   S    
C53   O35   A    
C13   S18   S    
C45   S10   S    
C55   O47   A    
C59   O54   A    
C57   O53   A    
C112  H27   S    
C3    H30   S    
O75   Zn7   S    
C41   S6    S    
O10   S4    D    
O46   Zn11  S    
H81   O18   S    
O28   S9    S    
C22   C31   A    
O55   Zn14  S    
H86   O34   S    
C43   C49   A    
C12   H58   S    
O94   S15   S    
O124  S18   D    
C25   O89   A    
C18   C101  A    
O22   S8    D    
C64   O71   A    
O50   Zn15  S    
C7    H41   S    
O14   S5    D    
O29   S10   D    
C53   O49   A    
C31   C53   S    
O84   S1    S    
C24   H23   S    
C40   C41   A    
C73   S14   S    
H82   O21   S    
C50   C62   S    
O80   Zn10  S    
C34   C83   A    
O86   S12   D    
C95   C104  A    
C92   C100  A    
C85   O105  S    
C92   O112  S    
C10   H52   S    
O87   S12   S    
O62   Zn16  S    
C89   O109  S    
C31   C79   A    
O17   S6    D    
C20   C104  A    
C111  H21   S    
C71   C75   D    
C10   H53   S    
O24   Zn8   S    
C9    H50   S    
C8    H44   S    
C7    O107  S    
C16   H68   S    
C69   O2    A    
O8    S3    S    
C2    C98   A    
C15   H66   S    
O123  S17   S    
C2    C28   A    
C58   C103  S    
O27   S9    D    
O53   Zn3   S    
