data_mof_unit_40791.cif
_audit_creation_date              2012-12-10T17:13:13-0500
_audit_creation_method            fapswitch 2.2
_symmetry_space_group_name_H-M    P1
_symmetry_Int_Tables_number       1
_space_group_crystal_system       triclinic
_cell_length_a                    11.811004
_cell_length_b                    13.026908
_cell_length_c                    13.858271
_cell_angle_alpha                 86.667545
_cell_angle_beta                  90.930987
_cell_angle_gamma                 98.512032
_cell_volume                      2105.12952139

loop_
_atom_site_label
_atom_site_type_symbol
_atom_type_description
_atom_site_fract_x
_atom_site_fract_y
_atom_site_fract_z
_atom_type_partial_charge
C1    C     C_R   0.479199 0.299778 0.498153 0.767767
C2    C     C_R   0.521469 0.700144 0.504784 0.765418
C3    C     C_R   0.554993 0.030186 0.516901 0.166581
C4    C     C_R   0.449074 0.970565 0.496579 0.162189
C5    C     C_R   0.035743 0.402624 0.595973 0.283389
C6    C     C_R   0.954764 0.552215 0.379446 0.243667
C7    C     C_R   0.157845 0.422296 0.593554 0.464615
C8    C     C_R   0.840178 0.562599 0.398966 0.469950
C9    C     C_R   0.147051 0.523504 0.445910 0.554091
C10   C     C_R   0.850532 0.467112 0.550314 0.553877
C11   C     C_R   0.024584 0.513792 0.452905 -0.328204
C12   C     C_R   0.969790 0.461822 0.534661 -0.250347
C13   C     C_R   0.518771 0.502170 0.681596 0.806547
C14   C     C_R   0.481903 0.500120 0.318313 0.812608
C15   C     C_1   0.472227 0.503835 0.215578 -0.137084
C16   C     C_1   0.531864 0.504898 0.783958 -0.161924
C17   C     C_2   0.458460 0.512249 0.025576 -0.170389
C18   C     C_2   0.550966 0.505883 0.973576 -0.150258
C19   C     C_1   0.542349 0.506150 0.870278 -0.004761
C20   C     C_1   0.465260 0.507755 0.128978 0.008914
C21   C     C_R   0.535531 0.813312 0.514627 -0.098948
C22   C     C_R   0.467206 0.186642 0.494016 -0.088790
C23   C     C_R   0.353393 0.018430 0.472701 -0.258381
C24   C     C_R   0.650453 0.981123 0.539372 -0.258456
C25   C     C_R   0.361776 0.126118 0.469651 -0.010486
C26   C     C_R   0.641587 0.872960 0.539242 -0.013201
C27   C     C_R   0.563328 0.137753 0.515668 -0.282817
C28   C     C_R   0.440144 0.863485 0.498179 -0.279801
Cu1   Cu    Cu3+1 0.615220 0.507680 0.492970 0.992897
Cu2   Cu    Cu3+1 0.384780 0.492320 0.507030 1.016113
H1    H     H_    0.632662 0.498158 0.008317 0.160634
H2    H     H_    0.376727 0.519791 0.990950 0.154085
H3    H     H_    0.358178 0.819864 0.485395 0.154435
H4    H     H_    0.644803 0.183122 0.532072 0.131663
H5    H     H_    0.272626 0.971866 0.454636 0.131359
H6    H     H_    0.731588 0.026953 0.557141 0.136030
N1    N     N_R   0.788370 0.519230 0.482390 -0.277716
N2    N     N_R   0.211630 0.480770 0.517610 -0.267410
O1    O     O_R   0.581500 0.354430 0.495010 -0.628382
O2    O     O_R   0.418500 0.645570 0.504990 -0.586314
O3    O     O_R   0.386890 0.341450 0.506880 -0.539296
O4    O     O_R   0.613110 0.658550 0.493120 -0.559654
O5    O     O_R   0.611060 0.507430 0.631070 -0.544697
O6    O     O_R   0.388940 0.492570 0.368930 -0.526819
O7    O     O_R   0.416450 0.494450 0.642940 -0.526837
O8    O     O_R   0.583550 0.505550 0.357060 -0.525613
C29   C     C_1   0.740746 0.826256 0.569913 0.244772
N3    N     N_1   0.820214 0.789087 0.594914 -0.297540
C30   C     C_1   0.262314 0.171318 0.436705 0.260078
N4    N     N_1   0.182796 0.207374 0.409880 -0.328772
O9    O     O_3   0.808810 0.446752 0.643850 -0.539199
C31   C     C_3   0.752805 0.343333 0.659901 0.201156
H7    H     H_    0.783102 0.287478 0.612657 0.127092
H8    H     H_    0.660140 0.338689 0.647750 0.153333
C32   C     C_3   0.764864 0.308894 0.766244 -0.778784
H9    H     H_    0.855935 0.315615 0.788942 0.284626
H10   H     H_    0.721520 0.358366 0.811930 0.233715
H11   H     H_    0.724064 0.226865 0.778815 0.186606
O10   O     O_3   0.202105 0.575353 0.366022 -0.520351
C33   C     C_3   0.208194 0.683696 0.373732 0.149577
H12   H     H_    0.226837 0.705724 0.448839 0.099522
H13   H     H_    0.126277 0.711145 0.353346 0.160609
C34   C     C_3   0.298976 0.739924 0.304756 -0.780158
H14   H     H_    0.276372 0.719541 0.229427 0.249399
H15   H     H_    0.303935 0.825307 0.309176 0.189979
H16   H     H_    0.383940 0.717206 0.323182 0.240394
O11   O     O_3   0.777107 0.609749 0.329370 -0.536024
C35   C     C_3   0.811222 0.718427 0.326701 0.100311
H17   H     H_    0.895472 0.739865 0.290584 0.162330
H18   H     H_    0.817155 0.748555 0.400407 0.142052
C36   C     C_3   0.723079 0.771267 0.269177 -0.771741
H19   H     H_    0.637792 0.751691 0.303659 0.241535
H20   H     H_    0.748641 0.856904 0.266731 0.195940
H21   H     H_    0.717053 0.745029 0.194183 0.248003
O12   O     O_3   0.224860 0.373978 0.660835 -0.549332
C37   C     C_3   0.179083 0.364405 0.755747 0.106347
H22   H     H_    0.132073 0.284731 0.769499 0.186798
H23   H     H_    0.121564 0.422743 0.768958 0.148348
C38   C     C_3   0.274748 0.379105 0.829957 -0.823952
H24   H     H_    0.310312 0.462704 0.829113 0.245166
H25   H     H_    0.240498 0.354807 0.903252 0.201205
H26   H     H_    0.342500 0.331986 0.813907 0.260935
O13   O     O_3   0.982584 0.317413 0.650280 -0.600996
C39   C     C_3   0.993134 0.226132 0.602349 0.041834
H27   H     H_    0.084337 0.218809 0.589760 0.188866
H28   H     H_    0.946701 0.225818 0.531714 0.143081
C40   C     C_3   0.942168 0.130853 0.664560 -0.828344
H29   H     H_    0.849866 0.131931 0.676904 0.239343
H30   H     H_    0.951702 0.059257 0.627600 0.217688
H31   H     H_    0.987189 0.129086 0.735449 0.248309
O14   O     O_3   0.995659 0.577982 0.286912 -0.565932
C41   C     C_3   0.983060 0.486960 0.234890 0.150060
H32   H     H_    0.890760 0.455620 0.225613 0.137484
H33   H     H_    0.027967 0.426012 0.271899 0.151253
C42   C     C_3   0.035464 0.513141 0.135364 -0.772047
H34   H     H_    0.128001 0.543590 0.142568 0.259292
H35   H     H_    0.025880 0.442223 0.093437 0.189900
H36   H     H_    0.991627 0.572798 0.095751 0.245998

loop_
_geom_bond_atom_site_label_1
_geom_bond_atom_site_label_2
_ccdc_geom_bond_type
C40   H29   S    
C34   H15   S    
Cu1   O4    S    
Cu2   O7    S    
C42   H34   S    
C39   C40   S    
C21   C26   A    
C42   H36   S    
C14   O8    A    
C6    C11   A    
C24   H6    S    
C10   N1    A    
C37   H23   S    
C35   C36   S    
C5    O13   S    
C6    O14   S    
C17   C20   S    
Cu2   N2    S    
C33   H13   S    
C18   C19   S    
C41   H32   S    
O13   C39   S    
C35   H17   S    
C22   C25   A    
C37   C38   S    
Cu2   O3    S    
C31   C32   S    
C34   H16   S    
O10   C33   S    
Cu1   O5    S    
Cu2   O6    S    
C3    C24   A    
C2    C21   S    
C10   O9    S    
C4    C28   A    
C31   H8    S    
C5    C7    A    
C27   H4    S    
C15   C20   T    
O11   C35   S    
C37   H22   S    
C5    C12   A    
O14   C41   S    
C38   H25   S    
C4    C23   A    
C7    O12   S    
C41   C42   S    
O9    C31   S    
C33   H12   S    
C9    O10   S    
O12   C37   S    
Cu1   Cu2   S    
C36   H21   S    
C29   N3    T    
Cu1   O1    S    
C32   H9    S    
C41   H33   S    
C17   C18   D    
Cu2   O2    S    
C39   H27   S    
C9    C11   A    
C10   C12   A    
C26   C29   S    
C1    O3    A    
C21   C28   A    
C28   H3    S    
C23   H5    S    
C22   C27   A    
C32   H10   S    
C33   C34   S    
C38   H24   S    
C32   H11   S    
C8    N1    A    
Cu1   N1    S    
C3    C4    A    
C13   O5    A    
C31   H7    S    
C14   O6    A    
C24   C26   A    
C38   H26   S    
C6    C8    A    
C11   C12   A    
C42   H35   S    
Cu1   O8    S    
C40   H30   S    
C13   C16   S    
C36   H19   S    
C13   O7    A    
C2    O4    A    
C16   C19   T    
C3    C27   A    
C9    N2    A    
C7    N2    A    
C23   C25   A    
C25   C30   S    
C1    O1    A    
C34   H14   S    
C2    O2    A    
C1    C22   S    
C8    O11   S    
C35   H18   S    
C30   N4    T    
C40   H31   S    
C36   H20   S    
C17   H2    S    
C14   C15   S    
C39   H28   S    
C18   H1    S    
