data_mof_unit_15078.cif
_audit_creation_date              2012-12-11T15:27:27-0500
_audit_creation_method            fapswitch 2.2
_symmetry_space_group_name_H-M    P1
_symmetry_Int_Tables_number       1
_space_group_crystal_system       triclinic
_cell_length_a                    14.178589
_cell_length_b                    14.233184
_cell_length_c                    27.36426
_cell_angle_alpha                 90.549559
_cell_angle_beta                  89.829922
_cell_angle_gamma                 119.838384
_cell_volume                      4789.97745811

loop_
_atom_site_label
_atom_site_type_symbol
_atom_type_description
_atom_site_fract_x
_atom_site_fract_y
_atom_site_fract_z
_atom_type_partial_charge
C1    C     C_R   0.236571 0.787311 0.568949 0.541005
C2    C     C_1   0.700044 0.852133 0.860989 -0.041593
C3    C     C_R   0.522462 0.362482 0.230057 -0.100274
C4    C     C_R   0.424093 0.264657 0.231027 -0.120080
C5    C     C_R   0.338790 0.254556 0.260371 -0.091661
C6    C     C_R   0.775500 0.035466 0.785301 0.128284
C7    C     C_R   0.802995 0.084110 0.832166 -0.074944
C8    C     C_R   0.772980 0.159683 0.846524 -0.116097
C9    C     C_R   0.723881 0.195338 0.813079 -0.101384
C10   C     C_R   0.712703 0.162142 0.764534 -0.103610
C11   C     C_R   0.739598 0.084090 0.750325 -0.093700
C12   C     C_R   0.954621 0.734037 0.780575 0.129198
C13   C     C_1   0.137169 0.831422 0.861586 -0.061324
C14   C     C_R   0.904556 0.700654 0.826641 -0.057695
C15   C     C_R   0.825026 0.593531 0.834229 -0.110872
C16   C     C_R   0.788868 0.519730 0.795298 -0.098088
C17   C     C_R   0.822423 0.555958 0.748082 -0.112782
C18   C     C_R   0.902500 0.663134 0.740352 -0.118070
C19   C     C_R   0.254858 0.207244 0.768478 0.146474
C20   C     C_R   0.290867 0.189160 0.813514 -0.056149
C21   C     C_R   0.398498 0.215528 0.819883 -0.116197
C22   C     C_R   0.469941 0.249905 0.780355 -0.110202
C23   C     C_R   0.432023 0.252128 0.733995 -0.118125
C24   C     C_1   0.137117 0.263563 0.854782 -0.054467
C25   C     C_R   0.325394 0.230055 0.727704 -0.117797
C26   C     C_R   0.577586 0.621627 0.828527 0.055855
C27   C     C_R   0.581963 0.526024 0.822680 -0.020929
C28   C     C_R   0.560246 0.455727 0.861926 -0.081565
C29   C     C_R   0.519707 0.472068 0.905624 -0.115316
C30   C     C_R   0.499050 0.557733 0.909743 -0.122582
C31   C     C_R   0.526806 0.631587 0.871620 -0.071772
C32   C     C_R   0.363539 0.929926 0.834850 0.057276
C33   C     C_R   0.454470 0.033735 0.839507 -0.037007
C34   C     C_R   0.514100 0.068664 0.883121 -0.096637
C35   C     C_1   0.610754 0.789650 0.660927 -0.014996
C36   C     C_R   0.491846 0.996227 0.921086 -0.111947
C37   C     C_R   0.410973 0.888594 0.915149 -0.126544
C38   C     C_R   0.347643 0.855221 0.872636 -0.080835
C39   C     C_R   0.042116 0.400765 0.831932 0.048138
C40   C     C_R   0.942917 0.399836 0.830064 -0.028093
C41   C     C_R   0.902119 0.426527 0.871389 -0.094909
C42   C     C_R   0.965352 0.467250 0.913363 -0.118738
C43   C     C_R   0.069501 0.480938 0.914219 -0.116948
C44   C     C_R   0.107719 0.447829 0.874256 -0.081394
C45   C     C_1   0.206440 0.823521 0.660487 -0.041682
C46   C     C_1   0.175780 0.387099 0.659721 -0.061571
C47   C     C_1   0.589362 0.784314 0.618134 0.012364
C48   C     C_1   0.214122 0.808216 0.617634 0.000586
C49   C     C_1   0.193422 0.410459 0.617389 -0.007854
C50   C     C_R   0.077251 0.172409 0.941298 0.566604
C51   C     C_R   0.213323 0.450605 0.568921 0.542540
C52   C     C_R   0.780847 0.886635 0.949424 0.551145
C53   C     C_R   0.112529 0.893102 0.949287 0.565605
C54   C     C_R   0.612711 0.802671 0.385488 0.052944
C55   C     C_R   0.192770 0.809301 0.386595 0.050375
C56   C     C_R   0.185709 0.378129 0.387931 0.050499
C57   C     C_R   0.610956 0.888308 0.361114 -0.178055
C58   C     C_R   0.107288 0.722238 0.361304 -0.182034
C59   C     C_R   0.270481 0.376164 0.362300 -0.184344
C60   C     C_R   0.638460 0.907438 0.311853 -0.027477
C61   C     C_R   0.080882 0.733917 0.313455 0.013272
C62   C     C_R   0.549631 0.763144 0.569112 0.539798
C63   C     C_R   0.256119 0.338864 0.314059 0.011650
C64   C     C_R   0.666760 0.838159 0.286652 -0.023656
C65   C     C_R   0.142859 0.835242 0.290574 0.031900
C66   C     C_R   0.154403 0.304390 0.291216 0.029584
C67   C     C_R   0.233788 0.787239 0.431778 0.567368
C68   C     C_R   0.211547 0.444862 0.432278 0.568719
C69   C     C_R   0.553433 0.765440 0.431749 0.565530
C70   C     C_R   0.679040 0.760016 0.312028 -0.136885
C71   C     C_R   0.222517 0.923870 0.317073 -0.138194
C72   C     C_R   0.067338 0.297193 0.318482 -0.139045
C73   C     C_3   0.648336 0.715643 0.793498 -0.153685
C74   C     C_R   0.653930 0.742430 0.361593 0.238087
C75   C     C_R   0.247229 0.912625 0.365161 0.232911
C76   C     C_R   0.080960 0.330940 0.367081 0.236796
C77   C     C_R   0.788586 0.862240 0.219201 -0.177970
C78   C     C_R   0.114962 0.942318 0.228672 -0.186659
C79   C     C_R   0.039004 0.179568 0.226463 -0.188052
C80   C     C_R   0.814634 0.872172 0.170444 -0.147504
C81   C     C_R   0.108906 0.968104 0.180874 -0.186982
C82   C     C_R   0.015647 0.149438 0.178115 -0.182616
C83   C     C_R   0.642188 0.858671 0.149495 -0.073952
C84   C     C_3   0.275354 0.914597 0.796891 -0.163077
C85   C     C_R   0.116387 0.810789 0.152538 -0.092909
C86   C     C_R   0.188142 0.301905 0.154046 -0.099747
C87   C     C_R   0.611124 0.840685 0.198615 0.271525
C88   C     C_R   0.132559 0.788757 0.200853 0.265608
C89   C     C_R   0.205831 0.341321 0.202304 0.262672
C90   C     C_R   0.687580 0.846753 0.234002 0.018867
C91   C     C_R   0.127573 0.853335 0.239200 0.068627
C92   C     C_R   0.134540 0.274822 0.239198 0.069812
C93   C     C_R   0.743695 0.874129 0.135715 -0.013874
C94   C     C_R   0.103945 0.900553 0.142988 0.001470
C95   C     C_3   0.062618 0.334484 0.792264 -0.161732
C96   C     C_R   0.094262 0.204133 0.142678 -0.006906
C97   C     C_R   0.069886 0.160926 0.093563 0.534929
C98   C     C_R   0.778006 0.884464 0.085396 0.526232
C99   C     C_R   0.090445 0.929277 0.093814 0.530292
C100  C     C_3   0.550255 0.829229 0.738980 0.158579
C101  C     C_3   0.151799 0.711535 0.734279 0.159699
C102  C     C_3   0.276350 0.431459 0.737756 0.161660
C103  C     C_3   0.750550 0.886210 0.723017 -0.238084
C104  C     C_3   0.112416 0.868310 0.724968 -0.219823
C105  C     C_3   0.121956 0.238532 0.715999 -0.224829
C106  C     C_3   0.611848 0.692053 0.738484 -0.236542
C107  C     C_3   0.768119 0.923687 0.777683 0.219363
C108  C     C_3   0.067996 0.837603 0.778142 0.218121
C109  C     C_3   0.148312 0.213118 0.767515 0.211662
C110  C     C_1   0.731506 0.868203 0.902545 -0.023340
C111  C     C_1   0.127037 0.854757 0.902953 -0.022076
C112  C     C_1   0.112752 0.223785 0.894820 -0.009094
C113  C     C_3   0.630313 0.798681 0.713949 0.020265
C114  C     C_3   0.194339 0.828155 0.713817 -0.004523
C115  C     C_3   0.163755 0.361612 0.711825 -0.003817
C116  C     C_3   0.564242 0.833289 0.795771 0.085653
C117  C     C_3   0.302158 0.907013 0.741712 -0.231222
C118  C     C_3   0.151387 0.714878 0.791162 0.139780
C119  C     C_3   0.263376 0.412677 0.793951 0.143350
C120  C     C_3   0.670624 0.832332 0.808712 0.058464
C121  C     C_3   0.155904 0.822535 0.808818 0.027535
C122  C     C_3   0.154205 0.305073 0.804094 0.024771
C123  C     C_R   0.632311 0.996468 0.287080 0.053465
C124  C     C_R   0.536255 0.002272 0.289217 -0.060366
C125  C     C_R   0.527622 0.081219 0.262873 -0.079063
C126  C     C_R   0.614613 0.154931 0.234380 -0.090475
C127  C     C_R   0.711248 0.151409 0.232977 -0.114715
C128  C     C_3   0.080359 0.383934 0.739664 -0.232998
C129  C     C_R   0.720507 0.073125 0.259529 -0.080407
C130  C     C_R   0.991600 0.638575 0.287910 0.077389
C131  C     C_R   0.990218 0.538983 0.287096 -0.044468
C132  C     C_R   0.911367 0.451469 0.260026 -0.094497
C133  C     C_R   0.833534 0.462514 0.233468 -0.097428
C134  C     C_R   0.833009 0.560386 0.234715 -0.117551
C135  C     C_R   0.910486 0.647585 0.262409 -0.089567
C136  C     C_R   0.350292 0.343586 0.287899 0.079421
C137  C     C_R   0.450756 0.440707 0.287739 -0.045366
C138  C     C_R   0.536204 0.449837 0.258918 -0.096451
Cr1   Cr    Cr6+3 0.164410 0.584450 0.499910 1.051018
Cr2   Cr    Cr6+3 0.415550 0.579960 0.499910 1.050666
Cr3   Cr    Cr6+3 0.420040 0.835590 0.499910 1.054782
Cr4   Cr    Cr6+3 0.156760 0.076070 0.017830 1.016218
Cr5   Cr    Cr6+3 0.923930 0.080690 0.017830 1.004463
Cr6   Cr    Cr6+3 0.919310 0.843240 0.017830 1.007318
H1    H     H_    0.493311 0.761121 0.811428 0.139199
H2    H     H_    0.847717 0.866796 0.245545 0.118552
H3    H     H_    0.112338 0.993521 0.257573 0.114425
H4    H     H_    0.982407 0.128111 0.254015 0.111340
H5    H     H_    0.892258 0.881579 0.159651 0.126526
H6    H     H_    0.107676 0.040651 0.173280 0.113157
H7    H     H_    0.939546 0.078900 0.168578 0.125194
H8    H     H_    0.585885 0.856022 0.122099 0.126143
H9    H     H_    0.117176 0.760946 0.122540 0.114589
H10   H     H_    0.244606 0.348522 0.125385 0.116736
H11   H     H_    0.705379 0.710324 0.292686 0.089027
H12   H     H_    0.224436 0.711505 0.802804 0.161649
H13   H     H_    0.268008 0.001993 0.299654 0.085884
H14   H     H_    0.988826 0.268720 0.301329 0.086039
H15   H     H_    0.565521 0.908551 0.725421 0.169093
H16   H     H_    0.068497 0.656777 0.720704 0.145822
H17   H     H_    0.336294 0.409847 0.723373 0.144911
H18   H     H_    0.801630 0.849350 0.713590 0.130312
H19   H     H_    0.156411 0.958212 0.721674 0.157056
H20   H     H_    0.032096 0.194845 0.710548 0.132709
H21   H     H_    0.781485 0.954038 0.696953 0.097953
H22   H     H_    0.048186 0.843753 0.696963 0.100779
H23   H     H_    0.262435 0.484124 0.809951 0.173937
H24   H     H_    0.146700 0.203626 0.685719 0.107244
H25   H     H_    0.525181 0.628280 0.735913 0.206709
H26   H     H_    0.362517 0.880256 0.738244 0.186702
H27   H     H_    0.110609 0.472126 0.742267 0.226858
H28   H     H_    0.659271 0.660180 0.718992 0.098414
H29   H     H_    0.340272 0.988931 0.725110 0.115191
H30   H     H_    0.001577 0.347131 0.719618 0.103455
H31   H     H_    0.568123 0.920759 0.850434 0.339872
H32   H     H_    0.071161 0.625526 0.844979 0.331480
H33   H     H_    0.343697 0.407803 0.849116 0.328429
H34   H     H_    0.727439 0.718300 0.794883 0.121548
H35   H     H_    0.393823 0.750170 0.750971 0.376661
H36   H     H_    0.188324 0.632684 0.685930 0.334376
H37   H     H_    0.350187 0.556696 0.695692 0.350371
H38   H     H_    0.467043 0.943810 0.310051 0.127946
H39   H     H_    0.452880 0.084050 0.264006 0.103617
H40   H     H_    0.606996 0.214230 0.213073 0.096086
H41   H     H_    0.778554 0.208478 0.210871 0.106207
H42   H     H_    0.795468 0.070788 0.257862 0.102273
H43   H     H_    0.052038 0.529960 0.306183 0.131282
H44   H     H_    0.911885 0.375735 0.258970 0.103870
H45   H     H_    0.274830 0.991741 0.799500 0.117727
H46   H     H_    0.774192 0.395537 0.211625 0.097001
H47   H     H_    0.773436 0.569220 0.213706 0.104588
H48   H     H_    0.908682 0.722750 0.263051 0.095561
H49   H     H_    0.461626 0.510825 0.308319 0.127142
H50   H     H_    0.612125 0.525556 0.258192 0.097008
H51   H     H_    0.587743 0.371051 0.206641 0.095632
H52   H     H_    0.413282 0.197110 0.208484 0.111490
H53   H     H_    0.262736 0.178745 0.260359 0.095341
H54   H     H_    0.488205 0.784738 0.243211 0.338285
H55   H     H_    0.155943 0.670762 0.180279 0.328472
H56   H     H_    0.984754 0.257068 0.790281 0.117854
H57   H     H_    0.331479 0.478311 0.183910 0.325638
H58   H     H_    0.694327 0.629961 0.364085 0.315848
H59   H     H_    0.355957 0.066112 0.370369 0.316707
H60   H     H_    0.927375 0.287651 0.373599 0.317510
H61   H     H_    0.842118 0.059326 0.858800 0.149639
H62   H     H_    0.787508 0.190361 0.883700 0.117208
H63   H     H_    0.699743 0.253335 0.824188 0.071507
H64   H     H_    0.679609 0.194242 0.738144 0.096004
H65   H     H_    0.723307 0.058476 0.712698 0.074392
H66   H     H_    0.930697 0.755434 0.857584 0.149903
H67   H     H_    0.583184 0.937640 0.379727 0.150276
H68   H     H_    0.792647 0.567605 0.870548 0.107639
H69   H     H_    0.729374 0.435721 0.801233 0.075088
H70   H     H_    0.788706 0.500108 0.717509 0.102004
H71   H     H_    0.927862 0.683873 0.703030 0.077494
H72   H     H_    0.238363 0.160787 0.844926 0.125849
H73   H     H_    0.426368 0.209389 0.855823 0.101570
H74   H     H_    0.553834 0.271133 0.785360 0.078646
H75   H     H_    0.486515 0.274919 0.703033 0.106507
H76   H     H_    0.305043 0.240533 0.691118 0.082822
H77   H     H_    0.867949 0.867653 0.787330 0.361435
H78   H     H_    0.063032 0.643370 0.378177 0.144774
H79   H     H_    0.124324 0.982454 0.808094 0.348832
H80   H     H_    0.998521 0.115725 0.785793 0.359086
H81   H     H_    0.607922 0.509444 0.788191 0.113464
H82   H     H_    0.576399 0.389436 0.858761 0.085297
H83   H     H_    0.501711 0.416878 0.935700 0.108898
H84   H     H_    0.464235 0.568827 0.943057 0.108154
H85   H     H_    0.512869 0.698286 0.878379 0.083399
H86   H     H_    0.478007 0.087552 0.809136 0.119002
H87   H     H_    0.578069 0.151766 0.887506 0.091039
H88   H     H_    0.538960 0.022803 0.954507 0.110698
H89   H     H_    0.349964 0.408573 0.379055 0.143212
H90   H     H_    0.394881 0.831402 0.944171 0.106094
H91   H     H_    0.281899 0.772864 0.872580 0.080978
H92   H     H_    0.895209 0.373772 0.796923 0.120826
H93   H     H_    0.820771 0.414390 0.871270 0.089640
H94   H     H_    0.934122 0.489279 0.944932 0.110156
H95   H     H_    0.119623 0.514042 0.946542 0.115440
H96   H     H_    0.186421 0.455159 0.878977 0.086874
O1    O     O_R   0.137310 0.468260 0.552980 -0.505775
O2    O     O_R   0.139940 0.470480 0.446230 -0.443928
O3    O     O_R   0.529520 0.669460 0.446230 -0.443786
O4    O     O_R   0.330540 0.860060 0.446230 -0.444345
O5    O     O_R   0.176560 0.690850 0.450770 -0.523787
O6    O     O_R   0.309150 0.485710 0.450770 -0.522528
O7    O     O_R   0.514290 0.823440 0.450770 -0.525104
O8    O     O_3   0.333333 0.666667 0.499990 -0.302998
O9    O     O_3   0.000000 0.000000 0.017910 -0.291311
O10   O     O_R   0.149710 0.171070 0.967700 -0.491949
O11   O     O_R   0.828930 0.978640 0.967700 -0.518067
O12   O     O_R   0.531740 0.669050 0.552980 -0.509159
O13   O     O_R   0.021360 0.850290 0.967700 -0.496926
O14   O     O_R   0.178510 0.985930 0.071830 -0.501989
O15   O     O_R   0.014070 0.192580 0.071830 -0.487037
O16   O     O_R   0.807420 0.821490 0.071830 -0.515001
O17   O     O_R   0.147830 0.173300 0.066650 -0.502002
O18   O     O_R   0.826700 0.974530 0.066650 -0.517875
O19   O     O_R   0.025470 0.852170 0.066650 -0.496716
O20   O     O_3   0.564251 0.924546 0.814513 -0.732739
O21   O     O_3   0.060481 0.623267 0.809164 -0.718982
O22   O     O_3   0.353180 0.410839 0.813197 -0.717421
O23   O     O_R   0.330950 0.862690 0.552980 -0.499726
O24   O     O_3   0.443704 0.753789 0.724839 -0.676699
O25   O     O_3   0.216913 0.668743 0.718059 -0.689220
O26   O     O_3   0.316569 0.541620 0.728665 -0.670436
O27   O     O_3   0.506297 0.815658 0.210008 -0.680803
O28   O     O_3   0.155978 0.707765 0.211174 -0.680455
O29   O     O_3   0.289748 0.443628 0.213944 -0.689532
O30   O     O_3   0.665394 0.664657 0.386545 -0.673538
O31   O     O_3   0.325809 0.000659 0.391074 -0.673017
O32   O     O_3   0.994193 0.322194 0.393958 -0.671339
O33   O     O_3   0.867045 0.935198 0.794135 -0.677496
O34   O     O_R   0.180530 0.983530 0.965090 -0.507175
O35   O     O_3   0.053796 0.921425 0.797697 -0.666488
O36   O     O_3   0.064576 0.110525 0.780806 -0.659681
O37   O     O_R   0.016470 0.197000 0.965090 -0.499499
O38   O     O_R   0.803000 0.819470 0.965090 -0.505320
O39   O     O_R   0.174120 0.688790 0.549730 -0.504881
O40   O     O_R   0.311210 0.485330 0.549730 -0.503506
O41   O     O_R   0.514670 0.825880 0.549730 -0.496729

loop_
_geom_bond_atom_site_label_1
_geom_bond_atom_site_label_2
_ccdc_geom_bond_type
C5    C136  A    
C83   C87   A    
Cr6   O9    S    
C57   H67   S    
C40   C41   A    
C126  C127  A    
Cr4   O10   S    
C119  H23   S    
C125  H39   S    
C41   C42   A    
Cr2   O40   S    
C126  H40   S    
C18   H71   S    
Cr2   O12   S    
C62   O41   A    
C64   C90   S    
C108  C121  S    
C72   C76   A    
C108  O35   S    
C35   C47   T    
H77   O33   S    
C132  H44   S    
C104  H19   S    
C98   O16   A    
H36   O25   S    
C74   O30   S    
C97   O17   A    
C7    C8    A    
C59   H89   S    
Cr6   O16   S    
C46   C49   T    
C28   C29   A    
C26   C27   A    
C37   C38   A    
Cr5   O11   S    
C46   C115  S    
Cr2   O6    S    
C101  C118  S    
C20   H72   S    
Cr1   O39   S    
C36   C37   A    
C103  C113  S    
Cr6   O38   S    
C1    O39   A    
C99   O14   A    
C116  H1    S    
C109  C122  S    
C45   C48   T    
C119  O22   S    
C16   C17   A    
C52   C110  S    
C15   C16   A    
C83   C93   A    
C44   H96   S    
C104  C108  S    
Cr5   O37   S    
Cr3   O8    S    
C72   H14   S    
C4    H52   S    
H35   O24   S    
C107  O33   S    
Cr1   O2    S    
Cr6   O19   S    
C10   H64   S    
C101  O25   S    
C102  C115  S    
C127  H41   S    
C21   C22   A    
C1    O23   A    
C117  H26   S    
C69   O7    A    
C66   C72   A    
C103  C107  S    
C100  O24   S    
C101  H16   S    
C68   O2    A    
C84   C117  S    
C49   C51   S    
C100  C116  S    
C70   C74   A    
C6    C107  S    
C118  H12   S    
C32   C38   A    
C54   C69   S    
C9    C10   A    
Cr4   O34   S    
C82   H7    S    
C116  O20   S    
C131  H43   S    
C40   H92   S    
H31   O20   S    
C97   O15   A    
C55   C75   A    
C53   C111  S    
C58   C61   A    
C62   O12   A    
C125  C126  A    
C22   H74   S    
C63   C66   A    
C26   C31   A    
Cr4   O9    S    
C54   C74   A    
C129  H42   S    
C123  C129  A    
C101  C114  S    
Cr3   O23   S    
C51   O1    A    
Cr5   O18   S    
C53   O13   A    
C47   C62   S    
Cr1   O1    S    
Cr1   O8    S    
C45   C114  S    
C50   C112  S    
C19   C109  S    
C133  H46   S    
C33   C34   A    
C6    C7    A    
C23   H75   S    
C138  H50   S    
C42   H94   S    
C80   H5    S    
H80   O36   S    
C137  H49   S    
C77   C90   A    
Cr3   O4    S    
C82   C96   A    
C14   H66   S    
C106  C113  S    
C70   H11   S    
C58   H78   S    
C30   H84   S    
C123  C124  A    
C77   H2    S    
C9    H63   S    
C28   H82   S    
C39   C40   A    
C12   C108  S    
C2    C120  S    
C8    C9    A    
C57   C60   A    
C66   C92   S    
C95   C128  S    
C37   H90   S    
C84   C121  S    
C95   H56   S    
C26   C73   S    
C3    H51   S    
C115  C128  S    
C116  C120  S    
C118  C121  S    
C134  H47   S    
C60   C123  S    
H33   O22   S    
C127  C129  A    
C124  H38   S    
C29   C30   A    
C132  C133  A    
C135  H48   S    
C13   C121  S    
C85   C94   A    
C55   C67   S    
C50   O37   A    
C88   C91   A    
C99   O19   A    
C36   H88   S    
Cr3   O41   S    
C96   C97   S    
C24   C122  S    
C17   C18   A    
C76   O32   S    
C105  H20   S    
C84   H45   S    
C3    C138  A    
H57   O29   S    
C86   C96   A    
C89   C92   A    
C8    H62   S    
H37   O26   S    
C34   H87   S    
C39   C95   S    
C79   C92   A    
C134  C135  A    
H59   O31   S    
C78   H3    S    
C104  C114  S    
C73   H34   S    
C61   C130  S    
C95   C122  S    
C53   O34   A    
C130  C135  A    
C12   C14   A    
C131  C132  A    
C103  H21   S    
C64   C70   A    
C56   C76   A    
C6    C11   A    
C43   C44   A    
C133  C134  A    
C43   H95   S    
C106  H25   S    
C89   O29   S    
C59   C63   A    
C55   C58   A    
C42   C43   A    
C29   H83   S    
C39   C44   A    
C3    C4    A    
C15   H68   S    
H60   O32   S    
C107  C120  S    
C38   H91   S    
C85   C88   A    
C52   O38   A    
C83   H8    S    
C137  C138  A    
C77   C80   A    
C117  H29   S    
C65   C91   S    
C105  C109  S    
C2    C110  T    
C103  H18   S    
C27   H81   S    
Cr5   O9    S    
Cr2   O8    S    
C119  C122  S    
C105  C115  S    
C22   C23   A    
C88   O28   S    
C100  C113  S    
C41   H93   S    
C32   C84   S    
C69   O3    A    
C4    C5    A    
C86   C89   A    
C50   O10   A    
C79   C82   A    
C5    H53   S    
C67   O4    A    
C56   C59   A    
C1    C48   S    
H55   O28   S    
C78   C91   A    
Cr6   O13   S    
C128  H30   S    
Cr4   O14   S    
C105  H24   S    
C60   C64   A    
Cr2   O3    S    
C68   O6    A    
C63   C136  S    
C19   C20   A    
C17   H70   S    
C130  C131  A    
C86   H10   S    
H54   O27   S    
C13   C111  T    
C56   C68   S    
C85   H9    S    
C32   C33   A    
C71   C75   A    
C81   C94   A    
C67   O5    A    
C100  H15   S    
C98   O18   A    
C73   C106  S    
C30   C31   A    
C118  O21   S    
C75   O31   S    
C94   C99   S    
C102  H17   S    
C31   H85   S    
Cr3   O7    S    
C51   O40   A    
C35   C113  S    
C79   H4    S    
C34   C36   A    
C78   C81   A    
H58   O30   S    
C16   H69   S    
C19   C25   A    
C52   O11   A    
C24   C112  T    
C109  O36   S    
C10   C11   A    
C104  H22   S    
C7    H61   S    
C61   C65   A    
H32   O21   S    
C65   C71   A    
C23   C25   A    
H79   O35   S    
C20   C21   A    
Cr5   O15   S    
C128  H27   S    
C102  O26   S    
C87   C90   A    
C12   C18   A    
C106  H28   S    
C73   C120  S    
C14   C15   A    
C136  C137  A    
C25   H76   S    
C21   H73   S    
C114  C117  S    
C80   C93   A    
C71   H13   S    
C93   C98   S    
Cr4   O17   S    
C11   H65   S    
C102  C119  S    
C81   H6    S    
C33   H86   S    
C87   O27   S    
C124  C125  A    
C27   C28   A    
C54   C57   A    
Cr1   O5    S    
