data_mof_unit_61876.cif
_audit_creation_date              2013-03-05T16:14:55-0500
_audit_creation_method            fapswitch 2.2
_symmetry_space_group_name_H-M    P1
_symmetry_Int_Tables_number       1
_space_group_crystal_system       triclinic
_cell_length_a                    15.872921
_cell_length_b                    14.259284
_cell_length_c                    13.383608
_cell_angle_alpha                 90.0
_cell_angle_beta                  89.964659
_cell_angle_gamma                 89.999985
_cell_volume                      3029.19826124

loop_
_atom_site_label
_atom_site_type_symbol
_atom_site_description
_atom_site_fract_x
_atom_site_fract_y
_atom_site_fract_z
_atom_type_partial_charge
O1    O     O_R   0.500010 0.373720 0.576470 -0.595540
O2    O     O_R   0.499990 0.626280 0.423530 -0.595540
O3    O     O_R   0.499990 0.373720 0.423530 -0.595556
O4    O     O_R   0.500010 0.626280 0.576470 -0.595557
C1    C     C_1   0.500000 0.225917 0.500000 -0.172675
C2    C     C_1   0.500000 0.774083 0.500000 -0.172675
C3    C     C_R   0.500000 0.326573 0.500000 0.932401
C4    C     C_R   0.500000 0.673427 0.500000 0.932401
O5    O     O_R   0.376780 0.500000 0.576440 -0.595232
O6    O     O_R   0.623220 0.500000 0.423560 -0.595232
O7    O     O_R   0.376770 0.500000 0.423530 -0.601868
O8    O     O_R   0.623230 0.500000 0.576470 -0.601868
C5    C     C_R   0.335718 0.500000 0.500027 0.931886
C6    C     C_R   0.664282 0.500000 0.499973 0.931887
Zn1   Zn    Zn3+2 0.500010 0.500000 0.602090 1.032278
Zn2   Zn    Zn3+2 0.499990 0.500000 0.397910 1.032278
C7    C     C_1   0.500000 0.141347 0.500000 0.041082
C8    C     C_1   0.500000 0.858653 0.500000 0.041082
N1    N     N_1   0.499980 0.500000 0.261870 -0.053942
N2    N     N_1   0.500020 0.500000 0.738130 -0.053942
C9    C     C_1   0.499987 0.500000 0.169453 0.142247
C10   C     C_1   0.500013 0.500000 0.830547 0.142247
C11   C     C_1   0.500000 0.042282 0.500000 0.059059
C12   C     C_1   0.500000 0.957718 0.500000 0.059059
C13   C     C_3   0.971567 0.422691 0.546607 0.282196
C14   C     C_3   0.028433 0.577309 0.453393 0.282196
C15   C     C_3   0.028432 0.423130 0.452575 0.282228
C16   C     C_3   0.971568 0.576870 0.547425 0.282228
C17   C     C_1   0.499996 0.500000 0.049522 0.006718
C18   C     C_1   0.500004 0.500000 0.950478 0.006718
C19   C     C_1   0.247741 0.499998 0.500180 -0.112919
C20   C     C_1   0.752259 0.500002 0.499820 -0.112919
C21   C     C_3   0.026628 0.499562 0.593679 0.140764
C22   C     C_3   0.973371 0.500438 0.406321 0.140764
C23   C     C_3   0.083256 0.499995 0.500794 -0.261021
C24   C     C_3   0.916744 0.500004 0.499206 -0.261021
C25   C     C_1   0.173222 0.499997 0.500500 0.236641
C26   C     C_1   0.826778 0.500003 0.499500 0.236641
Cl1   Cl    Cl    0.066722 0.321957 0.388965 -0.404134
Cl2   Cl    Cl    0.933278 0.678043 0.611035 -0.404134
Cl3   Cl    Cl    0.933277 0.320929 0.609140 -0.404242
Cl4   Cl    Cl    0.066723 0.679071 0.390860 -0.404242
N3    N     N_R   0.945337 0.500923 0.302629 0.284900
O9    O     O_R   0.000613 0.501258 0.230891 -0.244693
O10   O     O_R   0.865479 0.501023 0.281063 -0.330579
N4    N     N_R   0.054663 0.499077 0.697371 0.284900
O11   O     O_R   0.999387 0.498742 0.769109 -0.244693
O12   O     O_R   0.134520 0.498977 0.718937 -0.330579

loop_
_geom_bond_atom_site_label_1
_geom_bond_atom_site_label_2
_geom_bond_distance
_ccdc_geom_bond_type
C11   C12   1.205835 T    
C17   C18   1.325554 T    
O1    Zn1   1.833020 S    
C20   C26   1.182833 T    
C13   C15   1.548269 S    
O2    Zn2   1.833019 S    
O7    Zn2   1.985482 S    
C14   C16   1.548269 S    
O8    Zn1   1.985482 S    
O4    C4    1.224499 A    
N3    O9    1.300235 A    
C15   C23   1.541341 S    
O4    Zn1   1.833018 S    
C24   C26   1.428023 S    
O5    Zn1   1.986124 S    
O6    Zn2   1.986125 S    
C21   N4    1.457652 S    
N3    O10   1.300191 A    
C16   C24   1.541341 S    
C7    C11   1.412587 S    
C15   Cl1   1.781787 S    
Zn2   N1    1.820705 S    
C8    C12   1.412587 S    
C21   C23   1.533616 S    
O8    C6    1.213242 A    
C16   C21   1.537171 S    
O3    C3    1.224500 A    
C22   C24   1.533616 S    
C15   C22   1.537171 S    
Zn1   N2    1.820706 S    
C2    C8    1.205908 T    
N4    O12   1.300191 A    
C1    C7    1.205908 T    
C16   Cl2   1.781787 S    
C13   C24   1.541343 S    
C13   Cl3   1.781787 S    
C14   C23   1.541343 S    
O7    C5    1.213243 A    
C6    C20   1.396463 S    
C14   Cl4   1.781787 S    
O6    C6    1.213053 A    
C13   C21   1.537170 S    
C1    C3    1.435288 S    
O5    C5    1.213054 A    
N4    O11   1.300235 A    
C2    C4    1.435288 S    
C10   C18   1.605113 S    
C23   C25   1.428023 S    
O1    C3    1.224499 A    
C5    C19   1.396463 S    
C9    C17   1.605113 S    
C22   N3    1.457652 S    
C14   C22   1.537170 S    
O2    C4    1.224500 A    
O3    Zn2   1.833020 S    
C19   C25   1.182833 T    
N2    C10   1.236876 T    
N1    C9    1.236876 T    
