data_mof_unit_44350.cif
_audit_creation_date              2012-12-10T20:51:45-0500
_audit_creation_method            fapswitch 2.2
_symmetry_space_group_name_H-M    P1
_symmetry_Int_Tables_number       1
_space_group_crystal_system       triclinic
_cell_length_a                    8.085866
_cell_length_b                    8.931766
_cell_length_c                    16.600728
_cell_angle_alpha                 89.969364
_cell_angle_beta                  91.026525
_cell_angle_gamma                 89.912917
_cell_volume                      1198.72823228

loop_
_atom_site_label
_atom_site_type_symbol
_atom_type_description
_atom_site_fract_x
_atom_site_fract_y
_atom_site_fract_z
_atom_type_partial_charge
C1    C     C_R   0.500056 0.217913 0.498917 0.944719
C2    C     C_R   0.621306 0.411531 0.129598 0.087095
C3    C     C_R   0.426081 0.459528 0.901172 0.245396
C4    C     C_R   0.470706 0.351617 0.099812 0.266805
C5    C     C_R   0.533472 0.361168 0.861295 -0.207382
C6    C     C_R   0.333006 0.340993 0.148243 -0.229798
C7    C     C_R   0.574417 0.386260 0.782186 -0.285680
C8    C     C_R   0.339580 0.395412 0.226053 -0.271440
C9    C     C_1   0.500236 0.065169 0.497494 -0.210373
C10   C     C_1   0.500003 0.934793 0.497492 -0.194919
C11   C     C_3   0.805178 0.494238 0.246843 -0.393010
C12   C     C_R   0.499928 0.782069 0.498763 0.935419
C13   C     C_3   0.826561 0.664447 0.254772 -0.340337
C14   C     C_3   0.999115 0.704223 0.286712 -0.840875
C15   C     C_3   0.357211 0.759637 0.737017 -0.443920
C16   C     C_3   0.507775 0.860529 0.723421 -0.363884
C17   C     C_3   0.454632 0.019670 0.701443 -0.867785
C18   C     C_3   0.760462 0.439762 0.070230 -0.422977
C19   C     C_3   0.851544 0.294571 0.049572 -0.358766
C20   C     C_3   0.980121 0.322580 0.985174 -0.886765
C21   C     C_3   0.248364 0.691839 0.907359 -0.418385
C22   C     C_3   0.343842 0.825454 0.942896 -0.330617
C23   C     C_R   0.515646 0.505748 0.653985 0.873333
C24   C     C_3   0.231679 0.923362 0.993768 -0.896505
C25   C     C_R   0.484920 0.494468 0.345170 0.863266
C26   C     C_R   0.509101 0.508995 0.741119 -0.063334
C27   C     C_R   0.487263 0.453206 0.259091 -0.092423
C28   C     C_R   0.407799 0.615377 0.780558 0.064371
C29   C     C_R   0.634638 0.453693 0.211800 0.045825
C30   C     C_R   0.362137 0.587237 0.861337 0.073414
H1    H     H_    0.588509 0.265480 0.891612 0.169120
H2    H     H_    0.831544 0.435079 0.304187 0.223910
H3    H     H_    0.906226 0.448757 0.209912 0.184368
H4    H     H_    0.360201 0.018321 0.652089 0.271543
H5    H     H_    0.401534 0.076245 0.754681 0.262489
H6    H     H_    0.563559 0.084093 0.681270 0.244938
H7    H     H_    0.586762 0.865204 0.778889 0.220979
H8    H     H_    0.583386 0.814107 0.674120 0.221363
H9    H     H_    0.295322 0.734432 0.678473 0.220007
H10   H     H_    0.264784 0.825015 0.770197 0.216349
H11   H     H_    0.919340 0.361957 0.928456 0.265816
H12   H     H_    0.217606 0.297779 0.124008 0.161753
H13   H     H_    0.069978 0.408031 0.006410 0.268512
H14   H     H_    0.048150 0.217684 0.972605 0.256451
H15   H     H_    0.913871 0.249213 0.104574 0.212170
H16   H     H_    0.762540 0.209229 0.026758 0.229367
H17   H     H_    0.710048 0.491242 0.014188 0.221410
H18   H     H_    0.849710 0.525375 0.091765 0.195370
H19   H     H_    0.123752 0.961974 0.957033 0.258643
H20   H     H_    0.186978 0.859460 0.046507 0.263190
H21   H     H_    0.301436 0.022598 0.015906 0.259830
H22   H     H_    0.448193 0.784313 0.981479 0.225161
H23   H     H_    0.652492 0.306237 0.751870 0.162638
H24   H     H_    0.395777 0.894947 0.894097 0.228569
H25   H     H_    0.141904 0.728583 0.869180 0.185354
H26   H     H_    0.188467 0.631506 0.957430 0.212644
H27   H     H_    0.228178 0.388859 0.261179 0.176825
H28   H     H_    0.021296 0.652814 0.346839 0.276322
H29   H     H_    0.094676 0.664118 0.244550 0.255121
H30   H     H_    0.010235 0.827641 0.292577 0.243126
H31   H     H_    0.807542 0.718042 0.194876 0.207071
H32   H     H_    0.733336 0.711521 0.296044 0.233833
N1    N     N_1   0.073640 0.500030 0.499990 -0.046993
N2    N     N_1   0.926360 0.499970 0.500010 -0.043283
N3    N     N_2   0.407051 0.450785 0.985403 -0.203837
N4    N     N_2   0.451145 0.330398 0.016669 -0.211369
O1    O     O_R   0.636850 0.285340 0.500000 -0.614470
O2    O     O_R   0.363150 0.714660 0.500000 -0.618048
O3    O     O_R   0.363100 0.285350 0.500000 -0.610661
O4    O     O_R   0.636900 0.714650 0.500000 -0.616728
O5    O     O_R   0.652140 0.498630 0.616140 -0.615768
O6    O     O_R   0.347860 0.501370 0.383860 -0.620860
O7    O     O_R   0.378390 0.498650 0.616130 -0.616753
O8    O     O_R   0.621610 0.501350 0.383870 -0.625780
Zn1   Zn    Zn3+2 0.682780 0.499990 0.500010 0.965005
Zn2   Zn    Zn3+2 0.317220 0.500010 0.499990 0.964834

loop_
_geom_bond_atom_site_label_1
_geom_bond_atom_site_label_2
_ccdc_geom_bond_type
C3    C30   A    
C2    C4    A    
C19   H15   S    
C17   H6    S    
C8    H27   S    
C25   C27   S    
C14   H30   S    
C21   C30   S    
C26   C28   A    
C19   C20   S    
C27   C29   A    
C16   H7    S    
O6    Zn2   S    
C18   H17   S    
C3    C5    A    
C24   H21   S    
C28   C30   A    
C20   H11   S    
O1    Zn1   S    
C19   H16   S    
C13   H31   S    
C22   H24   S    
C25   O6    A    
C21   C22   S    
C4    N4    S    
C14   H29   S    
C12   O2    A    
C21   H26   S    
C15   H9    S    
C15   C28   S    
C3    N3    S    
C7    C26   A    
C10   C12   S    
C23   O7    A    
C2    C29   A    
C21   H25   S    
C4    C6    A    
C1    O1    A    
N2    Zn1   S    
C11   H2    S    
O2    Zn2   S    
N3    N4    D    
C24   H20   S    
C14   H28   S    
O7    Zn2   S    
C22   C24   S    
C15   H10   S    
O5    Zn1   S    
C11   C13   S    
C2    C18   S    
C17   H4    S    
C7    H23   S    
N1    N2    T    
C23   O5    A    
C11   H3    S    
C20   H13   S    
C1    C9    S    
O8    Zn1   S    
C11   C29   S    
O3    Zn2   S    
C22   H22   S    
C25   O8    A    
C9    C10   T    
C23   C26   S    
C24   H19   S    
C5    C7    A    
C8    C27   A    
C12   O4    A    
N1    Zn2   S    
C18   C19   S    
O4    Zn1   S    
C6    C8    A    
C17   H5    S    
C20   H14   S    
C13   C14   S    
C6    H12   S    
C1    O3    A    
C13   H32   S    
C15   C16   S    
C16   H8    S    
C16   C17   S    
C5    H1    S    
C18   H18   S    
