data_mof_unit_53663.cif
_audit_creation_date              2012-12-10T18:00:45-0500
_audit_creation_method            fapswitch 2.2
_symmetry_space_group_name_H-M    P1
_symmetry_Int_Tables_number       1
_space_group_crystal_system       triclinic
_cell_length_a                    15.854555
_cell_length_b                    10.779966
_cell_length_c                    9.634202
_cell_angle_alpha                 89.993828
_cell_angle_beta                  89.988873
_cell_angle_gamma                 92.645033
_cell_volume                      1644.84221573

loop_
_atom_site_label
_atom_site_type_symbol
_atom_type_description
_atom_site_fract_x
_atom_site_fract_y
_atom_site_fract_z
_atom_type_partial_charge
C1    C     C_R   0.501079 0.262764 0.499751 0.815918
C2    C     C_R   0.498921 0.737236 0.500249 0.815917
C3    C     C_R   0.559168 0.937355 0.422726 -0.159964
C4    C     C_R   0.440832 0.062645 0.577274 -0.159964
C5    C     C_R   0.498059 0.871190 0.501082 -0.056386
C6    C     C_R   0.501941 0.128810 0.498918 -0.056386
C7    C     C_R   0.445665 0.421752 0.074104 0.283761
C8    C     C_R   0.554335 0.578248 0.925895 0.283761
C9    C     C_R   0.445468 0.422150 0.926178 0.285640
C10   C     C_R   0.554532 0.577850 0.073822 0.285640
C11   C     C_R   0.340050 0.499684 0.499992 0.833523
C12   C     C_R   0.659950 0.500316 0.500008 0.833524
C13   C     C_3   0.968341 0.384244 0.491574 0.205928
C14   C     C_3   0.031659 0.615756 0.508426 0.205928
C15   C     C_3   0.026461 0.447563 0.381420 -0.184839
C16   C     C_3   0.973538 0.552437 0.618580 -0.184839
C17   C     C_1   0.250317 0.499283 0.500036 -0.119932
C18   C     C_1   0.749683 0.500717 0.499964 -0.119932
C19   C     C_3   0.025950 0.434253 0.610050 -0.185667
C20   C     C_3   0.974050 0.565747 0.389950 -0.185667
C21   C     C_3   0.083005 0.499153 0.500011 0.126848
C22   C     C_3   0.916995 0.500847 0.499989 0.126848
C23   C     C_1   0.174731 0.499013 0.500041 -0.019922
C24   C     C_1   0.825269 0.500986 0.499959 -0.019922
C25   C     C_R   0.562014 0.066525 0.420625 0.156524
C26   C     C_R   0.437986 0.933475 0.579375 0.156524
Cu1   Cu    Cu3+1 0.500000 0.500020 0.640660 1.034060
Cu2   Cu    Cu3+1 0.500000 0.499980 0.359340 1.034060
H1    H     H_    0.048983 0.403565 0.284914 0.161517
H2    H     H_    0.951017 0.596435 0.715086 0.161517
H3    H     H_    0.951944 0.620537 0.300558 0.161347
H4    H     H_    0.048056 0.379463 0.699442 0.161347
H5    H     H_    0.605741 0.887909 0.365373 0.188146
H6    H     H_    0.394259 0.112091 0.634627 0.188146
N1    N     N_R   0.500020 0.500030 0.852070 -0.249540
N2    N     N_R   0.499980 0.499970 0.147930 -0.249541
O1    O     O_R   0.500000 0.319660 0.618740 -0.552068
O2    O     O_R   0.500000 0.680340 0.381260 -0.552068
O3    O     O_R   0.499990 0.319630 0.381170 -0.547535
O4    O     O_R   0.500010 0.680370 0.618830 -0.547535
O5    O     O_R   0.379080 0.500000 0.618760 -0.546914
O6    O     O_R   0.620920 0.500000 0.381240 -0.546914
O7    O     O_R   0.379080 0.499970 0.381190 -0.542484
O8    O     O_R   0.620920 0.500030 0.618810 -0.542484
C27   C     C_3   0.931301 0.251917 0.481922 -0.846723
H7    H     H_    0.983106 0.186258 0.477080 0.241143
H8    H     H_    0.891608 0.230542 0.574536 0.238877
H9    H     H_    0.891897 0.241527 0.387065 0.237759
C28   C     C_3   0.068699 0.748083 0.518078 -0.846723
H10   H     H_    0.016894 0.813742 0.522920 0.241143
H11   H     H_    0.108103 0.758473 0.612935 0.237759
H12   H     H_    0.108392 0.769458 0.425464 0.238877
C29   C     C_3   0.630553 0.135468 0.338906 -0.788809
H13   H     H_    0.666117 0.202130 0.407486 0.205818
H14   H     H_    0.676249 0.071293 0.294329 0.236380
H15   H     H_    0.602430 0.186428 0.251564 0.260935
C30   C     C_3   0.369447 0.864532 0.661094 -0.788809
H16   H     H_    0.333883 0.797870 0.592514 0.205818
H17   H     H_    0.397569 0.813572 0.748436 0.260935
H18   H     H_    0.323751 0.928706 0.705671 0.236380
Br1   Br    Br    0.368241 0.307364 0.168679 -0.418571
Br2   Br    Br    0.631759 0.692636 0.831321 -0.418571
Br3   Br    Br    0.366021 0.310845 0.832423 -0.454771
Br4   Br    Br    0.633978 0.689155 0.167577 -0.454771

loop_
_geom_bond_atom_site_label_1
_geom_bond_atom_site_label_2
_ccdc_geom_bond_type
C27   H7    S    
C4    C26   A    
C10   N2    A    
C15   H1    S    
C14   C20   S    
C1    C6    S    
C4    H6    S    
C7    N2    A    
Cu1   O5    S    
Cu2   O7    S    
C1    O1    A    
Cu1   O4    S    
C3    C5    A    
C28   H12   S    
C16   C22   S    
C2    O2    A    
C13   C15   S    
C30   H18   S    
C12   O8    A    
C29   H13   S    
C13   C27   S    
C6    C25   A    
C30   H16   S    
C17   C23   T    
C15   C21   S    
Cu1   O1    S    
C16   C19   S    
C18   C24   T    
C19   H4    S    
C14   C21   S    
Cu2   O6    S    
C19   C21   S    
C20   C22   S    
C13   C22   S    
C11   O5    A    
C14   C16   S    
C27   H8    S    
C21   C23   S    
C15   C20   S    
C26   C30   S    
C22   C24   S    
C11   O7    A    
C30   H17   S    
C2    C5    S    
C3    H5    S    
C29   H14   S    
C16   H2    S    
C5    C26   A    
C14   C28   S    
C2    O4    A    
C3    C25   A    
Cu2   N2    S    
C4    C6    A    
C28   H10   S    
C29   H15   S    
C12   C18   S    
Cu1   Cu2   S    
C7    C9    A    
C1    O3    A    
C7    Br1   S    
C13   C19   S    
C12   O6    A    
C27   H9    S    
Cu2   O3    S    
Cu1   N1    S    
Cu2   O2    S    
C9    Br3   S    
Cu1   O8    S    
C8    N1    A    
C8    C10   A    
C10   Br4   S    
C9    N1    A    
C8    Br2   S    
C25   C29   S    
C28   H11   S    
C20   H3    S    
C11   C17   S    
