data_mof_unit_31761.cif
_audit_creation_date              2012-12-10T20:25:39-0500
_audit_creation_method            fapswitch 2.2
_symmetry_space_group_name_H-M    P1
_symmetry_Int_Tables_number       1
_space_group_crystal_system       triclinic
_cell_length_a                    8.555522
_cell_length_b                    10.607036
_cell_length_c                    9.983581
_cell_angle_alpha                 90.55072
_cell_angle_beta                  97.818149
_cell_angle_gamma                 91.587955
_cell_volume                      897.149258021

loop_
_atom_site_label
_atom_site_type_symbol
_atom_type_description
_atom_site_fract_x
_atom_site_fract_y
_atom_site_fract_z
_atom_type_partial_charge
C1    C     C_R   0.498182 0.260665 0.498873 0.877872
C2    C     C_R   0.475411 0.390157 0.927186 0.017495
C3    C     C_3   0.337750 0.294512 0.919354 0.542742
C4    C     C_R   0.201841 0.501690 0.464654 0.952738
C5    C     C_3   0.358821 0.292600 0.073897 -0.538946
C6    C     C_R   0.499466 0.739335 0.500010 0.878308
C7    C     C_R   0.797971 0.505825 0.534635 0.965569
C8    C     C_2   0.036496 0.500243 0.444883 -0.387588
C9    C     C_2   0.962369 0.522967 0.550307 -0.261906
C10   C     C_R   0.585755 0.065416 0.415517 0.114007
C11   C     C_R   0.488692 0.128450 0.492813 -0.078911
C12   C     C_R   0.373936 0.932363 0.554120 -0.167382
C13   C     C_R   0.372379 0.062965 0.552107 -0.204666
C14   C     C_3   0.264559 0.068802 0.877988 -0.644992
C15   C     C_R   0.491351 0.871213 0.495979 -0.026933
C16   C     C_R   0.586928 0.936874 0.416987 0.119206
C17   C     C_3   0.761839 0.934462 0.419557 -0.468770
C18   C     C_3   0.760523 0.077509 0.417918 -0.462147
C19   C     C_R   0.483200 0.390324 0.069087 0.091654
C20   C     C_R   0.541153 0.604549 0.079938 -0.173983
C21   C     C_R   0.551853 0.604164 0.939075 0.435720
H1    H     H_    0.976216 0.474195 0.344942 0.189641
H2    H     H_    0.793106 0.118052 0.322886 0.221363
H3    H     H_    0.571399 0.688701 0.140870 0.201219
H4    H     H_    0.864812 0.674827 0.828120 0.369215
H5    H     H_    0.157679 0.526455 0.969630 0.351589
H6    H     H_    0.488903 0.149735 0.879231 0.241626
H7    H     H_    0.301853 0.983352 0.828092 0.255563
H8    H     H_    0.142994 0.088148 0.830413 0.284073
H9    H     H_    0.264480 0.048246 0.986751 0.232300
H10   H     H_    0.258420 0.328100 0.121917 0.233064
H11   H     H_    0.410051 0.205225 0.119584 0.192568
H12   H     H_    0.022522 0.553486 0.647883 0.245553
H13   H     H_    0.284732 0.112575 0.598942 0.201858
H14   H     H_    0.288124 0.879807 0.603515 0.159035
H15   H     H_    0.823321 0.896046 0.515238 0.223539
H16   H     H_    0.795194 0.892241 0.325480 0.230487
H17   H     H_    0.821302 0.122703 0.512631 0.224415
N1    N     N_R   0.498950 0.499140 0.142680 -0.124006
N2    N     N_R   0.498950 0.499180 0.857030 -0.137328
N3    N     N_2   0.371972 0.173861 0.860192 -0.312217
O1    O     O_R   0.500020 0.316790 0.614690 -0.599036
O2    O     O_2   0.742132 0.807751 0.005721 -0.343539
O3    O     O_3   0.772145 0.712214 0.774139 -0.532459
O4    O     O_2   0.113503 0.316675 0.705017 -0.304017
O5    O     O_2   0.022095 0.297258 0.924870 -0.315852
O6    O     O_3   0.151817 0.511436 0.870979 -0.588525
O7    O     O_R   0.500000 0.316760 0.385350 -0.621319
O8    O     O_R   0.271760 0.500010 0.587850 -0.546694
O9    O     O_R   0.271740 0.499970 0.358500 -0.632188
O10   O     O_R   0.500000 0.683240 0.614650 -0.527347
O11   O     O_R   0.499980 0.683210 0.385310 -0.648265
O12   O     O_R   0.728260 0.500030 0.641500 -0.566040
O13   O     O_R   0.728240 0.499990 0.412150 -0.625145
O14   O     O_2   0.525064 0.831699 0.826201 -0.298312
S1    S     S_3+6 0.647477 0.742196 0.885683 0.036392
S2    S     S_3+6 0.149137 0.353665 0.851677 0.011999
Zn1   Zn    Zn3+2 0.500010 0.500020 0.653130 1.084853
Zn2   Zn    Zn3+2 0.499990 0.499980 0.346870 0.952856

loop_
_geom_bond_atom_site_label_1
_geom_bond_atom_site_label_2
_ccdc_geom_bond_type
C21   S1    S    
C8    H1    S    
O12   Zn1   S    
C1    O7    A    
C5    C19   S    
C17   H15   S    
C2    N2    A    
C6    O10   A    
O6    S2    S    
H6    N3    S    
C1    C11   S    
C12   C15   A    
C4    O8    A    
C4    C8    S    
C5    H11   S    
N1    Zn2   S    
O1    Zn1   S    
O14   S1    D    
C17   C18   S    
C18   H17   S    
C13   H13   S    
O10   Zn1   S    
C17   H16   S    
C20   C21   A    
C12   H14   S    
C9    H12   S    
C11   C13   A    
O4    S2    D    
C16   C17   S    
C21   N2    A    
C19   N1    A    
H5    O6    S    
C10   C18   S    
C14   N3    S    
O9    Zn2   S    
C3    S2    S    
H4    O3    S    
O11   Zn2   S    
C14   H9    S    
C2    C3    S    
O13   Zn2   S    
O5    S2    D    
C5    H10   S    
N2    Zn1   S    
C10   C11   A    
C7    O12   A    
C14   H8    S    
C18   H2    S    
C6    O11   A    
O2    S1    D    
C1    O1    A    
C12   C13   A    
O7    Zn2   S    
C7    C9    S    
C20   N1    A    
O3    S1    S    
C3    N3    S    
C10   C16   A    
C7    O13   A    
C14   H7    S    
C6    C15   S    
C2    C19   A    
C15   C16   A    
O8    Zn1   S    
C20   H3    S    
C4    O9    A    
C8    C9    D    
C3    C5    S    
