data_mof_unit_60708.cif
_audit_creation_date              2012-12-10T17:56:59-0500
_audit_creation_method            fapswitch 2.2
_symmetry_space_group_name_H-M    P1
_symmetry_Int_Tables_number       1
_space_group_crystal_system       triclinic
_cell_length_a                    18.289211
_cell_length_b                    18.309883
_cell_length_c                    25.876084
_cell_angle_alpha                 89.999172
_cell_angle_beta                  89.998845
_cell_angle_gamma                 90.010477
_cell_volume                      8665.20984382

loop_
_atom_site_label
_atom_site_type_symbol
_atom_type_description
_atom_site_fract_x
_atom_site_fract_y
_atom_site_fract_z
_atom_type_partial_charge
C1    C     C_R   0.859796 0.140073 0.249984 0.938997
C2    C     C_R   0.825984 0.727945 0.756074 0.125429
C3    C     C_R   0.507483 0.500438 0.053991 -0.165630
C4    C     C_R   0.942198 0.011694 0.473229 0.313136
C5    C     C_R   0.942200 0.011696 0.526772 0.313145
C6    C     C_R   0.442088 0.510997 0.973229 0.313198
C7    C     C_R   0.442089 0.511000 0.026772 0.313206
C8    C     C_R   0.825985 0.727945 0.243928 0.125424
C9    C     C_R   0.217743 0.771650 0.798963 0.130310
C10   C     C_R   0.717808 0.271721 0.701031 0.130303
C11   C     C_R   0.325985 0.227944 0.256062 0.125444
C12   C     C_R   0.325986 0.227944 0.743942 0.125444
C13   C     C_R   0.717800 0.271714 0.298969 0.130309
C14   C     C_R   0.772389 0.218016 0.701658 0.322396
C15   C     C_R   0.271214 0.174364 0.255648 0.323514
C16   C     C_R   0.271214 0.174364 0.744353 0.323518
C17   C     C_R   0.140230 0.140007 0.749953 0.954143
C18   C     C_R   0.772382 0.218009 0.298342 0.322387
C19   C     C_R   0.272326 0.717943 0.201663 0.322402
C20   C     C_R   0.771213 0.674364 0.755661 0.323659
C21   C     C_R   0.771213 0.674365 0.244338 0.323675
C22   C     C_R   0.272318 0.717936 0.798336 0.322394
C23   C     C_R   0.802762 0.195487 0.749209 -0.238454
C24   C     C_R   0.197273 0.195358 0.250922 -0.245982
C25   C     C_R   0.197272 0.195358 0.749075 -0.245977
C26   C     C_R   0.802763 0.195488 0.250790 -0.238440
C27   C     C_R   0.302762 0.695484 0.249210 -0.238547
C28   C     C_R   0.140230 0.140007 0.250046 0.954149
C29   C     C_R   0.697273 0.695357 0.750924 -0.246050
C30   C     C_R   0.697272 0.695358 0.249073 -0.246044
C31   C     C_R   0.302763 0.695484 0.750789 -0.238535
C32   C     C_R   0.777808 0.225837 0.795940 0.371285
C33   C     C_R   0.178150 0.269630 0.247763 0.360154
C34   C     C_R   0.178150 0.269630 0.752232 0.360151
C35   C     C_R   0.777817 0.225845 0.204060 0.371290
C36   C     C_R   0.277872 0.725898 0.295936 0.371295
C37   C     C_R   0.678151 0.769628 0.747756 0.360099
C38   C     C_R   0.678150 0.769628 0.252241 0.360093
C39   C     C_R   0.859796 0.140073 0.750016 0.939008
C40   C     C_R   0.277881 0.725906 0.704064 0.371296
C41   C     C_R   0.223714 0.778820 0.295040 -0.172316
C42   C     C_R   0.732537 0.822317 0.748528 -0.208515
C43   C     C_R   0.732538 0.822317 0.251472 -0.208513
C44   C     C_R   0.223722 0.778828 0.704960 -0.172326
C45   C     C_R   0.723651 0.278759 0.795043 -0.172735
C46   C     C_R   0.232537 0.322318 0.248536 -0.208377
C47   C     C_R   0.232537 0.322318 0.751463 -0.208377
C48   C     C_R   0.723659 0.278766 0.204957 -0.172761
C49   C     C_R   0.194408 0.802404 0.248114 -0.196909
C50   C     C_R   0.359797 0.640072 0.749983 0.939094
C51   C     C_R   0.805926 0.801988 0.751847 -0.186669
C52   C     C_R   0.805927 0.801988 0.248155 -0.186667
C53   C     C_R   0.194408 0.802404 0.751885 -0.196894
C54   C     C_R   0.694405 0.302405 0.748113 -0.196689
C55   C     C_R   0.305926 0.301988 0.251845 -0.186662
C56   C     C_R   0.305927 0.301988 0.748157 -0.186661
C57   C     C_R   0.694405 0.302404 0.251886 -0.196665
C58   C     C_R   0.066273 0.994790 0.026753 -0.140892
C59   C     C_R   0.933748 0.004262 0.973250 -0.131091
C60   C     C_R   0.933748 0.004263 0.026752 -0.131084
C61   C     C_R   0.640231 0.640006 0.249953 0.954464
C62   C     C_R   0.066272 0.994790 0.973244 -0.140886
C63   C     C_R   0.566274 0.494807 0.526753 -0.140926
C64   C     C_R   0.433747 0.504254 0.473250 -0.131062
C65   C     C_R   0.433748 0.504255 0.526752 -0.131056
C66   C     C_R   0.566273 0.494806 0.473244 -0.140921
C67   C     C_R   0.000012 0.999632 0.946278 -0.012457
C68   C     C_R   0.000014 0.999633 0.053722 -0.012457
C69   C     C_R   0.500012 0.499636 0.446278 -0.012446
C70   C     C_R   0.500014 0.499636 0.553722 -0.012446
C71   C     C_R   0.139456 0.859383 0.249310 0.914259
C72   C     C_R   0.640231 0.640007 0.750046 0.954451
C73   C     C_R   0.860668 0.859238 0.750706 0.865292
C74   C     C_R   0.860668 0.859238 0.249295 0.865289
C75   C     C_R   0.139456 0.859384 0.750690 0.914224
C76   C     C_R   0.639456 0.359384 0.749310 0.914006
C77   C     C_R   0.360668 0.359238 0.250706 0.865437
C78   C     C_R   0.360668 0.359238 0.749295 0.865432
C79   C     C_R   0.639455 0.359384 0.250690 0.913953
C80   C     C_R   0.000005 0.999872 0.109815 0.816561
C81   C     C_R   0.000004 0.999871 0.890185 0.816560
C82   C     C_R   0.500005 0.499873 0.609815 0.816543
C83   C     C_R   0.359797 0.640072 0.250017 0.939103
C84   C     C_R   0.500004 0.499872 0.390185 0.816543
C85   C     C_R   0.001220 0.000057 0.390000 0.978164
C86   C     C_R   0.001224 0.000058 0.610000 0.978161
C87   C     C_R   0.501219 0.500057 0.890000 0.978454
C88   C     C_R   0.501222 0.500058 0.110000 0.978447
C89   C     C_R   0.143680 0.978465 0.445512 0.253000
C90   C     C_R   0.143685 0.978476 0.554478 0.253004
C91   C     C_R   0.643926 0.479933 0.945502 0.252812
C92   C     C_R   0.643932 0.479964 0.054490 0.252812
C93   C     C_R   0.207519 0.961746 0.473097 0.301151
C94   C     C_R   0.217751 0.771657 0.201036 0.130308
C95   C     C_R   0.207522 0.961754 0.526890 0.301148
C96   C     C_R   0.708042 0.464348 0.973100 0.301110
C97   C     C_R   0.708046 0.464368 0.026890 0.301098
C98   C     C_R   0.075588 0.989231 0.527736 -0.131791
C99   C     C_R   0.075586 0.989227 0.472258 -0.131793
C100  C     C_R   0.575719 0.489970 0.027739 -0.131809
C101  C     C_R   0.575717 0.489960 0.972256 -0.131809
C102  C     C_R   0.007477 0.000444 0.446008 -0.165769
C103  C     C_R   0.007480 0.000448 0.553991 -0.165767
C104  C     C_R   0.507480 0.500432 0.946008 -0.165635
Cl1   Cl    Cl    0.858355 0.024304 0.439841 -0.422701
Cl2   Cl    Cl    0.290056 0.942222 0.560089 -0.333788
Cl3   Cl    Cl    0.790893 0.446136 0.939916 -0.333256
Cl4   Cl    Cl    0.790903 0.446187 0.060073 -0.333253
Cl5   Cl    Cl    0.799911 0.176560 0.643003 -0.426711
Cl6   Cl    Cl    0.295085 0.081348 0.263830 -0.438476
Cl7   Cl    Cl    0.295087 0.081349 0.736170 -0.438476
Cl8   Cl    Cl    0.799893 0.176544 0.356995 -0.426721
Cl9   Cl    Cl    0.299760 0.676379 0.143022 -0.427285
Cl10  Cl    Cl    0.795081 0.581351 0.763859 -0.437989
Cl11  Cl    Cl    0.795082 0.581352 0.236137 -0.437975
Cl12  Cl    Cl    0.858359 0.024312 0.560165 -0.422699
Cl13  Cl    Cl    0.299741 0.676362 0.856976 -0.427293
Cl14  Cl    Cl    0.815433 0.201805 0.856361 -0.490875
Cl15  Cl    Cl    0.086892 0.298987 0.240309 -0.492830
Cl16  Cl    Cl    0.086890 0.298988 0.759679 -0.492826
Cl17  Cl    Cl    0.815452 0.201821 0.143640 -0.490883
Cl18  Cl    Cl    0.315577 0.701941 0.356348 -0.489926
Cl19  Cl    Cl    0.586893 0.798984 0.740292 -0.492908
Cl20  Cl    Cl    0.586892 0.798984 0.259700 -0.492907
Cl21  Cl    Cl    0.315597 0.701958 0.643653 -0.489925
Cl22  Cl    Cl    0.358137 0.522864 0.939834 -0.423241
Cl23  Cl    Cl    0.358140 0.522873 0.060172 -0.423239
Cl24  Cl    Cl    0.155737 0.988477 0.377723 -0.538423
Cl25  Cl    Cl    0.155746 0.988506 0.622265 -0.538422
Cl26  Cl    Cl    0.655723 0.489300 0.877642 -0.538374
Cl27  Cl    Cl    0.655736 0.489387 0.122344 -0.538351
Cl28  Cl    Cl    0.290048 0.942202 0.439895 -0.333791
H1    H     H_    0.205470 0.802935 0.331082 0.224440
H2    H     H_    0.881975 0.008123 0.953105 0.190927
H3    H     H_    0.881976 0.008124 0.046900 0.190928
H4    H     H_    0.118036 0.990887 0.953088 0.187488
H5    H     H_    0.618040 0.490915 0.546907 0.187486
H6    H     H_    0.381973 0.508105 0.453105 0.190900
H7    H     H_    0.381975 0.508106 0.546900 0.190901
H8    H     H_    0.618038 0.490914 0.453088 0.187488
H9    H     H_    0.717633 0.879452 0.745318 0.209527
H10   H     H_    0.717633 0.879452 0.254683 0.209528
H11   H     H_    0.205485 0.802949 0.668918 0.224433
H12   H     H_    0.705360 0.302826 0.831089 0.224004
H13   H     H_    0.217632 0.379454 0.245332 0.209571
H14   H     H_    0.217632 0.379454 0.754666 0.209574
H15   H     H_    0.705375 0.302839 0.168912 0.223979
H16   H     H_    0.118038 0.990888 0.046907 0.187485
I1    I     I_    0.167205 0.801595 0.129345 -0.122477
I2    I     I_    0.937873 0.696844 0.767121 -0.118390
I3    I     I_    0.937876 0.696844 0.232887 -0.118391
I4    I     I_    0.167185 0.801579 0.870653 -0.122480
I5    I     I_    0.667339 0.301730 0.629324 -0.122509
I6    I     I_    0.437877 0.196840 0.267093 -0.118795
I7    I     I_    0.437880 0.196839 0.732919 -0.118799
I8    I     I_    0.667320 0.301713 0.370674 -0.122509
O1    O     O_3   1.000000 0.000000 0.249960 -0.539726
O2    O     O_R   0.585480 0.646190 0.219690 -0.591087
O3    O     O_R   0.585480 0.646190 0.780310 -0.591104
O4    O     O_R   0.414520 0.646190 0.219690 -0.585360
O5    O     O_R   0.085470 0.853840 0.280350 -0.623391
O6    O     O_R   0.914530 0.853840 0.719650 -0.620175
O7    O     O_R   0.914530 0.853840 0.280350 -0.620182
O8    O     O_R   0.085470 0.853840 0.719650 -0.623396
O9    O     O_R   0.585470 0.353840 0.780350 -0.623548
O10   O     O_R   0.414530 0.353840 0.219650 -0.620013
O11   O     O_R   0.414530 0.353840 0.780350 -0.620019
O12   O     O_3   0.000000 0.000000 0.750040 -0.539729
O13   O     O_R   0.585470 0.353840 0.219650 -0.623568
O14   O     O_R   0.853820 0.914550 0.219610 -0.637730
O15   O     O_R   0.146180 0.914550 0.780390 -0.599761
O16   O     O_R   0.146180 0.914550 0.219610 -0.599763
O17   O     O_R   0.853820 0.914550 0.780390 -0.637734
O18   O     O_R   0.353820 0.414550 0.719610 -0.637799
O19   O     O_R   0.646180 0.414550 0.280390 -0.599758
O20   O     O_R   0.646180 0.414550 0.719610 -0.599760
O21   O     O_R   0.353820 0.414550 0.280390 -0.637801
O22   O     O_R   0.146180 0.085440 0.219600 -0.603935
O23   O     O_3   0.500000 0.500000 0.749960 -0.539708
O24   O     O_R   0.853820 0.085440 0.780400 -0.611544
O25   O     O_R   0.853820 0.085440 0.219600 -0.611543
O26   O     O_R   0.146180 0.085440 0.780400 -0.603937
O27   O     O_R   0.646180 0.585440 0.719600 -0.604006
O28   O     O_R   0.353820 0.585440 0.280400 -0.611603
O29   O     O_R   0.353820 0.585440 0.719600 -0.611603
O30   O     O_R   0.646180 0.585440 0.280400 -0.604013
O31   O     O_R   0.939280 0.999970 0.134160 -0.632051
O32   O     O_R   0.060720 0.999970 0.865840 -0.645140
O33   O     O_R   0.060720 0.999970 0.134160 -0.645143
O34   O     O_3   0.500000 0.500000 0.250040 -0.539710
O35   O     O_R   0.939280 0.999970 0.865840 -0.632052
O36   O     O_R   0.439280 0.499970 0.634160 -0.632100
O37   O     O_R   0.560720 0.499970 0.365840 -0.645149
O38   O     O_R   0.560720 0.499970 0.634160 -0.645151
O39   O     O_R   0.439280 0.499970 0.365840 -0.632100
O40   O     O_R   1.000000 0.060760 0.365770 -0.585741
O41   O     O_R   0.000000 0.060760 0.634230 -0.585732
O42   O     O_R   0.500000 0.560760 0.865770 -0.585850
O43   O     O_R   0.500000 0.560760 0.134230 -0.585821
O44   O     O_R   0.000000 0.939310 0.365780 -0.614057
O45   O     O_R   0.914520 0.146190 0.280310 -0.585263
O46   O     O_R   0.000000 0.939310 0.634220 -0.614068
O47   O     O_R   0.500000 0.439310 0.865780 -0.613885
O48   O     O_R   0.500000 0.439310 0.134220 -0.613919
O49   O     O_R   0.085480 0.146190 0.719690 -0.591256
O50   O     O_R   0.085480 0.146190 0.280310 -0.591261
O51   O     O_R   0.914520 0.146190 0.719690 -0.585259
O52   O     O_R   0.414520 0.646190 0.780310 -0.585362
Zn1   Zn    Zn3+2 1.000000 0.913250 0.293350 1.068774
Zn2   Zn    Zn3+2 0.586770 0.499990 0.293420 1.076079
Zn3   Zn    Zn3+2 0.586770 0.499990 0.706580 1.076089
Zn4   Zn    Zn3+2 0.413230 0.499990 0.293420 1.043511
Zn5   Zn    Zn3+2 0.000000 0.086780 0.293330 1.136489
Zn6   Zn    Zn3+2 0.000000 0.086780 0.706670 1.136498
Zn7   Zn    Zn3+2 0.500000 0.586780 0.793330 1.136519
Zn8   Zn    Zn3+2 0.500000 0.586780 0.206670 1.136540
Zn9   Zn    Zn3+2 1.000000 0.913250 0.706650 1.068766
Zn10  Zn    Zn3+2 0.500000 0.413250 0.793350 1.069004
Zn11  Zn    Zn3+2 0.500000 0.413250 0.206650 1.068982
Zn12  Zn    Zn3+2 0.913230 0.999990 0.206580 1.043504
Zn13  Zn    Zn3+2 0.086770 0.999990 0.793420 1.076089
Zn14  Zn    Zn3+2 0.086770 0.999990 0.206580 1.076099
Zn15  Zn    Zn3+2 0.913230 0.999990 0.793420 1.043507
Zn16  Zn    Zn3+2 0.413230 0.499990 0.706580 1.043506

loop_
_geom_bond_atom_site_label_1
_geom_bond_atom_site_label_2
_ccdc_geom_bond_type
O8    Zn9   S    
C2    I2    S    
C22   Cl13  S    
C20   Cl10  S    
C5    C103  A    
C9    I4    S    
C58   C62   A    
C14   Cl5   S    
C28   O50   A    
C80   O33   A    
C57   C79   S    
C18   C26   A    
O12   Zn13  S    
C21   Cl11  S    
C1    O45   A    
O34   Zn11  S    
C41   H1    S    
C39   O24   A    
O7    Zn1   S    
C48   C57   A    
C91   Cl26  S    
C64   H6    S    
C94   I1    S    
O1    Zn1   S    
O34   Zn8   S    
C78   O11   A    
C72   O3    A    
C13   C18   A    
C89   C99   A    
O12   Zn15  S    
O21   Zn4   S    
C18   Cl8   S    
C52   C74   S    
C74   O7    A    
C55   C77   S    
C58   H16   S    
C43   C52   A    
C46   H13   S    
C13   C57   A    
O42   Zn7   S    
C84   O39   A    
O2    Zn8   S    
C98   C103  A    
O4    Zn8   S    
C48   H15   S    
O23   Zn3   S    
C56   C78   S    
C31   C40   A    
C30   C38   A    
O24   Zn15  S    
C32   C45   A    
O19   Zn2   S    
C62   H4    S    
C37   C42   A    
O34   Zn4   S    
C82   O38   A    
C81   O35   A    
C11   I6    S    
C59   C67   A    
C91   C96   A    
C37   Cl19  S    
C97   Cl4   S    
C11   C15   A    
C44   C53   A    
C83   O4    A    
C12   C16   A    
C35   C48   A    
O29   Zn16  S    
C4    C102  A    
C46   C55   A    
C45   H12   S    
C6    C104  A    
O12   Zn9   S    
C93   Cl28  S    
C19   C27   A    
C8    C52   A    
C81   O32   A    
C25   C34   A    
O31   Zn12  S    
C29   C72   S    
O32   Zn13  S    
O12   Zn6   S    
O38   Zn3   S    
C47   H14   S    
C88   O43   A    
C59   C60   A    
C93   C95   A    
C73   O17   A    
C33   C46   A    
C63   H5    S    
C15   Cl6   S    
C36   C41   A    
C53   C75   S    
C91   C101  A    
C10   C54   A    
C86   C103  S    
C17   O26   A    
C10   I5    S    
C41   C49   A    
O15   Zn13  S    
C92   C97   A    
O28   Zn4   S    
O14   Zn12  S    
C20   C29   A    
C34   Cl16  S    
O3    Zn7   S    
C22   C31   A    
O48   Zn11  S    
C2    C20   A    
O43   Zn8   S    
C79   O19   A    
C76   O20   A    
C92   Cl27  S    
O18   Zn16  S    
C6    Cl22  S    
C3    C100  A    
C1    O25   A    
O33   Zn14  S    
C77   O10   A    
O5    Zn1   S    
O1    Zn12  S    
C77   O21   A    
C24   C33   A    
O44   Zn1   S    
C39   O51   A    
C75   O8    A    
C65   H7    S    
C14   C23   A    
C36   Cl18  S    
C13   I8    S    
C73   O6    A    
C95   Cl2   S    
C51   C73   S    
C85   O44   A    
O46   Zn9   S    
C63   C70   A    
C35   Cl17  S    
C84   O37   A    
O45   Zn5   S    
C96   C97   A    
C8    I3    S    
O25   Zn12  S    
C8    C21   A    
C76   O9    A    
C64   C69   A    
C88   O48   A    
C60   H3    S    
O36   Zn16  S    
C12   C56   A    
C19   C94   A    
O9    Zn10  S    
C90   Cl25  S    
C54   C76   S    
C62   C67   A    
O50   Zn5   S    
C58   C68   A    
C15   C24   A    
O13   Zn11  S    
C96   Cl3   S    
O49   Zn6   S    
C67   C81   S    
C101  C104  A    
O30   Zn2   S    
C5    Cl12  S    
C10   C14   A    
C1    C26   S    
C49   C94   A    
C38   C43   A    
C9    C53   A    
C31   C50   S    
O23   Zn7   S    
C68   C80   S    
O17   Zn15  S    
O35   Zn15  S    
C11   C55   A    
C92   C100  A    
C21   C30   A    
C70   C82   S    
C74   O14   A    
C16   C25   A    
C86   O46   A    
O26   Zn13  S    
O11   Zn10  S    
O47   Zn10  S    
C82   O36   A    
C3    C88   S    
O1    Zn5   S    
C24   C28   S    
C72   O27   A    
C32   Cl14  S    
C4    C5    A    
C90   C95   A    
C45   C54   A    
C85   O40   A    
C33   Cl15  S    
C6    C7    A    
C27   C36   A    
O52   Zn7   S    
C4    Cl1   S    
C42   C51   A    
C59   H2    S    
C3    C7    A    
O6    Zn9   S    
C87   O47   A    
O20   Zn3   S    
C71   O5    A    
O23   Zn16  S    
C17   C25   S    
C64   C65   A    
C79   O13   A    
C17   O49   A    
O34   Zn2   S    
O39   Zn4   S    
O23   Zn10  S    
C69   C84   S    
C61   O2    A    
C23   C32   A    
C75   O15   A    
O40   Zn5   S    
O37   Zn2   S    
O1    Zn14  S    
C28   O22   A    
C44   H11   S    
C23   C39   S    
C40   Cl21  S    
C27   C83   S    
C61   O30   A    
C80   O31   A    
C83   O28   A    
O51   Zn6   S    
C89   C93   A    
C9    C22   A    
C63   C66   A    
O16   Zn14  S    
C2    C51   A    
C85   C102  S    
C86   O41   A    
C87   C104  S    
C66   C69   A    
C26   C35   A    
C40   C44   A    
C99   C102  A    
C66   H8    S    
C60   C68   A    
C98   C99   A    
C49   C71   S    
C30   C61   S    
C29   C37   A    
C78   O18   A    
C19   Cl9   S    
C71   O16   A    
O22   Zn14  S    
C43   H10   S    
C100  C101  A    
C34   C47   A    
C12   I7    S    
C87   O42   A    
C7    Cl23  S    
C65   C70   A    
C50   O29   A    
O27   Zn3   S    
O10   Zn11  S    
C90   C98   A    
C38   Cl20  S    
O41   Zn6   S    
C42   H9    S    
C16   Cl7   S    
C47   C56   A    
C89   Cl24  S    
C50   O52   A    
