data_mof_unit_43423.cif
_audit_creation_date              2012-12-10T18:14:27-0500
_audit_creation_method            fapswitch 2.2
_symmetry_space_group_name_H-M    P1
_symmetry_Int_Tables_number       1
_space_group_crystal_system       triclinic
_cell_length_a                    12.571655
_cell_length_b                    13.122452
_cell_length_c                    19.125682
_cell_angle_alpha                 90.60824
_cell_angle_beta                  102.21886
_cell_angle_gamma                 81.634393
_cell_volume                      3050.22975632

loop_
_atom_site_label
_atom_site_type_symbol
_atom_type_description
_atom_site_fract_x
_atom_site_fract_y
_atom_site_fract_z
_atom_type_partial_charge
C1    C     C_R   0.438226 0.691397 0.489442 0.931344
C2    C     C_R   0.520327 0.442757 0.149264 0.078325
C3    C     C_R   0.707568 0.056149 0.458446 -0.278248
C4    C     C_R   0.501183 0.497830 0.634416 0.870905
C5    C     C_R   0.599377 0.197631 0.505239 -0.148126
C6    C     C_R   0.300956 0.838970 0.504764 -0.287251
C7    C     C_R   0.271730 0.944163 0.513031 0.070547
C8    C     C_R   0.345066 0.011056 0.504080 -0.147290
C9    C     C_R   0.445747 0.973669 0.483943 -0.004180
C10   C     C_R   0.463489 0.870498 0.462753 -0.053434
C11   C     C_R   0.529662 0.034982 0.484407 0.089358
C12   C     C_R   0.505858 0.483543 0.710523 -0.096568
C13   C     C_R   0.623176 0.996514 0.456549 0.018197
C14   C     C_R   0.629629 0.900444 0.424913 -0.284183
C15   C     C_R   0.548160 0.839233 0.424756 0.529676
C16   C     C_R   0.561898 0.308178 0.508005 0.886519
C17   C     C_R   0.523619 0.133408 0.512507 -0.311844
C18   C     C_R   0.697607 0.157130 0.484299 0.514017
C19   C     C_R   0.397577 0.801522 0.481608 -0.113601
C20   C     C_R   0.087760 0.356690 0.392128 -0.225684
C21   C     C_R   0.798184 0.630908 0.583431 0.026418
C22   C     C_R   0.893784 0.674366 0.589155 -0.347403
C23   C     C_R   0.524549 0.430464 0.073875 0.278658
C24   C     C_R   0.969130 0.637772 0.547155 0.031527
C25   C     C_R   0.954551 0.546842 0.506776 -0.004408
C26   C     C_R   0.851993 0.511323 0.498641 0.198206
C27   C     C_R   0.035822 0.489441 0.474508 -0.017901
C28   C     C_R   0.500576 0.497160 0.365802 0.881002
C29   C     C_R   0.005962 0.413699 0.422691 0.135574
C30   C     C_R   0.896848 0.392460 0.406716 -0.057966
C31   C     C_R   0.825547 0.434837 0.449353 -0.250655
C32   C     C_R   0.147760 0.498793 0.496011 0.041092
C33   C     C_R   0.195386 0.375272 0.412272 -0.013444
C34   C     C_R   0.523412 0.431057 0.932461 0.327631
C35   C     C_R   0.425291 0.435187 0.731899 -0.293471
C36   C     C_R   0.429342 0.416787 0.804149 0.551974
C37   C     C_R   0.518349 0.444024 0.855705 -0.028996
C38   C     C_R   0.599711 0.491210 0.833730 -0.234653
C39   C     C_R   0.593317 0.511137 0.761726 -0.192204
C40   C     C_2   0.167405 0.982383 0.535140 0.369676
C41   C     C_3   0.474130 0.769896 0.320026 -0.325492
C42   C     C_2   0.852720 0.325412 0.347685 0.384279
C43   C     C_3   0.248177 0.425267 0.808692 -0.287216
C44   C     C_2   0.046436 0.708241 0.536895 0.322873
C45   C     C_R   0.423563 0.431905 0.172202 -0.156058
C46   C     C_3   0.882443 0.171389 0.513948 -0.258842
C47   C     C_R   0.416165 0.451713 0.242526 -0.195318
C48   C     C_R   0.505498 0.482428 0.290849 -0.064890
C49   C     C_R   0.602492 0.492675 0.268069 -0.195746
C50   C     C_R   0.609985 0.472665 0.197830 -0.128634
H1    H     H_    0.360110 0.409064 0.692456 0.175170
H2    H     H_    0.736298 0.663678 0.612138 0.137617
H3    H     H_    0.904042 0.742016 0.621475 0.147363
H4    H     H_    0.748111 0.407957 0.442132 0.234338
H5    H     H_    0.667848 0.514319 0.872269 0.176370
H6    H     H_    0.656914 0.547738 0.746192 0.164438
H7    H     H_    0.353017 0.409120 0.135773 0.157023
H8    H     H_    0.340795 0.442347 0.258998 0.165704
H9    H     H_    0.672845 0.515945 0.304422 0.181467
H10   H     H_    0.685422 0.482113 0.181505 0.174947
H11   H     H_    0.111121 0.929314 0.540977 0.073271
H12   H     H_    0.696953 0.873215 0.398986 0.182039
H13   H     H_    0.488928 0.837479 0.290569 0.168015
H14   H     H_    0.388468 0.781238 0.328659 0.167079
H15   H     H_    0.483048 0.702264 0.285488 0.197835
H16   H     H_    0.784826 0.284974 0.351827 0.114423
H17   H     H_    0.251442 0.504006 0.830688 0.152479
H18   H     H_    0.191709 0.388876 0.834614 0.205295
H19   H     H_    0.212622 0.429796 0.750256 0.153167
H20   H     H_    0.079392 0.756028 0.580473 0.038433
H21   H     H_    0.917984 0.121500 0.474867 0.185150
H22   H     H_    0.883906 0.126626 0.563439 0.168348
H23   H     H_    0.778420 0.025767 0.436809 0.153631
H24   H     H_    0.936199 0.231391 0.529620 0.215392
H25   H     H_    0.457401 0.164633 0.537737 0.174204
H26   H     H_    0.250812 0.785807 0.519339 0.188245
H27   H     H_    0.320545 0.091790 0.511836 0.172285
H28   H     H_    0.258465 0.333599 0.387869 0.140559
H29   H     H_    0.071270 0.295872 0.354737 0.199997
H30   H     H_    0.178266 0.546867 0.539525 0.123989
N1    N     N_R   0.615547 0.444721 0.981054 -0.178990
N2    N     N_R   0.616107 0.444443 0.050539 -0.168160
N3    N     N_R   0.433457 0.414187 0.025451 -0.177894
N4    N     N_R   0.432955 0.414625 0.956086 -0.110919
N5    N     N_R   0.222200 0.444680 0.463280 -0.109117
N6    N     N_R   0.776960 0.554780 0.536340 -0.118202
O1    O     O_R   0.366740 0.627160 0.482470 -0.602506
O2    O     O_3   0.551259 0.750286 0.385378 -0.589132
O3    O     O_2   0.885484 0.320396 0.291890 -0.577564
O4    O     O_3   0.352498 0.363627 0.823960 -0.593508
O5    O     O_2   0.068366 0.718222 0.478352 -0.574742
O6    O     O_3   0.775910 0.220539 0.482019 -0.659044
O7    O     O_R   0.544830 0.662520 0.505920 -0.581305
O8    O     O_R   0.410920 0.482320 0.590130 -0.630178
O9    O     O_R   0.589010 0.517690 0.613590 -0.629229
O10   O     O_R   0.455170 0.337480 0.494080 -0.625351
O11   O     O_R   0.633260 0.372840 0.517530 -0.589194
O12   O     O_R   0.410990 0.482310 0.386410 -0.620662
O13   O     O_R   0.589080 0.517680 0.409870 -0.608082
O14   O     O_2   0.143018 0.073393 0.547205 -0.610036
Zn1   Zn    Zn3+2 0.381090 0.476390 0.484340 0.956653
Zn2   Zn    Zn3+2 0.618910 0.523610 0.515660 0.974796

loop_
_geom_bond_atom_site_label_1
_geom_bond_atom_site_label_2
_ccdc_geom_bond_type
C1    O1    A    
C23   N2    A    
C27   C29   A    
C34   C37   S    
C35   C36   A    
N1    N2    A    
C7    C8    A    
C6    C19   A    
C45   H7    S    
C29   C30   A    
C23   N3    A    
N3    N4    A    
C21   C22   A    
C36   C37   A    
C10   C15   A    
C30   C31   A    
C33   H28   S    
C5    C17   A    
C36   O4    S    
C14   H12   S    
C3    C18   A    
C16   O11   A    
C33   N5    A    
C5    C16   S    
C2    C50   A    
O1    Zn1   S    
C28   C48   S    
C38   H5    S    
C47   C48   A    
O8    Zn1   S    
C43   H18   S    
C7    C40   S    
C44   H20   S    
C34   N1    A    
C4    C12   S    
C9    C10   A    
C46   H22   S    
O11   Zn2   S    
C3    C13   A    
O9    Zn2   S    
C26   C31   A    
C43   H19   S    
C13   C14   A    
C34   N4    A    
C22   H3    S    
C20   C29   A    
C45   C47   A    
C2    C45   A    
C16   O10   A    
C43   O4    S    
C1    C19   S    
C24   C25   A    
C8    C9    A    
C41   H15   S    
C5    C18   A    
C25   C26   A    
C40   H11   S    
C37   C38   A    
C32   H30   S    
C4    O9    A    
C39   H6    S    
C10   C19   A    
C26   N6    A    
C12   C35   A    
C9    C11   A    
C46   H21   S    
C44   O5    D    
C4    O8    A    
C20   C33   A    
C28   O13   A    
C1    O7    A    
C48   C49   A    
C35   H1    S    
C8    H27   S    
C24   C44   S    
C22   C24   A    
C41   H13   S    
N6    Zn2   S    
C46   H24   S    
N5    Zn1   S    
C42   H16   S    
C28   O12   A    
C41   O2    S    
C21   N6    A    
C11   C17   A    
C20   H29   S    
C27   C32   A    
O7    Zn2   S    
C40   O14   D    
C6    H26   S    
C6    C7    A    
C25   C27   A    
O12   Zn1   S    
C49   H9    S    
C42   O3    D    
C18   O6    S    
C12   C39   A    
C50   H10   S    
C47   H8    S    
C11   C13   A    
C38   C39   A    
C32   N5    A    
C31   H4    S    
C3    H23   S    
O13   Zn2   S    
C46   O6    S    
C43   H17   S    
C49   C50   A    
C2    C23   S    
C17   H25   S    
C14   C15   A    
C30   C42   S    
C41   H14   S    
O10   Zn1   S    
C21   H2    S    
C15   O2    S    
