data_mof_unit_55033.cif
_audit_creation_date              2012-12-11T14:45:33-0500
_audit_creation_method            fapswitch 2.2
_symmetry_space_group_name_H-M    P1
_symmetry_Int_Tables_number       1
_space_group_crystal_system       triclinic
_cell_length_a                    24.782075
_cell_length_b                    7.242372
_cell_length_c                    14.557921
_cell_angle_alpha                 90.33751
_cell_angle_beta                  102.416541
_cell_angle_gamma                 89.917865
_cell_volume                      2551.71160029

loop_
_atom_site_label
_atom_site_type_symbol
_atom_type_description
_atom_site_fract_x
_atom_site_fract_y
_atom_site_fract_z
_atom_type_partial_charge
O1    O     O_R   0.319150 0.364170 0.330530 -0.521534
O2    O     O_R   0.680850 0.635830 0.669470 -0.535217
O3    O     O_R   0.180850 0.864170 0.169470 -0.535582
O4    O     O_R   0.819150 0.135830 0.830530 -0.539503
O5    O     O_R   0.210330 0.696850 0.354180 -0.529890
O6    O     O_R   0.789670 0.303150 0.645820 -0.517390
O7    O     O_R   0.289670 0.196850 0.145820 -0.513500
O8    O     O_R   0.710330 0.803150 0.854180 -0.518088
C1    C     C_R   0.197516 0.525290 0.378695 0.743037
C2    C     C_R   0.804418 0.474752 0.623893 0.733385
C3    C     C_R   0.304414 0.024644 0.123514 0.727031
C4    C     C_R   0.695525 0.975503 0.876053 0.745834
O9    O     O_R   0.320550 0.694110 0.341970 -0.566345
O10   O     O_R   0.679450 0.305890 0.658030 -0.553287
O11   O     O_R   0.179450 0.194110 0.158030 -0.541573
O12   O     O_R   0.820550 0.805890 0.841970 -0.551834
O13   O     O_R   0.291860 0.861000 0.157170 -0.562902
O14   O     O_R   0.708140 0.139000 0.842830 -0.562849
O15   O     O_R   0.208140 0.361000 0.342830 -0.550574
O16   O     O_R   0.791860 0.639000 0.657170 -0.564293
C5    C     C_R   0.341089 0.525291 0.363251 0.774123
C6    C     C_R   0.658602 0.474932 0.637740 0.805755
C7    C     C_R   0.158763 0.025084 0.136945 0.763035
C8    C     C_R   0.841217 0.975284 0.862244 0.796149
O17   O     O_3   0.240460 0.529330 0.189380 -0.384675
O18   O     O_3   0.759540 0.470670 0.810620 -0.391352
O19   O     O_3   0.259540 0.029330 0.310620 -0.386851
O20   O     O_3   0.740460 0.970670 0.689380 -0.392164
V1    V     V_3+5 0.251770 0.805510 0.261240 1.406207
V2    V     V_3+5 0.748230 0.194490 0.738760 1.422724
V3    V     V_3+5 0.248230 0.305510 0.238760 1.470595
V4    V     V_3+5 0.751770 0.694490 0.761240 1.424645
C9    C     C_R   0.103514 0.015604 0.072536 -0.299557
C10   C     C_R   0.896574 0.986974 0.924668 -0.337255
C11   C     C_R   0.396445 0.517676 0.426838 -0.293493
C12   C     C_R   0.603376 0.486582 0.574134 -0.313180
C13   C     C_R   0.953413 0.015779 0.082719 0.489407
C14   C     C_R   0.046624 0.013732 0.912324 0.454974
C15   C     C_R   0.546945 0.535566 0.416840 0.451120
C16   C     C_R   0.453127 0.467985 0.584650 0.424582
C17   C     C_R   0.901191 0.009807 0.021802 0.311219
C18   C     C_R   0.098669 0.030258 0.974421 0.280734
C19   C     C_R   0.599081 0.521893 0.478039 0.296797
C20   C     C_R   0.400791 0.492303 0.524147 0.301663
C21   C     C_R   0.944538 0.992234 0.886672 0.412819
C22   C     C_R   0.055236 0.994571 0.108941 0.396074
C23   C     C_R   0.555021 0.477007 0.610684 0.412743
C24   C     C_R   0.444761 0.520679 0.389533 0.384633
C25   C     C_R   0.997810 0.002146 0.948018 -0.242252
C26   C     C_R   0.002286 0.000678 0.047110 -0.253004
C27   C     C_R   0.501929 0.489683 0.549475 -0.220097
C28   C     C_R   0.497727 0.516051 0.451368 -0.240331
C29   C     C_R   0.661398 0.998336 0.947234 -0.183377
C30   C     C_R   0.336059 0.009230 0.047743 -0.179692
C31   C     C_R   0.839123 0.494802 0.553680 -0.177301
C32   C     C_R   0.168952 0.512868 0.457686 -0.191119
C33   C     C_R   0.646884 0.208058 0.070559 0.403761
C34   C     C_R   0.345231 0.860925 0.901286 0.370869
C35   C     C_R   0.856865 0.689244 0.428892 0.440818
C36   C     C_R   0.166900 0.383725 0.610920 0.443881
C37   C     C_R   0.681813 0.115165 0.022530 -0.317328
C38   C     C_R   0.318371 0.881624 0.975704 -0.347555
C39   C     C_R   0.820543 0.612669 0.478940 -0.353232
C40   C     C_R   0.194314 0.416541 0.537783 -0.387952
C41   C     C_R   0.604809 0.954044 0.926610 0.472203
C42   C     C_R   0.386565 0.102389 0.052730 0.464614
C43   C     C_R   0.894227 0.433435 0.571478 0.433232
C44   C     C_R   0.115163 0.581121 0.449599 0.490118
C45   C     C_R   0.566458 0.065508 0.963962 -0.124034
C46   C     C_R   0.417512 0.075663 0.980191 -0.106029
C47   C     C_R   0.935101 0.534971 0.535589 -0.142576
C48   C     C_R   0.085400 0.547682 0.522540 -0.130663
C49   C     C_R   0.588802 0.190412 0.039121 -0.139822
C50   C     C_R   0.394421 0.961173 0.902008 -0.094142
C51   C     C_R   0.914635 0.665769 0.462562 -0.094260
C52   C     C_R   0.111225 0.442837 0.601828 -0.103154
C53   C     C_R   0.507065 0.054088 0.931925 -0.127718
C54   C     C_R   0.472827 0.141195 0.986727 -0.179292
C55   C     C_R   0.994613 0.512078 0.566524 -0.139391
C56   C     C_R   0.029547 0.605900 0.515928 -0.127137
C57   C     C_R   0.495839 0.290257 0.045168 0.492111
C58   C     C_R   0.480140 0.979542 0.842810 0.469164
C59   C     C_R   0.008521 0.762601 0.463715 0.418615
C60   C     C_R   0.022156 0.415348 0.649027 0.381696
C61   C     C_R   0.552605 0.303118 0.077558 0.251481
C62   C     C_R   0.422632 0.939595 0.827683 0.223843
C63   C     C_R   0.951690 0.780836 0.428624 0.282363
C64   C     C_R   0.080482 0.394865 0.669325 0.286607
H1    H     H_    0.284079 0.791817 0.978455 0.135860
H2    H     H_    0.725494 0.141254 0.041484 0.137167
H3    H     H_    0.235662 0.362967 0.542445 0.172875
H4    H     H_    0.777421 0.649174 0.460750 0.140678
O21   O     O_3   0.058746 0.944482 0.202209 -0.521148
C65   C     C_3   0.085561 0.080351 0.265990 -0.016915
H5    H     H_    0.091154 0.214745 0.232943 0.029288
H6    H     H_    0.126254 0.027501 0.304024 0.156320
H7    H     H_    0.060642 0.106415 0.319125 0.172343
O22   O     O_3   0.939517 0.013250 0.790376 -0.490733
C66   C     C_3   0.915153 0.856727 0.739669 -0.068986
H8    H     H_    0.874189 0.895488 0.696596 0.145589
H9    H     H_    0.909985 0.736424 0.784048 0.050597
H10   H     H_    0.941162 0.812593 0.690572 0.115905
O23   O     O_3   0.441308 0.493921 0.293718 -0.516027
C67   C     C_3   0.412621 0.637844 0.239006 -0.021020
H11   H     H_    0.408109 0.764572 0.280003 0.037852
H12   H     H_    0.371583 0.587511 0.200955 0.152259
H13   H     H_    0.435460 0.675546 0.184676 0.159492
O24   O     O_3   0.559279 0.488068 0.707087 -0.530381
C68   C     C_3   0.580941 0.323559 0.752110 -0.102677
H14   H     H_    0.621489 0.353902 0.799030 0.133026
H15   H     H_    0.585693 0.207391 0.703977 0.116117
H16   H     H_    0.553063 0.277473 0.797289 0.170603
O25   O     O_3   0.143824 0.075164 0.937299 -0.525725
C69   C     C_3   0.178289 0.919586 0.939593 -0.183039
H17   H     H_    0.155856 0.785379 0.929417 0.098153
H18   H     H_    0.208409 0.916523 0.007147 0.127565
H19   H     H_    0.201300 0.932934 0.882499 0.171803
O26   O     O_3   0.854559 0.030186 0.058981 -0.527660
C70   C     C_3   0.833685 0.212092 0.042485 -0.187867
H20   H     H_    0.797650 0.212314 0.982843 0.151441
H21   H     H_    0.863952 0.315180 0.027013 0.096443
H22   H     H_    0.819467 0.260893 0.105692 0.154445
O27   O     O_3   0.353691 0.463663 0.558902 -0.552921
C71   C     C_3   0.327091 0.634577 0.565994 -0.261712
H23   H     H_    0.292886 0.654064 0.504218 0.147350
H24   H     H_    0.355070 0.756743 0.573233 0.146941
H25   H     H_    0.308471 0.631245 0.628779 0.194077
O28   O     O_3   0.646060 0.540265 0.441790 -0.536978
C72   C     C_3   0.667108 0.721926 0.458603 -0.199267
H26   H     H_    0.702766 0.722831 0.518987 0.158737
H27   H     H_    0.636575 0.826456 0.472326 0.099405
H28   H     H_    0.682288 0.767868 0.396115 0.150620
O29   O     O_3   0.955995 0.043629 0.177543 -0.501478
C73   C     C_3   0.959349 0.235404 0.196752 -0.153293
H29   H     H_    0.918917 0.303603 0.173591 0.146318
H30   H     H_    0.991033 0.305551 0.165405 0.079819
H31   H     H_    0.970548 0.256404 0.273767 0.129436
O30   O     O_3   0.042674 0.031317 0.816294 -0.488128
C74   C     C_3   0.067263 0.880068 0.779256 -0.043879
H32   H     H_    0.072481 0.754955 0.824385 0.039747
H33   H     H_    0.107695 0.922303 0.765247 0.176688
H34   H     H_    0.040746 0.841140 0.710518 0.109290
O31   O     O_3   0.544899 0.556891 0.321779 -0.502512
C75   C     C_3   0.543572 0.746652 0.299745 -0.074565
H35   H     H_    0.585193 0.808518 0.318898 0.123319
H36   H     H_    0.514126 0.826311 0.332684 0.056291
H37   H     H_    0.530432 0.760506 0.222400 0.168013
O32   O     O_3   0.456696 0.373300 0.668214 -0.556062
C76   C     C_3   0.442844 0.483444 0.739483 -0.121626
H38   H     H_    0.399377 0.529077 0.722210 0.214937
H39   H     H_    0.471873 0.600105 0.758597 0.202705
H40   H     H_    0.447345 0.397035 0.803225 0.109530
O33   O     O_3   0.571641 0.434559 0.145028 -0.586198
H41   H     H_    0.586944 0.364583 0.203182 0.361259
O34   O     O_3   0.394807 0.872779 0.742010 -0.668789
H42   H     H_    0.358284 0.934986 0.726802 0.315460
O35   O     O_3   0.931269 0.918778 0.365353 -0.592911
H43   H     H_    0.961978 0.988459 0.349036 0.352569
O36   O     O_3   0.107611 0.315270 0.752393 -0.570388
H44   H     H_    0.087443 0.344627 0.802193 0.335408
O37   O     O_3   0.406208 0.208693 0.131977 -0.513657
C77   C     C_3   0.442114 0.103710 0.200567 -0.121355
H45   H     H_    0.459768 0.979998 0.172228 0.032797
H46   H     H_    0.420137 0.064638 0.256215 0.113538
H47   H     H_    0.477706 0.191111 0.234010 0.210979
O38   O     O_3   0.588761 0.792450 0.877665 -0.516923
C78   C     C_3   0.588353 0.650936 0.943658 -0.127991
H48   H     H_    0.566171 0.691621 0.999610 0.143990
H49   H     H_    0.631259 0.607297 0.975826 0.152689
H50   H     H_    0.566075 0.530382 0.906895 0.139776
O39   O     O_3   0.091898 0.673855 0.367773 -0.516235
C79   C     C_3   0.057437 0.554989 0.304019 -0.140752
H51   H     H_    0.046444 0.425032 0.335891 0.045094
H52   H     H_    0.077806 0.523150 0.245065 0.128522
H53   H     H_    0.018315 0.628356 0.274222 0.198333
O40   O     O_3   0.903998 0.259543 0.609052 -0.515084
C80   C     C_3   0.904293 0.135685 0.534222 -0.048062
H54   H     H_    0.912181 0.995456 0.562829 0.123821
H55   H     H_    0.937937 0.168667 0.497239 0.133237
H56   H     H_    0.863557 0.133120 0.483704 0.138622
O41   O     O_3   0.669155 0.326509 0.143763 -0.625933
H57   H     H_    0.710086 0.321371 0.156350 0.294994
O42   O     O_3   0.327275 0.727899 0.832889 -0.650071
H58   H     H_    0.292516 0.671236 0.842513 0.291523
O43   O     O_3   0.836561 0.796769 0.350786 -0.588945
H59   H     H_    0.795582 0.797014 0.337265 0.292970
O44   O     O_3   0.193124 0.285331 0.689041 -0.598587
H60   H     H_    0.231463 0.255665 0.683952 0.291291
O45   O     O_3   0.464177 0.429569 0.071810 -0.504200
C81   C     C_3   0.439422 0.533074 0.992431 -0.161243
H61   H     H_    0.470170 0.581623 0.952447 0.091428
H62   H     H_    0.420867 0.656888 0.017715 0.149309
H63   H     H_    0.405694 0.454390 0.946006 0.151238
O46   O     O_3   0.511966 0.952481 0.774960 -0.536854
C82   C     C_3   0.484138 0.960757 0.679564 -0.089991
H64   H     H_    0.513592 0.007849 0.637163 0.121155
H65   H     H_    0.448943 0.057216 0.666235 0.196070
H66   H     H_    0.470179 0.822254 0.652655 0.137167
O47   O     O_3   0.043111 0.902188 0.446764 -0.545249
C83   C     C_3   0.065210 0.996514 0.531179 -0.239918
H67   H     H_    0.032144 0.048303 0.565640 0.147201
H68   H     H_    0.088353 0.116813 0.513535 0.162015
H69   H     H_    0.095016 0.909257 0.580312 0.151946
O48   O     O_3   0.993706 0.324587 0.707104 -0.478200
C84   C     C_3   0.982957 0.441904 0.778824 -0.069883
H70   H     H_    0.938238 0.435272 0.778480 0.155899
H71   H     H_    0.994880 0.587518 0.772870 0.034712
H72   H     H_    0.005113 0.390145 0.848260 0.127646

loop_
_geom_bond_atom_site_label_1
_geom_bond_atom_site_label_2
_ccdc_geom_bond_type
C34   C38   A    
C35   O43   S    
C59   C63   A    
O39   C79   S    
O1    C5    A    
C81   H61   S    
C46   C54   A    
O13   V1    S    
C45   C53   A    
O3    C7    A    
O42   H58   S    
O15   V3    S    
O28   C72   S    
C73   H31   S    
C33   O41   S    
C69   H17   S    
C76   H38   S    
O27   C71   S    
C78   H49   S    
C14   C25   A    
C53   C54   A    
C79   H51   S    
O7    C3    A    
O35   H43   S    
C9    C18   A    
O9    V1    S    
C14   C18   A    
C71   H24   S    
C21   O22   S    
C76   H39   S    
C55   C60   A    
O4    C8    A    
C44   O39   S    
C70   H22   S    
O19   V1    S    
O31   C75   S    
C38   H1    S    
O1    V3    S    
O24   C68   S    
C12   C23   A    
O2    V4    S    
C64   O36   S    
C33   C49   A    
C33   C37   A    
O3    V1    S    
O26   C70   S    
C81   H63   S    
O25   C69   S    
C29   C37   A    
C1    O15   A    
O36   H44   S    
C2    O16   A    
C83   H67   S    
C80   H55   S    
C31   C39   A    
C39   H4    S    
C46   C50   A    
C32   C40   A    
C45   C49   A    
O14   V2    S    
C17   O26   S    
C29   C41   A    
C52   C64   A    
C16   C20   A    
O5    V1    S    
C4    C29   S    
C79   H53   S    
C44   C48   A    
C82   H66   S    
C60   O48   S    
O11   C7    A    
O46   C82   S    
O47   C83   S    
O12   C8    A    
C9    C22   A    
O38   C78   S    
C65   H5    S    
C10   C17   A    
O10   V2    S    
C75   H37   S    
C11   C24   A    
C67   H12   S    
C67   H11   S    
C79   H52   S    
O37   C77   S    
C78   H50   S    
C77   H46   S    
C70   H21   S    
O7    V3    S    
C16   O32   S    
C27   C28   A    
O8    V4    S    
O32   C76   S    
C75   H36   S    
C76   H40   S    
C78   H48   S    
C10   C21   A    
O18   V4    S    
C15   C19   A    
C30   C38   A    
C65   H7    S    
C7    C9    S    
O41   H57   S    
C24   O23   S    
C41   O38   S    
C36   C52   A    
C8    C10   S    
C47   C55   A    
C55   C56   A    
C42   O37   S    
C34   O42   S    
C62   O34   S    
O5    C1    A    
C11   C20   A    
C77   H47   S    
C18   O25   S    
C69   H18   S    
C66   H8    S    
C21   C25   A    
C43   O40   S    
O8    C4    A    
C80   H56   S    
C57   O45   S    
C14   O30   S    
O9    C5    A    
C48   C52   A    
C1    C32   S    
C61   O33   S    
C50   C62   A    
C70   H20   S    
C65   H6    S    
C2    C31   S    
C49   C61   A    
C3    C30   S    
C80   H54   S    
C71   H25   S    
C30   C42   A    
C51   C63   A    
O40   C80   S    
C66   H9    S    
C15   O31   S    
C23   O24   S    
C36   O44   S    
O29   C73   S    
C25   C26   A    
C13   O29   S    
C68   H16   S    
C59   O47   S    
C35   C51   A    
O23   C67   S    
C37   H2    S    
C34   C50   A    
C56   C59   A    
C77   H45   S    
O16   V4    S    
C84   H72   S    
C84   H70   S    
C3    O13   A    
C81   H62   S    
O6    V2    S    
O17   V3    S    
C60   C64   A    
C75   H35   S    
C19   O28   S    
O6    C2    A    
C23   C27   A    
C74   H32   S    
O11   V3    S    
C73   H29   S    
C5    C11   S    
O12   V4    S    
C16   C27   A    
C6    C12   S    
O21   C65   S    
C22   C26   A    
C20   O27   S    
C35   C39   A    
C36   C40   A    
C32   C44   A    
C72   H28   S    
O20   V2    S    
C72   H26   S    
C31   C43   A    
C48   C56   A    
C58   C62   A    
O2    C6    A    
C47   C51   A    
C13   C26   A    
C74   H33   S    
C54   C57   A    
O10   C6    A    
O43   H59   S    
C42   C46   A    
C22   O21   S    
C53   C58   A    
C83   H69   S    
C41   C45   A    
C68   H15   S    
C74   H34   S    
C73   H30   S    
C15   C28   A    
C43   C47   A    
C13   C17   A    
O45   C81   S    
O4    V2    S    
C58   O46   S    
C69   H19   S    
O30   C74   S    
C82   H64   S    
C63   O35   S    
C24   C28   A    
C66   H10   S    
O48   C84   S    
C83   H68   S    
O22   C66   S    
C4    O14   A    
O34   H42   S    
C12   C19   A    
O44   H60   S    
C40   H3    S    
C72   H27   S    
O33   H41   S    
C68   H14   S    
C84   H71   S    
C67   H13   S    
C57   C61   A    
C71   H23   S    
C82   H65   S    
