data_mof_unit_29123.cif
_audit_creation_date              2012-12-10T17:12:40-0500
_audit_creation_method            fapswitch 2.2
_symmetry_space_group_name_H-M    P1
_symmetry_Int_Tables_number       1
_space_group_crystal_system       triclinic
_cell_length_a                    23.404824
_cell_length_b                    10.693935
_cell_length_c                    10.014389
_cell_angle_alpha                 92.274638
_cell_angle_beta                  90.53851
_cell_angle_gamma                 90.251318
_cell_volume                      2504.38408563

loop_
_atom_site_label
_atom_site_type_symbol
_atom_type_description
_atom_site_fract_x
_atom_site_fract_y
_atom_site_fract_z
_atom_type_partial_charge
C1    C     C_R   0.500824 0.262717 0.497098 0.882435
C2    C     C_R   0.968406 0.290115 0.393293 -0.157446
C3    C     C_R   0.027856 0.288763 0.391394 -0.159512
C4    C     C_R   0.059237 0.391859 0.443743 -0.016623
C5    C     C_R   0.030498 0.497200 0.498432 -0.023380
C6    C     C_R   0.061621 0.601102 0.551393 -0.040070
C7    C     C_R   0.032601 0.705572 0.605652 -0.160084
C8    C     C_R   0.973139 0.707027 0.607264 -0.153661
C9    C     C_R   0.118883 0.392729 0.442987 0.504468
C10   C     C_R   0.121220 0.597350 0.548740 0.577212
C11   C     C_R   0.238482 0.561019 0.399056 0.548614
C12   C     C_R   0.389554 0.498564 0.499269 0.926230
C13   C     C_R   0.298002 0.563392 0.402909 -0.409983
C14   C     C_R   0.327647 0.494217 0.496819 -0.210277
C15   C     C_R   0.297833 0.419189 0.585374 0.453754
C16   C     C_R   0.238384 0.421681 0.585390 -0.286648
C17   C     C_R   0.208968 0.492919 0.493461 0.159098
C18   C     C_R   0.762053 0.512169 0.382145 -0.108534
C19   C     C_R   0.702776 0.511553 0.381307 -0.198741
C20   C     C_R   0.673009 0.502346 0.501635 -0.052286
C21   C     C_R   0.703268 0.494781 0.622763 -0.221915
C22   C     C_R   0.762590 0.495267 0.623190 -0.096399
C23   C     C_R   0.497164 0.738253 0.503362 0.793120
C24   C     C_R   0.791889 0.503547 0.502899 0.318584
C25   C     C_2   0.476777 0.930195 0.398863 -0.266521
C26   C     C_2   0.485012 0.870780 0.512987 0.312439
C27   C     C_2   0.473096 0.064995 0.400662 -0.129532
C28   C     C_2   0.505098 0.131194 0.488622 -0.244349
C29   C     C_2   0.542436 0.540902 0.928089 -0.236244
C30   C     C_2   0.536486 0.564258 0.078163 0.609932
C31   C     C_R   0.610698 0.500680 0.500538 0.874092
C32   C     C_R   0.882064 0.603381 0.554829 0.502911
C33   C     C_R   0.879781 0.398270 0.450247 0.504521
C34   C     C_R   0.939381 0.394660 0.447407 -0.016716
C35   C     C_R   0.970492 0.498608 0.500229 -0.018580
C36   C     C_R   0.941740 0.603968 0.554796 -0.015298
H1    H     H_    0.945329 0.209206 0.352189 0.194774
H2    H     H_    0.680388 0.518204 0.286717 0.189218
H3    H     H_    0.681228 0.487746 0.716805 0.162596
H4    H     H_    0.785874 0.488350 0.716549 0.143077
H5    H     H_    0.476779 0.881613 0.301540 0.149521
H6    H     H_    0.445866 0.109510 0.328128 0.146020
H7    H     H_    0.535554 0.088707 0.554767 0.160406
H8    H     H_    0.582797 0.562984 0.882039 0.152091
H9    H     H_    0.460750 0.501713 0.894333 0.206351
H10   H     H_    0.049081 0.206845 0.348927 0.194826
H11   H     H_    0.055688 0.786416 0.646882 0.192557
H12   H     H_    0.951917 0.788981 0.649651 0.193493
H13   H     H_    0.320940 0.620184 0.333707 0.185225
H14   H     H_    0.214988 0.367017 0.655637 0.177632
H15   H     H_    0.784922 0.518986 0.289182 0.143907
N1    N     N_R   0.852667 0.501629 0.502988 -0.359085
N2    N     N_R   0.148239 0.494416 0.494921 -0.328981
N3    N     N_2   0.500610 0.501330 0.852150 -0.182290
N4    N     N_2   0.500630 0.501360 0.147810 0.018667
O1    O     O_R   0.499990 0.319060 0.613040 -0.600529
O2    O     O_2   0.849011 0.299336 0.401455 -0.552066
O3    O     O_2   0.147484 0.293346 0.390519 -0.579069
O4    O     O_2   0.152094 0.695168 0.599843 -0.542927
O5    O     O_R   0.500010 0.319100 0.386900 -0.611338
O6    O     O_R   0.416150 0.499940 0.613100 -0.568299
O7    O     O_R   0.416160 0.499980 0.386960 -0.678826
O8    O     O_R   0.499990 0.680900 0.613100 -0.627131
O9    O     O_R   0.500010 0.680940 0.386960 -0.610027
O10   O     O_R   0.583840 0.500020 0.613040 -0.628285
O11   O     O_R   0.583850 0.500060 0.386900 -0.568911
O12   O     O_2   0.853494 0.703735 0.605112 -0.553978
Zn1   Zn    Zn3+2 0.499990 0.499970 0.650990 0.959569
Zn2   Zn    Zn3+2 0.500010 0.500030 0.349010 0.998316
O13   O     O_3   0.470466 0.930362 0.635160 -0.604918
C37   C     C_3   0.512665 0.915479 0.735790 0.097399
H16   H     H_    0.556766 0.910899 0.694675 0.118092
H17   H     H_    0.503719 0.830197 0.791868 0.177004
C38   C     C_3   0.509796 0.025157 0.837169 -0.844787
H18   H     H_    0.466881 0.028489 0.883402 0.255350
H19   H     H_    0.542381 0.013531 0.916972 0.211607
H20   H     H_    0.518010 0.114803 0.788566 0.273970
O14   O     O_3   0.573452 0.646300 0.146663 -0.606372
C39   C     C_3   0.571870 0.764962 0.089752 0.022873
H21   H     H_    0.527113 0.799187 0.080687 0.126461
H22   H     H_    0.592231 0.762206 0.989790 0.135678
C40   C     C_3   0.605184 0.857927 0.179567 -0.756890
H23   H     H_    0.650694 0.829465 0.185397 0.255947
H24   H     H_    0.602740 0.952711 0.138484 0.208136
H25   H     H_    0.587161 0.861264 0.281765 0.250591
O15   O     O_3   0.481746 0.393911 0.086522 -0.574338
C41   C     C_3   0.424660 0.374943 0.124269 0.194761
H26   H     H_    0.400266 0.464331 0.131185 0.127030
H27   H     H_    0.423207 0.327442 0.220306 0.186711
C42   C     C_3   0.395046 0.289205 0.020254 -0.914951
H28   H     H_    0.417865 0.198574 0.010829 0.260633
H29   H     H_    0.350356 0.271352 0.050860 0.222892
H30   H     H_    0.394303 0.333414 0.921883 0.291209
O16   O     O_3   0.208714 0.631093 0.308871 -0.586991
C43   C     C_3   0.208882 0.566677 0.183061 0.062410
H31   H     H_    0.191636 0.469774 0.189986 0.165218
H32   H     H_    0.252891 0.562468 0.141791 0.142343
C44   C     C_3   0.171079 0.635822 0.086422 -0.744549
H33   H     H_    0.187448 0.732508 0.075658 0.263794
H34   H     H_    0.170965 0.586113 0.986907 0.213137
H35   H     H_    0.126623 0.640068 0.124174 0.255078
O17   O     O_3   0.326542 0.343278 0.671879 -0.604121
C45   C     C_3   0.332631 0.224027 0.607825 0.077812
H36   H     H_    0.357439 0.230134 0.513757 0.120946
H37   H     H_    0.290068 0.180911 0.584513 0.164380
C46   C     C_3   0.364719 0.138482 0.699746 -0.740569
H38   H     H_    0.341272 0.130272 0.794892 0.247539
H39   H     H_    0.368511 0.044001 0.650753 0.252609
H40   H     H_    0.408182 0.176520 0.721303 0.275760

loop_
_geom_bond_atom_site_label_1
_geom_bond_atom_site_label_2
_ccdc_geom_bond_type
C24   N1    S    
C31   O11   A    
C41   H26   S    
C43   H31   S    
C27   H6    S    
C43   C44   S    
C7    C8    A    
C2    H1    S    
C33   N1    A    
C38   H19   S    
C18   C24   A    
C32   C36   A    
C1    O1    A    
C16   H14   S    
C18   C19   A    
C5    C6    A    
O11   Zn2   S    
N3    Zn1   S    
C29   N3    D    
C15   C16   A    
C34   C35   A    
C8    C36   A    
C23   C26   S    
C10   N2    A    
C32   N1    A    
C35   C36   A    
C16   C17   A    
C38   H20   S    
C1    C28   S    
O13   C37   S    
C2    C34   A    
C23   O8    A    
C21   C22   A    
O16   C43   S    
C18   H15   S    
C38   H18   S    
C1    O5    A    
C25   H5    S    
C37   H17   S    
O14   C39   S    
C25   C26   D    
O1    Zn1   S    
O7    Zn2   S    
C7    H11   S    
C8    H12   S    
C29   C30   S    
C19   H2    S    
C39   C40   S    
C12   O7    A    
C42   H29   S    
C21   H3    S    
O10   Zn1   S    
C22   H4    S    
C33   C34   A    
C45   H37   S    
O9    Zn2   S    
N4    Zn2   S    
C32   O12   S    
C13   H13   S    
C11   O16   S    
C23   O9    A    
C9    O3    S    
H9    N3    S    
C40   H23   S    
C44   H34   S    
C41   H27   S    
C29   H8    S    
C26   O13   S    
C22   C24   A    
C9    N2    A    
C3    C4    A    
C44   H35   S    
C17   N2    S    
C45   H36   S    
C42   H30   S    
C39   H22   S    
C31   O10   A    
O8    Zn1   S    
C11   C17   A    
C33   O2    S    
C3    H10   S    
O15   C41   S    
C12   C14   S    
C4    C5    A    
C6    C10   A    
C37   C38   S    
C43   H32   S    
C6    C7    A    
C25   C27   S    
C40   H25   S    
C30   N4    D    
C28   H7    S    
C40   H24   S    
C19   C20   A    
C2    C3    A    
C37   H16   S    
C12   O6    A    
C11   C13   A    
O6    Zn1   S    
C42   H28   S    
C46   H39   S    
O5    Zn2   S    
N4    O15   S    
C5    C35   A    
C10   O4    S    
C45   C46   S    
C15   O17   S    
O17   C45   S    
C39   H21   S    
C30   O14   S    
C20   C21   A    
C44   H33   S    
C46   H38   S    
C41   C42   S    
C27   C28   D    
C14   C15   A    
C4    C9    A    
C13   C14   A    
C20   C31   S    
C46   H40   S    
