data_mof_unit_13717.cif
_audit_creation_date              2012-12-11T15:32:33-0500
_audit_creation_method            fapswitch 2.2
_symmetry_space_group_name_H-M    P1
_symmetry_Int_Tables_number       1
_space_group_crystal_system       triclinic
_cell_length_a                    6.989615
_cell_length_b                    20.441501
_cell_length_c                    24.29838
_cell_angle_alpha                 89.823515
_cell_angle_beta                  90.956545
_cell_angle_gamma                 89.554187
_cell_volume                      3471.10256013

loop_
_atom_site_label
_atom_site_type_symbol
_atom_type_description
_atom_site_fract_x
_atom_site_fract_y
_atom_site_fract_z
_atom_type_partial_charge
O1    O     O_R   0.507320 0.423560 0.460500 -0.518833
O2    O     O_R   0.170760 0.556250 0.437010 -0.531800
O3    O     O_R   0.004030 0.576440 0.539500 -0.526670
C1    C     C_R   0.338059 0.576371 0.421073 0.730279
O4    O     O_R   0.177370 0.422820 0.454110 -0.543146
O5    O     O_R   0.010680 0.442050 0.556720 -0.545640
C2    C     C_R   0.345424 0.398293 0.444100 0.759594
O6    O     O_R   0.500680 0.557950 0.443280 -0.538174
O7    O     O_3   0.340380 0.506470 0.533650 -0.366434
V1    V     V_3+5 0.064130 0.498800 0.493760 1.506637
O8    O     O_R   0.681160 0.443750 0.562990 -0.536680
C3    C     C_R   0.850970 0.423639 0.578578 0.735476
O9    O     O_R   0.674560 0.577180 0.545890 -0.529089
C4    C     C_R   0.843942 0.600936 0.556898 0.805323
V2    V     V_3+5 0.564560 0.501200 0.506240 1.517132
O10   O     O_3   0.838180 0.493530 0.466350 -0.359472
C5    C     C_R   0.969724 0.834755 0.914758 -0.180293
C6    C     C_R   0.859200 0.663030 0.588030 -0.263326
C7    C     C_R   0.904895 0.716920 0.913796 0.415524
C8    C     C_R   0.930050 0.776389 0.943501 0.288684
C9    C     C_R   0.981442 0.834116 0.857367 -0.256694
C10   C     C_R   0.955144 0.776142 0.826223 -0.012861
C11   C     C_R   0.920728 0.716528 0.855171 -0.084648
C12   C     C_R   0.957389 0.776165 0.766851 0.098861
C13   C     C_R   0.913714 0.717887 0.737020 0.061187
C14   C     C_R   0.908528 0.659476 0.766896 -0.156234
C15   C     C_R   0.906087 0.657866 0.824064 0.330936
C16   C     C_R   0.010293 0.831661 0.736204 -0.174318
C17   C     C_R   0.019339 0.829997 0.679198 -0.139250
C18   C     C_R   0.963882 0.774550 0.649382 -0.061159
C19   C     C_R   0.899072 0.718306 0.677755 0.009802
C20   C     C_R   0.974074 0.774998 0.591349 0.365394
C21   C     C_R   0.930691 0.718651 0.561115 0.314734
C22   C     C_R   0.825660 0.665164 0.645272 0.141167
H1    H     H_    0.070004 0.873333 0.658416 0.153623
H2    H     H_    0.002264 0.880959 0.838081 0.121685
H3    H     H_    0.918153 0.613181 0.746019 0.203381
H4    H     H_    0.055901 0.876630 0.755026 0.113245
C23   C     C_3   0.849840 0.306717 0.768471 -0.367474
C24   C     C_3   0.041243 0.271921 0.786570 -0.229287
H5    H     H_    0.146236 0.291840 0.816669 0.154398
H6    H     H_    0.795307 0.354016 0.784443 0.173403
C25   C     C_1   0.961083 0.120555 0.874720 -0.198367
C26   C     C_1   0.862938 0.377675 0.623850 -0.193279
C27   C     C_3   0.747412 0.240098 0.772679 0.409609
C28   C     C_3   0.935463 0.205571 0.790001 -0.009371
C29   C     C_3   0.789740 0.225350 0.712160 0.382804
C30   C     C_3   0.892564 0.291338 0.707387 -0.022995
C31   C     C_3   0.979619 0.190451 0.728872 -0.322478
C32   C     C_3   0.080384 0.257468 0.725369 0.489353
C33   C     C_1   0.950655 0.158468 0.836263 0.007232
C34   C     C_1   0.874399 0.338703 0.661473 0.028269
H7    H     H_    0.036603 0.143663 0.712558 0.132210
C35   C     C_3   0.470591 0.722874 0.207592 0.389433
C36   C     C_3   0.276478 0.709970 0.235187 -0.322314
H8    H     H_    0.167065 0.674736 0.220713 0.199936
C37   C     C_1   0.345422 0.622299 0.375193 -0.137989
C38   C     C_1   0.478911 0.880621 0.126675 -0.182327
C39   C     C_3   0.576005 0.721487 0.263679 0.253836
C40   C     C_3   0.382887 0.709351 0.291921 -0.061848
C41   C     C_3   0.546865 0.796562 0.268973 -0.242275
C42   C     C_3   0.441458 0.797181 0.212391 -0.035395
C43   C     C_3   0.353140 0.783903 0.297247 0.275321
C44   C     C_3   0.248971 0.785142 0.240635 0.293717
C45   C     C_1   0.358389 0.661226 0.337387 0.124829
C46   C     C_1   0.466367 0.843691 0.165840 0.113364
H9    H     H_    0.653997 0.832386 0.283890 0.224494
C47   C     C_R   0.469269 0.159877 0.091459 -0.186059
C48   C     C_R   0.344361 0.334733 0.415256 -0.176634
C49   C     C_R   0.424328 0.276333 0.097025 0.378048
C50   C     C_R   0.440905 0.219789 0.066257 -0.282396
C51   C     C_R   0.473118 0.154671 0.149178 0.395975
C52   C     C_R   0.432854 0.211236 0.183190 -0.087681
C53   C     C_R   0.435374 0.273632 0.155579 -0.135005
C54   C     C_R   0.387920 0.210221 0.241896 -0.134944
C55   C     C_R   0.393146 0.270476 0.272027 -0.111906
C56   C     C_R   0.398134 0.330125 0.242556 0.432542
C57   C     C_R   0.438703 0.331435 0.186901 0.249638
C58   C     C_R   0.321142 0.154149 0.271566 0.387324
C59   C     C_R   0.269567 0.157908 0.327243 0.238924
C60   C     C_R   0.283703 0.217172 0.356540 -0.121482
C61   C     C_R   0.372539 0.270981 0.330638 -0.047125
C62   C     C_R   0.212929 0.224966 0.410833 0.491410
C63   C     C_R   0.228922 0.285940 0.436504 -0.303409
C64   C     C_R   0.432551 0.324431 0.364453 0.316229
H10   H     H_    0.153397 0.294952 0.474362 0.137291
H11   H     H_    0.427156 0.222273 0.021873 0.150457
O11   O     O_R   0.323550 0.942140 0.056770 -0.545034
O12   O     O_R   0.647080 0.077200 0.045890 -0.541291
O13   O     O_R   0.813610 0.057920 0.943260 -0.538119
C65   C     C_R   0.478604 0.101077 0.056522 0.780565
O14   O     O_R   0.653470 0.943760 0.063000 -0.526530
O15   O     O_R   0.820050 0.923540 0.960490 -0.522540
C66   C     C_R   0.486121 0.924377 0.079396 0.739869
O16   O     O_R   0.317110 0.076520 0.039540 -0.536319
O17   O     O_3   0.483830 0.993580 0.966380 -0.370567
V3    V     V_3+5 0.760140 0.001190 0.006240 1.447573
O18   O     O_R   0.149510 0.922740 0.954070 -0.549147
C67   C     C_R   0.980399 0.898284 0.943953 0.730849
O19   O     O_R   0.143120 0.056170 0.936970 -0.537926
C68   C     C_R   0.973197 0.075877 0.921018 0.723348
V4    V     V_3+5 0.259690 0.998700 0.993700 1.416184
O20   O     O_3   0.986130 0.006420 0.033620 -0.373668
Br1   Br    Br    0.892561 0.570562 0.853574 -0.475740
O21   O     O_3   0.044771 0.828769 0.563842 -0.530065
C69   C     C_3   0.890221 0.870794 0.549662 0.102317
H12   H     H_    0.819736 0.889996 0.587139 0.102617
H13   H     H_    0.781527 0.845429 0.523683 0.134655
C70   C     C_3   0.965038 0.928436 0.517060 -0.638907
H14   H     H_    0.032563 0.910933 0.478693 0.265602
H15   H     H_    0.845003 0.962163 0.506042 0.182101
H16   H     H_    0.072748 0.955289 0.542164 0.208396
O22   O     O_3   0.257647 0.264151 0.699139 -0.534411
C71   C     C_3   0.323493 0.329301 0.702345 0.153577
H17   H     H_    0.450770 0.330588 0.730146 0.155887
H18   H     H_    0.217923 0.365310 0.718535 0.105767
C72   C     C_3   0.381996 0.351720 0.645343 -0.661037
H19   H     H_    0.256419 0.352629 0.616910 0.203207
H20   H     H_    0.442949 0.401631 0.647758 0.196171
H21   H     H_    0.489913 0.317544 0.628439 0.245829
O23   O     O_3   0.656013 0.205336 0.671559 -0.538437
C73   C     C_3   0.595742 0.141047 0.682587 0.175354
H22   H     H_    0.524448 0.138124 0.723100 0.165378
H23   H     H_    0.718598 0.106121 0.681936 0.086867
C74   C     C_3   0.452360 0.120477 0.638227 -0.714085
H24   H     H_    0.520200 0.121739 0.597221 0.214508
H25   H     H_    0.402836 0.069970 0.646530 0.163497
H26   H     H_    0.326654 0.154035 0.637739 0.250654
O24   O     O_3   0.569963 0.227677 0.797303 -0.553861
C75   C     C_3   0.561815 0.258750 0.849117 0.104761
H27   H     H_    0.491211 0.307315 0.843899 0.134883
H28   H     H_    0.704665 0.266201 0.869241 0.134711
C76   C     C_3   0.445200 0.217213 0.887986 -0.693394
H29   H     H_    0.522704 0.170827 0.897631 0.215589
H30   H     H_    0.421252 0.244493 0.926660 0.191973
H31   H     H_    0.304795 0.205537 0.868928 0.230713
O25   O     O_3   0.542895 0.695556 0.158817 -0.539905
C77   C     C_3   0.498668 0.628539 0.156079 0.130171
H32   H     H_    0.342279 0.622003 0.149105 0.115891
H33   H     H_    0.545114 0.602158 0.194275 0.173694
C78   C     C_3   0.602214 0.598527 0.107638 -0.630688
H34   H     H_    0.759390 0.602808 0.113930 0.219087
H35   H     H_    0.565006 0.546085 0.103737 0.235903
H36   H     H_    0.559073 0.624155 0.068953 0.217611
Br2   Br    Br    0.015994 0.833605 0.224072 -0.570223
Br3   Br    Br    0.644174 0.602546 0.673186 -0.546226
Br4   Br    Br    0.269284 0.829168 0.362594 -0.488751
Br5   Br    Br    0.807829 0.672653 0.280749 -0.572670
Br6   Br    Br    0.535376 0.413828 0.160434 -0.467695
Br7   Br    Br    0.658420 0.374410 0.347717 -0.525614
Br8   Br    Br    0.200739 0.075998 0.361927 -0.457679
Br9   Br    Br    0.338220 0.350905 0.054364 -0.474179
O26   O     O_3   0.498498 0.091894 0.168686 -0.551981
C79   C     C_3   0.672893 0.084554 0.197292 0.120160
H37   H     H_    0.686933 0.120323 0.231500 0.137498
H38   H     H_    0.791699 0.091176 0.168157 0.084024
C80   C     C_3   0.679710 0.015249 0.221548 -0.603738
H39   H     H_    0.698095 0.978902 0.188198 0.198781
H40   H     H_    0.797614 0.009703 0.252175 0.199561
H41   H     H_    0.546126 0.003536 0.243250 0.277423
O27   O     O_3   0.968889 0.718363 0.505216 -0.530060
C81   C     C_3   0.796210 0.716608 0.473876 0.052232
H42   H     H_    0.672527 0.739844 0.495010 0.107885
H43   H     H_    0.759544 0.665159 0.464131 0.133452
C82   C     C_3   0.824322 0.752316 0.419645 -0.521739
H44   H     H_    0.942159 0.728855 0.396583 0.260269
H45   H     H_    0.690770 0.750313 0.394323 0.196231
H46   H     H_    0.860334 0.804313 0.427393 0.237789
O28   O     O_3   0.353490 0.388995 0.267520 -0.522816
C83   C     C_3   0.153935 0.399665 0.263366 0.104080
H47   H     H_    0.074667 0.359960 0.284435 0.141128
H48   H     H_    0.105975 0.402602 0.219452 0.159787
C84   C     C_3   0.105001 0.464239 0.290970 -0.548858
H49   H     H_    0.182559 0.504895 0.270958 0.218669
H50   H     H_    0.948771 0.473911 0.287266 0.222706
H51   H     H_    0.146575 0.462180 0.335265 0.204169
O29   O     O_3   0.312155 0.092792 0.248965 -0.516350
C85   C     C_3   0.137991 0.084029 0.220467 0.167139
H52   H     H_    0.120890 0.119826 0.186131 0.097928
H53   H     H_    0.017544 0.090070 0.249148 0.109740
C86   C     C_3   0.137286 0.014744 0.196676 -0.588382
H54   H     H_    0.125819 0.978475 0.230508 0.254102
H55   H     H_    0.017665 0.008403 0.166843 0.162503
H56   H     H_    0.270012 0.003967 0.174114 0.240372
O30   O     O_3   0.099391 0.177902 0.434872 -0.523335
C87   C     C_3   0.182416 0.157420 0.485710 0.153381
H57   H     H_    0.184537 0.197578 0.516454 0.099131
H58   H     H_    0.331117 0.138900 0.479903 0.136335
C88   C     C_3   0.063937 0.102380 0.509448 -0.655711
H59   H     H_    0.059500 0.060701 0.480347 0.260310
H60   H     H_    0.128601 0.085513 0.549119 0.158899
H61   H     H_    0.915629 0.119811 0.516758 0.220151
O31   O     O_3   0.837340 0.660938 0.939794 -0.521497
C89   C     C_3   0.945758 0.643671 0.987460 0.145339
H62   H     H_    0.870466 0.662749 0.023872 0.175876
H63   H     H_    0.095810 0.661823 0.986668 0.107455
C90   C     C_3   0.953991 0.569635 0.994252 -0.602920
H64   H     H_    0.047702 0.547599 0.962809 0.259858
H65   H     H_    0.014599 0.557079 0.035534 0.173716
H66   H     H_    0.808094 0.548769 0.990511 0.253532
O32   O     O_3   0.889739 0.777881 0.999417 -0.558297
C91   C     C_3   0.054000 0.794838 0.031266 0.040972
H67   H     H_    0.051051 0.848098 0.039675 0.162816
H68   H     H_    0.191615 0.781800 0.011189 0.108555
C92   C     C_3   0.049616 0.760717 0.087082 -0.634144
H69   H     H_    0.085923 0.708074 0.083364 0.181882
H70   H     H_    0.157948 0.782787 0.114909 0.211150
H71   H     H_    0.906290 0.766331 0.105667 0.275840

loop_
_geom_bond_atom_site_label_1
_geom_bond_atom_site_label_2
_ccdc_geom_bond_type
C13   C19   A    
C59   Br8   S    
C89   H63   S    
C36   H8    S    
C27   O24   S    
C80   H39   S    
O17   V4    S    
C44   Br2   S    
C90   H66   S    
O28   C83   S    
C4    C6    S    
C7    C11   A    
C7    C8    A    
C1    O6    A    
C5    C8    A    
C72   H20   S    
C71   H17   S    
C29   C31   S    
C9    H2    S    
C56   C57   A    
C24   C28   S    
C28   C31   S    
C14   C15   A    
C82   H44   S    
C91   H68   S    
C40   C43   S    
C9    C10   A    
C16   C17   A    
C63   H10   S    
C8    O32   S    
O24   C75   S    
C78   H35   S    
O5    C3    A    
C18   C19   A    
C31   H7    S    
C85   H53   S    
C29   O23   S    
C35   O25   S    
C83   H47   S    
V2    O10   S    
C86   H54   S    
C15   Br1   S    
C47   C65   S    
C88   H60   S    
O32   C91   S    
C90   H65   S    
C64   Br7   S    
C42   C44   S    
O8    V2    S    
C38   C46   T    
C62   C63   A    
C91   C92   S    
C1    C37   S    
C49   C53   A    
C74   H26   S    
C58   O29   S    
C49   C50   A    
O1    V2    S    
C11   C15   A    
O12   C65   A    
O7    V1    S    
O15   C67   A    
O13   V3    S    
C79   H38   S    
C41   C42   S    
O31   C89   S    
O16   V4    S    
C23   C27   S    
C39   Br5   S    
C26   C34   T    
C30   C32   S    
C89   H62   S    
C39   C40   S    
C80   H40   S    
C84   H49   S    
C36   C40   S    
C36   C44   S    
C52   C54   A    
C82   H45   S    
V4    O20   S    
C43   Br4   S    
C60   C62   A    
O14   V3    S    
O27   C81   S    
C23   H6    S    
C81   H43   S    
C35   C39   S    
C27   C29   S    
C52   C53   A    
O11   C66   A    
C39   C41   S    
C91   H67   S    
C42   C46   S    
C85   C86   S    
C85   H52   S    
C49   Br9   S    
C55   C56   A    
C79   C80   S    
C86   H55   S    
C55   C61   A    
C23   C24   S    
O4    C2    A    
C51   C52   A    
C35   C42   S    
C13   C14   A    
C92   H69   S    
C28   C33   S    
C81   H42   S    
C60   C61   A    
C58   C59   A    
O12   V3    S    
C88   H61   S    
C75   H28   S    
C54   C55   A    
C25   C68   S    
O13   C68   A    
O5    V1    S    
C17   C18   A    
C76   H31   S    
C81   C82   S    
C6    C22   A    
C41   H9    S    
C71   H18   S    
C29   C30   S    
C16   H4    S    
C47   C51   A    
O17   V3    S    
O14   C66   A    
O23   C73   S    
C19   C22   A    
C12   C13   A    
C5    C67   S    
C79   H37   S    
V3    O20   S    
C84   H50   S    
C77   H33   S    
C50   H11   S    
C24   H5    S    
O19   V4    S    
C40   C45   S    
O29   C85   S    
O6    V2    S    
C20   O21   S    
O9    V2    S    
C53   C57   A    
C76   H29   S    
C31   C32   S    
C10   C12   A    
C70   H16   S    
C75   C76   S    
C54   C58   A    
C87   H58   S    
O2    V1    S    
O15   V3    S    
C48   C64   A    
C48   C63   A    
C76   H30   S    
O22   C71   S    
O21   C69   S    
C92   H71   S    
C88   H59   S    
C35   C36   S    
C51   O26   S    
C86   H56   S    
O1    C2    A    
C41   C43   S    
C12   C16   A    
C37   C45   T    
C59   C60   A    
C77   C78   S    
C2    C48   S    
O11   V4    S    
O8    C3    A    
C14   H3    S    
C7    O31   S    
C82   H46   S    
C78   H36   S    
O3    C4    A    
C80   H41   S    
C61   C64   A    
O25   C77   S    
C17   H1    S    
C72   H19   S    
C32   O22   S    
C20   C21   A    
C87   C88   S    
C70   H15   S    
C75   H27   S    
C73   H22   S    
O4    V1    S    
C3    C26   S    
O3    V1    S    
O18   V4    S    
C78   H34   S    
C18   C20   A    
C22   Br3   S    
C25   C33   T    
O30   C87   S    
C74   H24   S    
C69   H13   S    
C73   C74   S    
C47   C50   A    
C24   C32   S    
O2    C1    A    
O19   C68   A    
C84   H51   S    
C72   H21   S    
C38   C66   S    
C90   H64   S    
C6    C21   A    
C5    C9    A    
C71   C72   S    
C77   H32   S    
C65   O16   A    
C43   C44   S    
C89   C90   S    
C27   C28   S    
C30   C34   S    
C21   O27   S    
C57   Br6   S    
C56   O28   S    
O18   C67   A    
C69   H12   S    
C70   H14   S    
C74   H25   S    
C10   C11   A    
C62   O30   S    
V1    O10   S    
C83   H48   S    
C87   H57   S    
O9    C4    A    
C92   H70   S    
C73   H23   S    
C83   C84   S    
O7    V2    S    
C23   C30   S    
O26   C79   S    
C69   C70   S    
