data_mof_unit_57825.cif
_audit_creation_date              2012-12-11T16:56:21-0500
_audit_creation_method            fapswitch 2.2
_symmetry_space_group_name_H-M    P1
_symmetry_Int_Tables_number       1
_space_group_crystal_system       triclinic
_cell_length_a                    6.995902
_cell_length_b                    14.586999
_cell_length_c                    16.154847
_cell_angle_alpha                 90.547442
_cell_angle_beta                  89.501722
_cell_angle_gamma                 90.5398
_cell_volume                      1648.37998763

loop_
_atom_site_label
_atom_site_type_symbol
_atom_type_description
_atom_site_fract_x
_atom_site_fract_y
_atom_site_fract_z
_atom_type_partial_charge
O1    O     O_R   0.505830 0.583360 0.413880 -0.543525
O2    O     O_R   0.175830 0.595460 0.585520 -0.550100
O3    O     O_R   0.005520 0.416640 0.586120 -0.540031
C1    C     C_R   0.344866 0.617877 0.613895 0.715083
O4    O     O_R   0.176120 0.594390 0.414490 -0.551833
O5    O     O_R   0.005810 0.415570 0.413870 -0.523501
C2    C     C_R   0.347417 0.619760 0.388757 0.720144
O6    O     O_R   0.505540 0.584430 0.586130 -0.539641
O7    O     O_3   0.339200 0.441330 0.500000 -0.333237
V1    V     V_3+5 0.064350 0.510880 0.500000 1.437369
O8    O     O_R   0.676100 0.404540 0.414480 -0.504064
C3    C     C_R   0.845100 0.380077 0.387975 0.739229
O9    O     O_R   0.675810 0.405610 0.585510 -0.528178
C4    C     C_R   0.844237 0.383810 0.613605 0.773093
V2    V     V_3+5 0.564340 0.489120 0.500000 1.513446
O10   O     O_3   0.839360 0.558670 0.500000 -0.409113
C5    C     C_2   0.723508 0.206963 0.785629 -0.140214
C6    C     C_2   0.887123 0.182340 0.823045 -0.301789
H1    H     H_    0.589454 0.175798 0.805583 0.139416
H2    H     H_    0.022923 0.212830 0.805323 0.133380
C7    C     C_2   0.709218 0.276076 0.718361 -0.090256
C8    C     C_2   0.860387 0.315452 0.680274 -0.262734
H3    H     H_    0.566068 0.294061 0.699185 0.151213
H4    H     H_    0.004369 0.297640 0.697676 0.130387
C9    C     C_R   0.739891 0.254468 0.186312 0.000273
C10   C     C_R   0.884534 0.188128 0.181447 -0.107417
C11   C     C_R   0.023970 0.189754 0.244131 -0.136714
H5    H     H_    0.139226 0.140782 0.242560 0.151109
C12   C     C_R   0.008661 0.250406 0.312458 -0.067271
H6    H     H_    0.110552 0.247863 0.361869 0.194871
C13   C     C_R   0.855864 0.311208 0.320011 -0.080370
C14   C     C_R   0.720358 0.308910 0.257491 0.041576
C15   C     C_3   0.513613 0.286114 0.264888 0.405437
C16   C     C_3   0.528046 0.242130 0.178470 -0.155546
H7    H     H_    0.480453 0.169247 0.176167 0.170150
C17   C     C_R   0.529092 0.706211 0.722120 0.040655
C18   C     C_R   0.357319 0.688954 0.680210 -0.054874
C19   C     C_R   0.199876 0.744168 0.702237 -0.176631
H8    H     H_    0.066211 0.737152 0.669447 0.117677
C20   C     C_R   0.211337 0.807170 0.769050 -0.170199
H9    H     H_    0.085956 0.846704 0.785103 0.126855
C21   C     C_R   0.380606 0.816903 0.815788 -0.075494
C22   C     C_R   0.541008 0.768971 0.787193 0.038127
C23   C     C_3   0.680595 0.712032 0.832869 -0.407715
C24   C     C_3   0.668106 0.643015 0.761608 0.137166
H10   H     H_    0.621692 0.686831 0.892717 0.200316
H11   H     H_    0.822889 0.745992 0.837310 0.151623
H12   H     H_    0.803271 0.636879 0.725449 0.108588
C25   C     C_R   0.512579 0.690640 0.264894 0.118900
C26   C     C_R   0.364551 0.691838 0.323642 -0.129343
C27   C     C_R   0.233815 0.763505 0.317773 -0.234240
H13   H     H_    0.135460 0.774030 0.368014 0.141871
C28   C     C_R   0.233655 0.822427 0.248694 -0.162188
H14   H     H_    0.130501 0.877157 0.246491 0.123793
C29   C     C_R   0.373783 0.814413 0.185762 -0.087726
C30   C     C_R   0.511823 0.746905 0.194578 0.022312
C31   C     C_3   0.720576 0.765322 0.196682 -0.426407
C32   C     C_3   0.720135 0.714828 0.278797 0.151078
H15   H     H_    0.757042 0.839614 0.200992 0.167650
H16   H     H_    0.797203 0.731512 0.144402 0.168651
O11   O     O_R   0.229930 0.912420 0.917160 -0.538806
O12   O     O_R   0.559420 0.902500 0.088780 -0.539711
O13   O     O_R   0.729660 0.081330 0.089380 -0.543853
C33   C     C_R   0.389062 0.881789 0.117836 0.708803
O14   O     O_R   0.559650 0.901420 0.917750 -0.537407
O15   O     O_R   0.729880 0.080250 0.917130 -0.543071
C34   C     C_R   0.390822 0.880092 0.888467 0.700426
O16   O     O_R   0.229700 0.913500 0.089410 -0.539335
O17   O     O_3   0.396250 0.055540 0.003280 -0.383905
V3    V     V_3+5 0.671130 0.986010 0.003260 1.390978
O18   O     O_R   0.059600 0.091310 0.917720 -0.543105
C35   C     C_R   0.891697 0.113315 0.889717 0.734294
O19   O     O_R   0.059370 0.092380 0.088750 -0.544241
C36   C     C_R   0.890620 0.116493 0.115638 0.691020
V4    V     V_3+5 0.171120 0.007820 0.003230 1.391584
O20   O     O_3   0.896130 0.938240 0.003240 -0.367906
Br1   Br    Br    0.555581 0.526388 0.795001 -0.597803
C37   C     C_3   0.748602 0.788696 0.349628 -0.375430
C38   C     C_3   0.775667 0.754794 0.438162 -0.307445
C39   C     C_3   0.821874 0.834137 0.497261 -0.792052
H17   H     H_    0.957942 0.868399 0.478799 0.232770
H18   H     H_    0.704784 0.885061 0.497412 0.244539
H19   H     H_    0.837333 0.807587 0.561038 0.212071
H20   H     H_    0.643129 0.722094 0.461264 0.208204
H21   H     H_    0.895130 0.706238 0.440020 0.218234
H22   H     H_    0.869712 0.834379 0.333269 0.173117
H23   H     H_    0.623882 0.835552 0.350714 0.196391
C40   C     C_3   0.851190 0.629486 0.275798 -0.310071
C41   C     C_3   0.788248 0.554697 0.212623 -0.370446
C42   C     C_3   0.954471 0.495033 0.185146 -0.720846
H24   H     H_    0.067423 0.536991 0.154496 0.238618
H25   H     H_    0.013955 0.461460 0.239855 0.268831
H26   H     H_    0.903929 0.441612 0.140843 0.222885
H27   H     H_    0.676973 0.510910 0.241676 0.229298
H28   H     H_    0.725526 0.583916 0.156036 0.208283
H29   H     H_    0.996752 0.652258 0.258881 0.202414
H30   H     H_    0.855546 0.597471 0.337553 0.194762
Br2   Br    Br    0.362311 0.395614 0.281767 -0.634917
Br3   Br    Br    0.476350 0.194803 0.351645 -0.616778
C43   C     C_3   0.445092 0.301154 0.108239 -0.333213
C44   C     C_3   0.534618 0.281078 0.023105 -0.339375
C45   C     C_3   0.429929 0.331981 0.955213 -0.689659
H31   H     H_    0.279264 0.307633 0.951372 0.215839
H32   H     H_    0.432313 0.406956 0.967945 0.255992
H33   H     H_    0.501112 0.319254 0.894660 0.239730
H34   H     H_    0.687183 0.303115 0.022616 0.192282
H35   H     H_    0.528830 0.207034 0.009355 0.238934
H36   H     H_    0.288149 0.288622 0.106169 0.202056
H37   H     H_    0.469946 0.375318 0.120817 0.215933

loop_
_geom_bond_atom_site_label_1
_geom_bond_atom_site_label_2
_ccdc_geom_bond_type
C37   H23   S    
C44   H35   S    
C19   C20   A    
C29   C30   A    
C40   H29   S    
C44   C45   S    
C11   C12   A    
O19   C36   A    
C1    O6    A    
C31   C32   S    
O15   V3    S    
C28   H14   S    
O11   V4    S    
O16   V4    S    
C10   C11   A    
C18   C19   A    
C33   O16   A    
C17   C18   A    
C16   H7    S    
O5    C3    A    
C38   H20   S    
C31   H15   S    
O14   V3    S    
C30   C31   S    
O12   V3    S    
C45   H33   S    
C15   Br2   S    
C41   H27   S    
O12   C33   A    
C10   C36   S    
O8    V2    S    
O15   C35   A    
O14   C34   A    
C16   C43   S    
O1    V2    S    
O7    V1    S    
C40   H30   S    
C23   H11   S    
C9    C16   S    
C37   H22   S    
C9    C14   A    
C20   C21   A    
C43   H37   S    
O9    C4    A    
O19   V4    S    
O17   V3    S    
C39   H19   S    
C23   H10   S    
C5    C6    D    
C28   C29   A    
C6    C35   S    
C43   H36   S    
C27   H13   S    
C39   H18   S    
O4    C2    A    
C37   C38   S    
C31   H16   S    
C9    C10   A    
C5    C7    S    
C25   C32   S    
C15   Br3   S    
C41   H28   S    
O2    C1    A    
V4    O20   S    
C12   H6    S    
O11   C34   A    
C42   H25   S    
C13   C14   A    
O13   V3    S    
C29   C33   S    
C26   C27   A    
C17   C24   S    
C40   C41   S    
C45   H32   S    
O3    C4    A    
C20   H9    S    
O6    V2    S    
O9    V2    S    
C3    C13   S    
V3    O20   S    
C21   C34   S    
C8    H4    S    
C21   C22   A    
O2    V1    S    
C38   H21   S    
C23   C24   S    
C42   H26   S    
C24   H12   S    
C44   H34   S    
O1    C2    A    
C2    C26   S    
C39   H17   S    
C32   C40   S    
O5    V1    S    
O8    C3    A    
O13   C36   A    
C25   C30   A    
C14   C15   S    
C4    C8    S    
C7    H3    S    
O7    V2    S    
O4    V1    S    
C12   C13   A    
O3    V1    S    
V1    O10   S    
O18   V4    S    
C42   H24   S    
C19   H8    S    
C22   C23   S    
C43   C44   S    
C5    H1    S    
C15   C16   S    
O17   V4    S    
C6    H2    S    
C45   H31   S    
C32   C37   S    
C38   C39   S    
O18   C35   A    
C1    C18   S    
C25   C26   A    
C11   H5    S    
C17   C22   A    
C24   Br1   S    
C27   C28   A    
C41   C42   S    
C7    C8    D    
V2    O10   S    
