data_mof_unit_19227.cif
_audit_creation_date              2012-12-11T14:32:51-0500
_audit_creation_method            fapswitch 2.2
_symmetry_space_group_name_H-M    P1
_symmetry_Int_Tables_number       1
_space_group_crystal_system       triclinic
_cell_length_a                    6.932836
_cell_length_b                    14.017169
_cell_length_c                    17.867529
_cell_angle_alpha                 113.287759
_cell_angle_beta                  95.58375
_cell_angle_gamma                 90.54594
_cell_volume                      1585.12853093

loop_
_atom_site_label
_atom_site_type_symbol
_atom_type_description
_atom_site_fract_x
_atom_site_fract_y
_atom_site_fract_z
_atom_type_partial_charge
O1    O     O_R   0.484560 0.544530 0.414330 -0.533775
O2    O     O_R   0.197040 0.638810 0.585080 -0.540503
O3    O     O_R   0.026800 0.455470 0.585670 -0.541141
C1    C     C_R   0.375150 0.680917 0.608695 0.683220
O4    O     O_R   0.155000 0.556150 0.414940 -0.547752
O5    O     O_R   0.984450 0.372220 0.414320 -0.532132
C2    C     C_R   0.319589 0.568019 0.388284 0.748064
O6    O     O_R   0.526900 0.627780 0.585680 -0.540137
O7    O     O_3   0.339170 0.439750 0.499990 -0.362068
V1    V     V_3+5 0.064350 0.511180 0.500000 1.388177
O8    O     O_R   0.654880 0.361190 0.414920 -0.538310
C3    C     C_R   0.816438 0.325190 0.385793 0.777163
O9    O     O_R   0.696930 0.443850 0.585060 -0.539162
C4    C     C_R   0.873377 0.432179 0.611639 0.694189
V2    V     V_3+5 0.564340 0.488820 0.500000 1.406504
O10   O     O_3   0.839390 0.560250 0.500010 -0.380469
C5    C     C_R   0.043436 0.870507 0.827944 -0.046387
C6    C     C_R   0.907310 0.397464 0.679863 -0.052948
C7    C     C_R   0.933336 0.832052 0.686827 -0.132748
C8    C     C_R   0.977837 0.799665 0.749661 -0.198406
C9    C     C_R   0.060885 0.978887 0.845010 0.115851
C10   C     C_R   0.000865 0.015602 0.780688 0.042400
C11   C     C_R   0.946773 0.937887 0.699887 0.074554
C12   C     C_R   0.992227 0.123863 0.791080 0.061675
C13   C     C_R   0.957204 0.150432 0.721018 0.015388
C14   C     C_R   0.920060 0.069680 0.643283 -0.177362
C15   C     C_R   0.907476 0.965870 0.632269 0.151824
C16   C     C_R   0.003256 0.207155 0.868627 -0.170882
C17   C     C_R   0.023938 0.309956 0.878130 -0.211716
C18   C     C_R   0.003663 0.336093 0.810447 0.114366
C19   C     C_R   0.955649 0.257731 0.730958 0.103842
C20   C     C_R   0.016035 0.441265 0.822869 -0.129128
C21   C     C_R   0.968652 0.471575 0.758273 -0.151587
C22   C     C_R   0.904438 0.291032 0.665759 -0.209926
H1    H     H_    0.860761 0.237243 0.603699 0.103490
H2    H     H_    0.979201 0.553413 0.769641 0.091514
H3    H     H_    0.042196 0.370349 0.939636 0.136023
H4    H     H_    0.886669 0.771772 0.627310 0.156180
H5    H     H_    0.962073 0.717453 0.736691 0.105545
H6    H     H_    0.897451 0.085442 0.588971 0.132715
H7    H     H_    0.982727 0.196414 0.923517 0.153234
H8    H     H_    0.058534 0.500599 0.883447 0.144723
H9    H     H_    0.114520 0.222852 0.310510 0.166342
C23   C     C_2   0.132029 0.038987 0.182811 -0.365498
C24   C     C_2   0.970105 0.094021 0.201568 -0.017267
H10   H     H_    0.668633 0.188297 0.284746 0.134954
C25   C     C_2   0.809890 0.226254 0.313207 -0.325701
C26   C     C_2   0.973474 0.186550 0.279757 -0.154055
H11   H     H_    0.266441 0.066992 0.223210 0.138477
C27   C     C_R   0.416083 0.789368 0.676306 -0.059368
C28   C     C_R   0.533277 0.470479 0.823914 -0.056069
C29   C     C_R   0.548127 0.897098 0.817040 -0.117170
C30   C     C_R   0.494387 0.799997 0.755111 0.142040
C31   C     C_R   0.404034 0.882093 0.661539 -0.256237
C32   C     C_R   0.462158 0.983508 0.725430 0.103912
C33   C     C_R   0.530270 0.987509 0.803545 0.078697
C34   C     C_R   0.455115 0.081090 0.715899 0.048901
C35   C     C_R   0.499360 0.179644 0.785795 0.015971
C36   C     C_R   0.540263 0.175981 0.864114 -0.037981
C37   C     C_R   0.571960 0.081812 0.870420 -0.250691
C38   C     C_R   0.403640 0.082561 0.638580 -0.205346
C39   C     C_R   0.384284 0.175072 0.628113 -0.067119
C40   C     C_R   0.426659 0.271502 0.694971 0.071380
C41   C     C_R   0.495343 0.276272 0.774033 0.080740
C42   C     C_R   0.399739 0.363944 0.683756 -0.124087
C43   C     C_R   0.442462 0.459870 0.747580 -0.152627
C44   C     C_R   0.561199 0.377540 0.836206 -0.184181
H12   H     H_    0.614010 0.081812 0.930640 0.144505
H13   H     H_    0.640513 0.387361 0.893554 0.124468
H14   H     H_    0.399599 0.524393 0.734780 0.114525
H15   H     H_    0.601405 0.902601 0.877831 0.141212
H16   H     H_    0.348236 0.872542 0.600452 0.104876
H17   H     H_    0.374752 0.011623 0.584462 0.132559
H18   H     H_    0.338548 0.363294 0.625514 0.151420
H19   H     H_    0.336656 0.675756 0.199551 0.133334
C45   C     C_2   0.321615 0.604650 0.320392 -0.337351
C46   C     C_2   0.485732 0.639662 0.300134 0.178186
H20   H     H_    0.775709 0.642137 0.207487 0.134568
C47   C     C_2   0.636221 0.661846 0.185818 -0.322256
C48   C     C_2   0.477120 0.660593 0.224152 -0.121548
H21   H     H_    0.184953 0.597384 0.282704 0.103901
O11   O     O_R   0.421600 0.630430 0.917010 -0.538991
O12   O     O_R   0.793840 0.702190 0.087630 -0.544546
O13   O     O_R   0.964010 0.886170 0.088190 -0.531786
C49   C     C_R   0.631066 0.693846 0.116067 0.763843
O14   O     O_R   0.751460 0.619510 0.917500 -0.545118
O15   O     O_R   0.921330 0.802900 0.916840 -0.548376
C50   C     C_R   0.573187 0.578219 0.892012 0.672607
O16   O     O_R   0.464290 0.713700 0.088350 -0.537143
O17   O     O_3   0.609200 0.818520 0.002630 -0.361911
V3    V     V_3+5 0.884140 0.747190 0.002530 1.392905
O18   O     O_R   0.251150 0.814630 0.917340 -0.542535
C51   C     C_R   0.075094 0.828301 0.892180 0.698602
O19   O     O_R   0.293530 0.897310 0.087470 -0.527032
C52   C     C_R   0.130444 0.935645 0.114024 0.766584
V4    V     V_3+5 0.384070 0.769710 0.002370 1.417215
O20   O     O_3   0.109180 0.698190 0.002460 -0.378571
C53   C     C_3   0.851398 0.885610 0.546318 -0.816582
H22   H     H_    0.827513 0.920703 0.500484 0.213902
H23   H     H_    0.967856 0.829874 0.527187 0.204633
H24   H     H_    0.713515 0.843828 0.544909 0.200711
C54   C     C_1   0.794697 0.069161 0.144344 0.348072
N1    N     N_1   0.654958 0.050355 0.098923 -0.369220
C55   C     C_1   0.320824 0.167941 0.546303 0.262960
N2    N     N_1   0.269909 0.162285 0.480973 -0.367813
C56   C     C_3   0.510917 0.709020 0.776880 -0.757548
H25   H     H_    0.360189 0.681765 0.776394 0.185043
H26   H     H_    0.596369 0.649531 0.733801 0.186380
H27   H     H_    0.586250 0.730132 0.839003 0.234931
C57   C     C_1   0.526491 0.262771 0.941164 0.274805
N3    N     N_1   0.514437 0.331370 0.003337 -0.370999
C58   C     C_3   0.676039 0.664605 0.355412 -0.663975
H28   H     H_    0.770625 0.721575 0.345137 0.179699
H29   H     H_    0.649434 0.702157 0.420564 0.194623
H30   H     H_    0.755062 0.592575 0.344391 0.212277
C59   C     C_3   0.152541 0.048039 0.930313 -0.802818
H31   H     H_    0.237699 0.115077 0.931121 0.227000
H32   H     H_    0.039486 0.072822 0.973173 0.196942
H33   H     H_    0.261911 0.007439 0.954629 0.216715

loop_
_geom_bond_atom_site_label_1
_geom_bond_atom_site_label_2
_ccdc_geom_bond_type
C23   H11   S    
C13   C19   A    
C32   C33   A    
C40   C42   A    
C15   C53   S    
O15   V3    S    
C4    C6    S    
O2    C1    A    
C7    C8    A    
C1    O6    A    
C5    C8    A    
C58   H29   S    
O17   V3    S    
C23   C24   D    
C14   C15   A    
C39   C40   A    
C16   C17   A    
O14   V3    S    
C3    C25   S    
O5    C3    A    
C18   C19   A    
O14   C50   A    
C46   C48   S    
C56   H25   S    
V2    O10   S    
C16   H7    S    
O18   V4    S    
C21   H2    S    
C59   H31   S    
C22   H1    S    
C34   C38   A    
C57   N3    T    
C58   H28   S    
C31   C32   A    
O8    V2    S    
C30   C56   S    
O1    V2    S    
O13   V3    S    
C11   C15   A    
H9    C26   S    
C36   C37   A    
O9    C4    A    
C54   N1    T    
C9    C59   S    
C55   N2    T    
C39   C55   S    
C45   C46   D    
C35   C41   A    
C27   C30   A    
O11   V4    S    
C41   C44   A    
C12   C13   A    
O4    C2    A    
C8    H5    S    
C49   O16   A    
H20   C47   S    
C38   H17   S    
C35   C36   A    
C5    C9    A    
C42   H18   S    
C33   C37   A    
C1    C27   S    
C44   H13   S    
O13   C52   A    
C28   C50   S    
C46   C58   S    
C7    C11   A    
C17   C18   A    
C7    H4    S    
C25   C26   D    
O8    C3    A    
V4    O20   S    
C19   C22   A    
O19   C52   A    
C28   C44   A    
V3    O20   S    
O19   V4    S    
C6    C22   A    
O3    C4    A    
O12   C49   A    
C42   C43   A    
O6    V2    S    
C53   H23   S    
O9    V2    S    
C10   C12   A    
C47   C48   D    
C5    C51   S    
O2    V1    S    
C47   C49   S    
C29   C30   A    
O7    V1    S    
C24   C26   S    
H10   C25   S    
O1    C2    A    
C12   C16   A    
C45   H21   S    
O5    V1    S    
C36   C57   S    
O17   V4    S    
C2    C45   S    
C53   H24   S    
O12   V3    S    
C59   H33   S    
C20   C21   A    
O16   V4    S    
C32   C34   A    
C13   C14   A    
O4    V1    S    
C27   C31   A    
C29   H15   S    
V1    O10   S    
C18   C20   A    
C14   H6    S    
C34   C35   A    
C43   H14   S    
C56   H26   S    
O11   C50   A    
O15   C51   A    
O18   C51   A    
C59   H32   S    
O7    V2    S    
C38   C39   A    
C6    C21   A    
C24   C54   S    
C40   C41   A    
H19   C48   S    
C31   H16   S    
C37   H12   S    
C53   H22   S    
C17   H3    S    
O3    V1    S    
C20   H8    S    
C10   C11   A    
C9    C10   A    
C28   C43   A    
C58   H30   S    
C23   C52   S    
C29   C33   A    
C56   H27   S    
