data_mof_unit_20617.cif
_audit_creation_date              2012-12-10T17:10:14-0500
_audit_creation_method            fapswitch 2.2
_symmetry_space_group_name_H-M    P1
_symmetry_Int_Tables_number       1
_space_group_crystal_system       triclinic
_cell_length_a                    15.749595
_cell_length_b                    10.587606
_cell_length_c                    10.032191
_cell_angle_alpha                 87.726129
_cell_angle_beta                  89.987304
_cell_angle_gamma                 90.143934
_cell_volume                      1671.55033777

loop_
_atom_site_label
_atom_site_type_symbol
_atom_type_description
_atom_site_fract_x
_atom_site_fract_y
_atom_site_fract_z
_atom_type_partial_charge
C1    C     C_R   0.490379 0.262381 0.502937 0.888406
C2    C     C_2   0.502289 0.871316 0.485039 0.306820
C3    C     C_2   0.440067 0.067653 0.404983 0.106290
C4    C     C_R   0.338071 0.500174 0.499912 0.886260
C5    C     C_2   0.460305 0.132479 0.514366 -0.013982
C6    C     C_2   0.538155 0.585235 0.921885 0.604609
C7    C     C_2   0.550733 0.569450 0.070924 0.216151
C8    C     C_R   0.501548 0.737879 0.496877 0.921017
C9    C     C_R   0.661901 0.500032 0.500016 0.909914
C10   C     C_3   0.972128 0.385984 0.533880 0.204208
C11   C     C_3   0.026958 0.420542 0.411420 0.194464
C12   C     C_3   0.083613 0.502101 0.498740 -0.075316
C13   C     C_1   0.249400 0.500979 0.499492 -0.125536
C14   C     C_1   0.750536 0.500746 0.499997 -0.158308
C15   C     C_3   0.027588 0.468584 0.621659 0.136975
C16   C     C_3   0.997281 0.275804 0.233648 -0.804929
C17   C     C_3   0.511031 0.074299 0.744177 -0.563110
C18   C     C_3   0.700856 0.579727 0.111772 -0.766394
C19   C     C_3   0.000330 0.163194 0.593460 -0.753506
C20   C     C_3   0.999390 0.835217 0.385705 -0.742307
C21   C     C_3   0.996722 0.746521 0.752846 -0.795407
C22   C     C_3   0.002109 0.399917 0.855011 -0.784809
C23   C     C_3   0.972438 0.584944 0.587287 0.166802
C24   C     C_3   0.427482 0.054907 0.158904 -0.638628
C25   C     C_3   0.916223 0.502137 0.499626 -0.041837
C26   C     C_3   0.027363 0.617579 0.464083 0.206066
C27   C     C_3   0.970843 0.536548 0.374159 -0.262230
C28   C     C_1   0.174305 0.501680 0.498831 -0.026343
C29   C     C_1   0.825613 0.501445 0.499946 -0.026953
C30   C     C_2   0.438473 0.930213 0.420262 0.424638
F1    F     F_    0.573995 0.687255 0.857436 -0.655523
F2    F     F_    0.426495 0.467005 0.095998 -0.614928
F3    F     F_    0.371376 0.864615 0.371945 -0.686842
F4    F     F_    0.573578 0.932913 0.523664 -0.688138
H1    H     H_    0.485702 0.416577 0.899960 0.170805
H2    H     H_    0.571677 0.112810 0.702810 0.258700
H3    H     H_    0.618492 0.731324 0.103393 0.248104
H4    H     H_    0.749026 0.630928 0.169950 0.242003
H5    H     H_    0.719167 0.585574 0.004673 0.242902
H6    H     H_    0.700329 0.479085 0.147768 0.246171
H7    H     H_    0.887877 0.235613 0.512746 0.229264
H8    H     H_    0.968333 0.077136 0.635956 0.236511
H9    H     H_    0.049580 0.192493 0.665099 0.270639
H10   H     H_    0.031105 0.139405 0.498206 0.255231
H11   H     H_    0.108506 0.771835 0.485870 0.235480
H12   H     H_    0.945946 0.564057 0.273666 0.159206
H13   H     H_    0.032366 0.922820 0.349469 0.238050
H14   H     H_    0.959058 0.857735 0.472325 0.254864
H15   H     H_    0.958693 0.801764 0.303833 0.243720
H16   H     H_    0.889370 0.633072 0.738422 0.238987
H17   H     H_    0.961639 0.813210 0.815243 0.245345
H18   H     H_    0.038243 0.802974 0.684177 0.248450
H19   H     H_    0.036260 0.684575 0.819193 0.242673
H20   H     H_    0.110904 0.490219 0.780777 0.238843
H21   H     H_    0.036276 0.358079 0.942720 0.244295
H22   H     H_    0.955287 0.329535 0.821474 0.272773
H23   H     H_    0.110644 0.370721 0.262572 0.246022
H24   H     H_    0.968212 0.485610 0.885972 0.233375
H25   H     H_    0.383007 0.200755 0.275441 0.254096
H26   H     H_    0.429149 0.119039 0.068681 0.220274
H27   H     H_    0.368829 0.996767 0.155412 0.273880
H28   H     H_    0.484500 0.993370 0.157453 0.236732
H29   H     H_    0.028569 0.206529 0.169609 0.244806
H30   H     H_    0.965549 0.348831 0.168736 0.236607
H31   H     H_    0.948930 0.224768 0.295558 0.252907
H32   H     H_    0.397893 0.008925 0.656463 0.219572
H33   H     H_    0.522043 0.974879 0.779355 0.263880
H34   H     H_    0.492105 0.129886 0.830740 0.203320
N1    N     N_2   0.500900 0.501330 0.852150 -0.215527
N2    N     N_2   0.427632 0.129536 0.276724 -0.281404
N3    N     N_2   0.500930 0.501360 0.147810 0.119664
N4    N     N_2   0.060237 0.333509 0.316804 -0.291991
N5    N     N_2   0.443447 0.078811 0.645876 -0.320809
N6    N     N_2   0.618370 0.636269 0.130151 -0.277025
N7    N     N_2   0.938219 0.262169 0.571036 -0.305278
N8    N     N_2   0.061562 0.740283 0.423799 -0.281330
N9    N     N_2   0.936721 0.672684 0.679300 -0.288757
N10   N     N_2   0.062782 0.431666 0.750756 -0.293252
O1    O     O_R   0.499990 0.319060 0.613040 -0.620480
O2    O     O_R   0.500010 0.319100 0.386900 -0.601564
O3    O     O_R   0.376760 0.499970 0.613050 -0.618769
O4    O     O_R   0.376790 0.500010 0.386910 -0.552111
O5    O     O_R   0.499990 0.680900 0.613100 -0.553783
O6    O     O_R   0.500010 0.680940 0.386960 -0.604019
O7    O     O_R   0.623210 0.499990 0.613090 -0.592361
O8    O     O_R   0.623240 0.500030 0.386950 -0.607704
Zn1   Zn    Zn3+2 0.499980 0.499970 0.650990 1.018422
Zn2   Zn    Zn3+2 0.500020 0.500030 0.349010 1.071999

loop_
_geom_bond_atom_site_label_1
_geom_bond_atom_site_label_2
_ccdc_geom_bond_type
C6    N1    D    
O5    Zn1   S    
H3    N6    S    
C24   H27   S    
C8    O5    A    
C16   N4    S    
C9    C14   S    
O1    Zn1   S    
C24   N2    S    
C26   C27   S    
C12   C28   S    
H11   N8    S    
C1    C5    S    
C10   C15   S    
C7    N3    D    
O8    Zn2   S    
C15   N10   S    
C20   N8    S    
C23   C26   S    
C4    C13   S    
C18   H6    S    
C9    O7    A    
C4    O3    A    
C26   N8    S    
C13   C28   T    
C16   H29   S    
F2    N3    S    
N1    Zn1   S    
C19   H8    S    
C2    F4    S    
C15   C23   S    
C6    F1    S    
C18   N6    S    
C17   N5    S    
C19   H9    S    
C7    N6    S    
O7    Zn1   S    
C25   C29   S    
C17   H33   S    
C3    N2    S    
C22   N10   S    
C11   N4    S    
C22   H22   S    
H32   N5    S    
C12   C26   S    
C3    C30   S    
C18   H5    S    
C20   H15   S    
C9    O8    A    
H7    N7    S    
C10   N7    S    
C12   C15   S    
C11   C27   S    
C24   H26   S    
C20   H14   S    
C23   N9    S    
C22   H21   S    
C10   C25   S    
C17   H2    S    
C1    O1    A    
C14   C29   T    
H16   N9    S    
C21   H17   S    
C19   H10   S    
C27   H12   S    
C17   H34   S    
C24   H28   S    
C30   F3    S    
C8    O6    A    
C2    C8    S    
O6    Zn2   S    
C3    C5    D    
C22   H24   S    
C11   C12   S    
C6    C7    S    
C25   C27   S    
C2    C30   D    
C19   N7    S    
C18   H4    S    
O2    Zn2   S    
C21   H19   S    
O3    Zn1   S    
O4    Zn2   S    
C23   C25   S    
H23   N4    S    
C5    N5    S    
C20   H13   S    
C10   C11   S    
H25   N2    S    
N3    Zn2   S    
C4    O4    A    
H1    N1    S    
C21   N9    S    
C1    O2    A    
C16   H31   S    
C16   H30   S    
C21   H18   S    
H20   N10   S    
