data_mof_unit_21263.cif
_audit_creation_date              2012-12-10T17:14:43-0500
_audit_creation_method            fapswitch 2.2
_symmetry_space_group_name_H-M    P1
_symmetry_Int_Tables_number       1
_space_group_crystal_system       triclinic
_cell_length_a                    10.702537
_cell_length_b                    13.02023
_cell_length_c                    11.754423
_cell_angle_alpha                 99.094641
_cell_angle_beta                  92.171303
_cell_angle_gamma                 93.450361
_cell_volume                      1612.58148345

loop_
_atom_site_label
_atom_site_type_symbol
_atom_type_description
_atom_site_fract_x
_atom_site_fract_y
_atom_site_fract_z
_atom_type_partial_charge
C1    C     C_R   0.500721 0.299212 0.478603 0.830659
C2    C     C_R   0.493296 0.699970 0.521198 0.851344
C3    C     C_R   0.486959 0.136601 0.561666 -0.308238
C4    C     C_R   0.488023 0.860038 0.435444 -0.319202
C5    C     C_R   0.475099 0.028545 0.551617 -0.052187
C6    C     C_R   0.489204 0.967502 0.443382 -0.069314
C7    C     C_R   0.357692 0.424177 0.030931 -0.402635
C8    C     C_R   0.643569 0.573360 0.969113 -0.410431
C9    C     C_R   0.378734 0.421352 0.149654 0.615692
C10   C     C_R   0.622692 0.577398 0.850319 0.613667
C11   C     C_R   0.562498 0.534261 0.153562 0.597403
C12   C     C_R   0.436907 0.466431 0.846617 0.605906
C13   C     C_R   0.552683 0.526586 0.030860 -0.142870
C14   C     C_R   0.447616 0.472430 0.969107 -0.137814
C15   C     C_R   0.259529 0.497391 0.501547 0.849523
C16   C     C_R   0.740567 0.501773 0.498204 0.843205
C17   C     C_3   0.038580 0.494180 0.608175 0.066520
C18   C     C_3   0.961734 0.503333 0.389932 0.066581
C19   C     C_3   0.948157 0.411492 0.532606 -0.395911
C20   C     C_3   0.052309 0.586041 0.465450 -0.387503
C21   C     C_3   0.877169 0.501219 0.493811 -0.180632
C22   C     C_3   0.123037 0.496711 0.504861 -0.176696
C23   C     C_3   0.967816 0.582278 0.568661 0.582281
C24   C     C_3   0.033061 0.415420 0.429670 0.583480
C25   C     C_R   0.477739 0.812301 0.533214 -0.215054
C26   C     C_R   0.501793 0.185143 0.464817 -0.239069
C27   C     C_R   0.505151 0.014854 0.344735 0.434400
C28   C     C_R   0.445108 0.980520 0.647414 0.428285
C29   C     C_R   0.514490 0.123750 0.355728 0.400237
C30   C     C_R   0.449795 0.871297 0.639552 0.386289
Cu1   Cu    Cu3+1 0.509400 0.507730 0.615930 1.031706
Cu2   Cu    Cu3+1 0.490600 0.492270 0.384070 1.024098
H1    H     H_    0.903184 0.340759 0.559750 0.151594
H2    H     H_    0.097523 0.656570 0.438053 0.153453
H3    H     H_    0.496149 0.813161 0.352492 0.213099
H4    H     H_    0.485708 0.183004 0.645735 0.213748
H5    H     H_    0.271467 0.387907 0.988622 0.185707
H6    H     H_    0.730475 0.607282 0.012300 0.187149
N1    N     N_R   0.523540 0.519360 0.790140 -0.254902
N2    N     N_R   0.476460 0.480640 0.209860 -0.255374
O1    O     O_R   0.506670 0.354460 0.582000 -0.599465
O2    O     O_R   0.493330 0.645540 0.418000 -0.600279
O3    O     O_R   0.490800 0.341410 0.386200 -0.510547
O4    O     O_R   0.509200 0.658590 0.613800 -0.508231
O5    O     O_R   0.324790 0.506500 0.597880 -0.562596
O6    O     O_R   0.675210 0.493500 0.402120 -0.571269
O7    O     O_R   0.308910 0.493440 0.402080 -0.529169
O8    O     O_R   0.691090 0.506560 0.597920 -0.524939
C31   C     C_3   0.078042 0.481598 0.730867 -0.324748
C32   C     C_3   0.969000 0.490260 0.810625 -0.812056
H7    H     H_    0.939926 0.571105 0.824651 0.292480
H8    H     H_    0.888118 0.436220 0.773813 0.261860
H9    H     H_    0.999106 0.469912 0.895134 0.220858
H10   H     H_    0.111821 0.402498 0.727259 0.241147
H11   H     H_    0.154164 0.541173 0.765684 0.232233
C33   C     C_3   0.921504 0.514800 0.266852 -0.334779
C34   C     C_3   0.029694 0.502714 0.185970 -0.806734
H12   H     H_    0.112001 0.555632 0.221597 0.262412
H13   H     H_    0.057105 0.421069 0.172041 0.292778
H14   H     H_    0.999625 0.522919 0.101382 0.219435
H15   H     H_    0.843619 0.456343 0.233676 0.219996
H16   H     H_    0.888777 0.594203 0.269027 0.242875
O9    O     O_3   0.925896 0.668894 0.641505 -0.551298
C35   C     C_3   0.027391 0.742800 0.676028 -0.346281
H17   H     H_    0.054523 0.783322 0.603388 0.161745
H18   H     H_    0.109695 0.707376 0.710843 0.177266
H19   H     H_    0.997744 0.802671 0.745841 0.169990
O10   O     O_3   0.080189 0.329640 0.359402 -0.543240
C36   C     C_3   0.980981 0.256756 0.315358 -0.374029
H20   H     H_    0.911263 0.291802 0.263489 0.154755
H21   H     H_    0.935606 0.222454 0.385485 0.153769
H22   H     H_    0.019369 0.192005 0.257031 0.178753
O11   O     O_3   0.409046 0.819059 0.727195 -0.586850
C37   C     C_3   0.475721 0.856518 0.832908 -0.210428
H23   H     H_    0.424402 0.917326 0.885109 0.194527
H24   H     H_    0.573654 0.886428 0.822330 0.140100
H25   H     H_    0.479492 0.791203 0.882787 0.155998
O12   O     O_3   0.531251 0.168771 0.258002 -0.559658
C38   C     C_3   0.660723 0.188879 0.247257 -0.279564
H26   H     H_    0.710028 0.115328 0.234183 0.167675
H27   H     H_    0.703330 0.243001 0.323543 0.131125
H28   H     H_    0.674233 0.227305 0.170409 0.175127
O13   O     O_3   0.520025 0.955259 0.238311 -0.585789
C39   C     C_3   0.402072 0.936978 0.178508 -0.348548
H29   H     H_    0.366668 0.010654 0.157319 0.186261
H30   H     H_    0.332281 0.897601 0.228003 0.150677
H31   H     H_    0.412581 0.884236 0.096126 0.171924
O14   O     O_3   0.409331 0.040159 0.747448 -0.597341
C40   C     C_3   0.277275 0.038612 0.743977 -0.392482
H32   H     H_    0.233660 0.958096 0.738594 0.189655
H33   H     H_    0.240983 0.074964 0.670863 0.164648
H34   H     H_    0.248154 0.084602 0.825117 0.176643
O15   O     O_3   0.333615 0.415654 0.783728 -0.590457
C41   C     C_3   0.334149 0.306577 0.777719 -0.324389
H35   H     H_    0.255292 0.278139 0.825391 0.145235
H36   H     H_    0.423094 0.278749 0.810593 0.171300
H37   H     H_    0.314253 0.270441 0.686572 0.196631
O16   O     O_3   0.662686 0.589742 0.217457 -0.589078
C42   C     C_3   0.657257 0.698130 0.218611 -0.307082
H38   H     H_    0.678013 0.738151 0.308314 0.197045
H39   H     H_    0.565608 0.721911 0.186616 0.160325
H40   H     H_    0.732849 0.726985 0.167528 0.150347
O17   O     O_3   0.703534 0.634816 0.790554 -0.508948
C43   C     C_3   0.753420 0.729141 0.858060 -0.295672
H41   H     H_    0.842447 0.716786 0.903808 0.146545
H42   H     H_    0.687872 0.764706 0.921700 0.115216
H43   H     H_    0.774389 0.786368 0.799717 0.203653
O18   O     O_3   0.297989 0.363760 0.208604 -0.514633
C44   C     C_3   0.276296 0.260274 0.150255 -0.241229
H44   H     H_    0.360579 0.229127 0.107625 0.169881
H45   H     H_    0.196121 0.254819 0.086305 0.116596
H46   H     H_    0.250855 0.209407 0.214252 0.204131

loop_
_geom_bond_atom_site_label_1
_geom_bond_atom_site_label_2
_ccdc_geom_bond_type
C16   C21   S    
C27   C29   A    
C18   C21   S    
O11   C37   S    
C39   H31   S    
C15   O7    A    
C16   O8    A    
C43   H42   S    
C4    C25   A    
C33   C34   S    
C9    O18   S    
O15   C41   S    
C37   H24   S    
C11   O16   S    
C18   C24   S    
C22   C24   S    
C10   O17   S    
C19   C21   S    
C39   H30   S    
C44   H45   S    
C5    C6    A    
C34   H13   S    
C31   H10   S    
O18   C44   S    
C36   H21   S    
C1    O3    A    
C15   C22   S    
C29   O12   S    
Cu1   Cu2   S    
C2    O4    A    
O10   C36   S    
C37   H25   S    
C28   O14   S    
C32   H8    S    
C40   H33   S    
C6    C27   A    
C18   C33   S    
C20   H2    S    
C23   O9    S    
C4    H3    S    
C13   C14   A    
C36   H20   S    
C8    H6    S    
C43   H41   S    
C7    C14   A    
C32   H9    S    
Cu1   O4    S    
C35   H19   S    
C39   H29   S    
C4    C6    A    
C19   H1    S    
C44   H46   S    
C17   C31   S    
C38   H27   S    
C30   O11   S    
O12   C38   S    
C34   H14   S    
C41   H37   S    
C31   H11   S    
C9    N2    A    
O9    C35   S    
C10   N1    A    
C35   H18   S    
C36   H22   S    
C5    C28   A    
C42   H38   S    
C20   C23   S    
C32   H7    S    
C7    H5    S    
C41   H35   S    
C17   C23   S    
O14   C40   S    
C40   H34   S    
C41   H36   S    
C1    O1    A    
C42   H39   S    
C12   C14   A    
O16   C42   S    
Cu1   O8    S    
C21   C23   S    
C1    C26   S    
Cu2   O7    S    
C33   H16   S    
C12   O15   S    
O13   C39   S    
C15   O5    A    
C16   O6    A    
C25   C30   A    
C7    C9    A    
Cu1   O1    S    
Cu2   O6    S    
C3    C26   A    
C20   C22   S    
C3    C5    A    
C38   H28   S    
C17   C22   S    
C35   H17   S    
C12   N1    A    
C27   O13   S    
C19   C24   S    
C44   H44   S    
C11   C13   A    
C34   H12   S    
C3    H4    S    
C2    O2    A    
C28   C30   A    
C17   C19   S    
Cu2   O3    S    
Cu1   N1    S    
C2    C25   S    
C18   C20   S    
Cu2   N2    S    
C11   N2    A    
C24   O10   S    
C38   H26   S    
C8    C13   A    
C42   H40   S    
C37   H23   S    
C26   C29   A    
C8    C10   A    
C31   C32   S    
Cu1   O5    S    
O17   C43   S    
Cu2   O2    S    
C33   H15   S    
C40   H32   S    
C43   H43   S    
