data_mof_unit_50930.cif
_audit_creation_date              2012-12-10T17:31:27-0500
_audit_creation_method            fapswitch 2.2
_symmetry_space_group_name_H-M    P1
_symmetry_Int_Tables_number       1
_space_group_crystal_system       triclinic
_cell_length_a                    19.05288
_cell_length_b                    18.533952
_cell_length_c                    12.392449
_cell_angle_alpha                 89.862558
_cell_angle_beta                  129.562377
_cell_angle_gamma                 90.232018
_cell_volume                      3373.63506934

loop_
_atom_site_label
_atom_site_type_symbol
_atom_type_description
_atom_site_fract_x
_atom_site_fract_y
_atom_site_fract_z
_atom_type_partial_charge
C1    C     C_R   0.603598 0.893191 0.641766 0.856489
C2    C     C_R   0.605582 0.106055 0.644272 0.857940
C3    C     C_R   0.103576 0.393187 0.641743 0.856660
C4    C     C_R   0.105759 0.605960 0.644479 0.857510
C5    C     C_R   0.236798 0.775264 0.033658 0.062658
C6    C     C_R   0.226790 0.214115 0.017966 -0.001391
C7    C     C_R   0.736628 0.275202 0.033646 0.064515
C8    C     C_R   0.727273 0.714384 0.018478 -0.001423
C9    C     C_R   0.669069 0.256524 0.044595 0.016230
C10   C     C_R   0.674288 0.747835 0.047582 0.078373
C11   C     C_R   0.168813 0.757016 0.043907 0.015363
C12   C     C_R   0.173409 0.247249 0.046598 0.078193
C13   C     C_R   0.589587 0.220310 0.933653 0.081212
C14   C     C_R   0.596116 0.786100 0.941717 0.075373
C15   C     C_R   0.089258 0.721022 0.932636 0.081825
C16   C     C_R   0.095152 0.285390 0.940451 0.075060
C17   C     C_R   0.578672 0.201038 0.814530 0.178644
C18   C     C_R   0.578220 0.798901 0.814293 0.123329
C19   C     C_R   0.078708 0.701452 0.813948 0.176632
C20   C     C_R   0.077659 0.298525 0.813404 0.123228
C21   C     C_R   0.317068 0.809694 0.148661 0.055655
C22   C     C_R   0.284035 0.156462 0.105624 0.071761
C23   C     C_R   0.816869 0.309807 0.148331 0.056382
C24   C     C_R   0.784270 0.656584 0.105899 0.071064
C25   C     C_R   0.250909 0.822854 0.263198 0.142305
C26   C     C_R   0.265068 0.190656 0.275792 0.091922
C27   C     C_R   0.751332 0.322393 0.263895 0.141470
C28   C     C_R   0.765633 0.690952 0.276412 0.091658
C29   C     C_R   0.652915 0.176218 0.709593 -0.121886
C30   C     C_R   0.649292 0.822443 0.703926 -0.124470
C31   C     C_R   0.153518 0.675913 0.710159 -0.122938
C32   C     C_R   0.149256 0.322442 0.703889 -0.124515
C33   C     C_R   0.682839 0.025112 0.291771 -0.302305
C34   C     C_R   0.182197 0.527378 0.291176 -0.302582
C35   C     C_R   0.343386 0.998681 0.626801 0.053879
C36   C     C_R   0.843490 0.496177 0.626892 0.020418
C37   C     C_R   0.308552 0.000782 0.697337 0.135621
C38   C     C_R   0.808727 0.496628 0.697952 0.134372
C39   C     C_R   0.382803 0.097913 0.340225 0.848573
C40   C     C_R   0.386898 0.898422 0.345900 0.813135
C41   C     C_R   0.882853 0.597921 0.340284 0.848453
C42   C     C_R   0.886899 0.398408 0.345898 0.813196
C43   C     C_R   0.368422 0.002406 0.844019 -0.179750
C44   C     C_R   0.868403 0.499634 0.844027 -0.151965
C45   C     C_R   0.463415 0.004714 0.921993 -0.082653
C46   C     C_R   0.963228 0.504440 0.921891 -0.098537
C47   C     C_R   0.497098 0.005092 0.845719 0.229316
C48   C     C_R   0.996882 0.505655 0.845595 0.234580
C49   C     C_R   0.526038 0.007276 0.073573 -0.027297
C50   C     C_R   0.025775 0.507741 0.073378 -0.027845
C51   C     C_R   0.619059 0.021027 0.145596 0.139604
C52   C     C_R   0.118446 0.522974 0.145033 0.140622
C53   C     C_R   0.650490 0.026972 0.073421 -0.318109
C54   C     C_R   0.149679 0.529697 0.072569 -0.317611
C55   C     C_R   0.595606 0.012143 0.931525 0.187335
C56   C     C_R   0.095158 0.513662 0.931149 0.187264
C57   C     C_R   0.501800 0.996388 0.159281 0.008600
C58   C     C_R   0.001803 0.496131 0.159301 0.007994
C59   C     C_R   0.654784 0.013911 0.368778 0.104008
C60   C     C_R   0.154507 0.515059 0.368456 0.104250
C61   C     C_R   0.679769 0.277690 0.162926 -0.254604
C62   C     C_R   0.695032 0.736675 0.177003 -0.215300
C63   C     C_R   0.179209 0.778358 0.161904 -0.254641
C64   C     C_R   0.194086 0.236058 0.175981 -0.213490
C65   C     C_R   0.318611 0.842063 0.253785 -0.093400
C66   C     C_R   0.310516 0.149898 0.240932 -0.049002
C67   C     C_R   0.818679 0.341964 0.253874 -0.092598
C68   C     C_R   0.810772 0.650018 0.241225 -0.049569
C69   C     C_R   0.701376 0.211149 0.672922 0.095934
C70   C     C_R   0.700201 0.790830 0.669347 0.092940
C71   C     C_R   0.202818 0.710223 0.674445 0.100235
C72   C     C_R   0.200509 0.291038 0.669774 0.091994
C73   C     C_R   0.256288 0.771352 0.750401 0.137668
C74   C     C_R   0.264865 0.237723 0.757540 0.155376
C75   C     C_R   0.754440 0.272513 0.748589 0.144176
C76   C     C_R   0.764425 0.737371 0.756857 0.145245
C77   C     C_R   0.269952 0.791629 0.870803 -0.127979
C78   C     C_R   0.279579 0.218293 0.878914 -0.189827
C79   C     C_R   0.768701 0.292340 0.869659 -0.112820
C80   C     C_R   0.779449 0.718088 0.878544 -0.196128
C81   C     C_R   0.722564 0.257103 0.909554 -0.004721
C82   C     C_R   0.718414 0.738610 0.901002 -0.019112
C83   C     C_R   0.223102 0.756913 0.909949 -0.001538
C84   C     C_R   0.218173 0.238520 0.900790 -0.020368
C85   C     C_R   0.651821 0.209007 0.812589 -0.046060
C86   C     C_R   0.648093 0.787742 0.805741 -0.000454
C87   C     C_R   0.152179 0.709005 0.812684 -0.046831
C88   C     C_R   0.147796 0.287582 0.805345 0.000818
Cu1   Cu    Cu3+1 0.526340 0.000000 0.421010 0.952762
Cu2   Cu    Cu3+1 0.026340 0.500000 0.421010 0.952993
Cu3   Cu    Cu3+1 0.473640 0.000000 0.578990 0.959984
Cu4   Cu    Cu3+1 0.973640 0.500000 0.578990 0.959590
H1    H     H_    0.310789 0.839161 0.924984 0.164175
H2    H     H_    0.339510 0.187202 0.953830 0.163780
H3    H     H_    0.809266 0.340003 0.923700 0.166357
H4    H     H_    0.839291 0.686847 0.953201 0.164615
N1    N     N_R   0.566260 0.000000 0.302220 -0.178806
N2    N     N_R   0.066260 0.500000 0.302220 -0.178593
N3    N     N_R   0.434410 0.000000 0.697680 -0.231463
N4    N     N_R   0.934410 0.500000 0.697680 -0.223191
O1    O     O_R   0.608610 0.924520 0.551740 -0.557063
O2    O     O_R   0.608610 0.075480 0.551740 -0.559324
O3    O     O_R   0.108610 0.424520 0.551740 -0.556841
O4    O     O_R   0.108610 0.575480 0.551740 -0.559736
O5    O     O_R   0.564110 0.924510 0.685150 -0.548681
O6    O     O_R   0.564110 0.075490 0.685150 -0.552022
O7    O     O_R   0.064110 0.424510 0.685150 -0.548785
O8    O     O_R   0.064110 0.575490 0.685150 -0.552095
O9    O     O_R   0.435880 0.075470 0.314850 -0.582292
O10   O     O_R   0.435880 0.924530 0.314850 -0.606212
O11   O     O_R   0.935880 0.575470 0.314850 -0.582277
O12   O     O_R   0.935880 0.424530 0.314850 -0.605946
O13   O     O_R   0.391380 0.075460 0.448260 -0.559804
O14   O     O_R   0.391380 0.924540 0.448260 -0.551129
O15   O     O_R   0.891380 0.575460 0.448260 -0.559357
O16   O     O_R   0.891380 0.424540 0.448260 -0.550559
N5    N     N_3   0.254647 0.847415 0.376336 -0.577005
H5    H     H_    0.257227 0.802080 0.429061 0.201911
H6    H     H_    0.194533 0.875268 0.334369 0.203308
N6    N     N_3   0.286287 0.182990 0.408754 -0.576527
H7    H     H_    0.298415 0.234459 0.451922 0.200156
H8    H     H_    0.228769 0.162146 0.391409 0.214404
N7    N     N_3   0.755296 0.346783 0.377327 -0.575816
H9    H     H_    0.758177 0.301381 0.430181 0.202394
H10   H     H_    0.695114 0.374451 0.335638 0.202211
N8    N     N_3   0.786669 0.683095 0.409212 -0.577935
H11   H     H_    0.798796 0.734507 0.452584 0.200817
H12   H     H_    0.729040 0.662265 0.391547 0.206444
H13   H     H_    0.723010 0.035285 0.131621 0.149622
H14   H     H_    0.222026 0.538849 0.130540 0.149111
H15   H     H_    0.754247 0.036007 0.346219 0.135093
H16   H     H_    0.253351 0.539303 0.345416 0.135109
H17   H     H_    0.432726 0.984712 0.115150 0.121550
H18   H     H_    0.932880 0.483931 0.115325 0.120834
H19   H     H_    0.297166 0.997307 0.513594 0.150522
H20   H     H_    0.797684 0.493448 0.513823 0.141870
H21   H     H_    0.339160 0.004426 0.895072 0.124595
H22   H     H_    0.838486 0.499968 0.894221 0.138967
N9    N     N_3   0.211741 0.003690 0.617901 -0.608022
H23   H     H_    0.183715 0.955910 0.560445 0.206949
H24   H     H_    0.195919 0.005377 0.684630 0.220930
N10   N     N_3   0.712487 0.493587 0.623224 -0.599749
H25   H     H_    0.677000 0.489418 0.515588 0.196358
H26   H     H_    0.693575 0.542713 0.639303 0.218967
N11   N     N_3   0.647908 0.997263 0.889015 -0.497500
H27   H     H_    0.693545 0.039812 0.919342 0.198074
H28   H     H_    0.687324 0.951297 0.942640 0.198740
N12   N     N_3   0.147616 0.497218 0.889497 -0.498570
H29   H     H_    0.193665 0.539303 0.919100 0.197681
H30   H     H_    0.186564 0.451256 0.944292 0.198680
N13   N     N_3   0.517306 0.204492 0.937203 -0.598708
H31   H     H_    0.495287 0.252627 0.950700 0.222036
H32   H     H_    0.541939 0.170168 0.021571 0.234293
N14   N     N_3   0.531915 0.806159 0.960529 -0.605399
H33   H     H_    0.516251 0.860708 0.936480 0.231935
H34   H     H_    0.473218 0.775237 0.892935 0.234705
N15   N     N_3   0.016518 0.705760 0.935361 -0.599873
H35   H     H_    0.994621 0.754107 0.948434 0.222156
H36   H     H_    0.040598 0.671526 0.019617 0.234406
N16   N     N_3   0.030588 0.305243 0.958649 -0.604606
H37   H     H_    0.015747 0.360005 0.936213 0.232292
H38   H     H_    0.971460 0.275003 0.889355 0.233501
H39   H     H_    0.630349 0.263067 0.175591 0.143246
H40   H     H_    0.657048 0.763819 0.202665 0.182394
H41   H     H_    0.129468 0.764036 0.174047 0.143266
H42   H     H_    0.155850 0.263018 0.201358 0.182456
N17   N     N_3   0.400091 0.799981 0.169909 -0.590352
H43   H     H_    0.420768 0.848274 0.154299 0.242278
H44   H     H_    0.451188 0.781865 0.272078 0.231196
N18   N     N_3   0.294706 0.094405 0.047349 -0.604749
H45   H     H_    0.357299 0.096684 0.069191 0.225640
H46   H     H_    0.241967 0.090936 0.939259 0.223614
N19   N     N_3   0.899673 0.300462 0.168809 -0.590285
H47   H     H_    0.919940 0.348884 0.152869 0.241638
H48   H     H_    0.951086 0.282400 0.270890 0.233433
N20   N     N_3   0.794587 0.594423 0.047379 -0.602375
H49   H     H_    0.857111 0.596454 0.068955 0.224815
H50   H     H_    0.741704 0.590989 0.939333 0.225841
N21   N     N_3   0.693369 0.186462 0.555777 -0.574338
H51   H     H_    0.666958 0.228069 0.482365 0.206892
H52   H     H_    0.758063 0.173010 0.590559 0.203949
N22   N     N_3   0.686936 0.813238 0.546465 -0.572167
H53   H     H_    0.747981 0.834434 0.576387 0.208171
H54   H     H_    0.668471 0.768376 0.482257 0.204213
N23   N     N_3   0.195341 0.685123 0.557966 -0.574855
H55   H     H_    0.169540 0.726626 0.484484 0.206133
H56   H     H_    0.260080 0.671156 0.593510 0.204177
N24   N     N_3   0.187496 0.313541 0.547136 -0.571836
H57   H     H_    0.248551 0.334901 0.577361 0.207486
H58   H     H_    0.169301 0.268696 0.483006 0.207190
N25   N     N_3   0.295532 0.814680 0.704991 -0.615425
H59   H     H_    0.331973 0.781314 0.688800 0.198334
H60   H     H_    0.242323 0.837169 0.608380 0.211302
N26   N     N_3   0.317503 0.203527 0.726722 -0.580865
H61   H     H_    0.349436 0.243385 0.711800 0.213132
H62   H     H_    0.273174 0.174758 0.633325 0.231904
N27   N     N_3   0.792507 0.316645 0.702173 -0.599042
H63   H     H_    0.828850 0.283958 0.684801 0.191914
H64   H     H_    0.738727 0.339587 0.606369 0.234902
N28   N     N_3   0.816533 0.702805 0.725380 -0.588331
H65   H     H_    0.848352 0.742436 0.709799 0.218700
H66   H     H_    0.771845 0.673965 0.632171 0.214195
N29   N     N_3   0.488456 0.188184 0.686214 -0.536541
H67   H     H_    0.457121 0.148442 0.702724 0.281234
H68   H     H_    0.451807 0.235961 0.659642 0.204053
N30   N     N_3   0.486578 0.811680 0.689027 -0.560199
H69   H     H_    0.448263 0.765333 0.667884 0.194605
H70   H     H_    0.458608 0.854122 0.705703 0.255438
N31   N     N_3   0.988612 0.688619 0.685381 -0.537760
H71   H     H_    0.957105 0.648941 0.701695 0.281246
H72   H     H_    0.951997 0.736433 0.658627 0.203277
N32   N     N_3   0.986162 0.311621 0.688009 -0.559320
H73   H     H_    0.947519 0.265422 0.666438 0.195089
H74   H     H_    0.958368 0.354129 0.704878 0.256170
H75   H     H_    0.702941 0.017770 0.481712 0.130027
H76   H     H_    0.202679 0.519189 0.481348 0.130561

loop_
_geom_bond_atom_site_label_1
_geom_bond_atom_site_label_2
_ccdc_geom_bond_type
N26   H62   S    
N29   H67   S    
C74   N26   S    
C56   N12   S    
N8    H11   S    
Cu1   O2    S    
C16   N16   S    
Cu3   O5    S    
C53   C55   A    
C83   C87   A    
N17   H44   S    
C58   N2    A    
Cu2   O12   S    
C11   C63   A    
N11   H27   S    
C49   C57   A    
N7    H9    S    
C32   C72   A    
N19   H47   S    
C58   H18   S    
C15   C19   A    
N29   H68   S    
C18   C86   A    
C75   C79   A    
C2    C29   S    
C9    C61   A    
C28   C68   A    
C26   N6    S    
C15   N15   S    
C19   C87   A    
N5    H6    S    
C6    C12   A    
C12   C64   A    
C59   H75   S    
N23   H56   S    
C55   N11   S    
N18   H45   S    
C2    O2    A    
C3    O3    A    
C6    C22   A    
Cu1   O9    S    
C47   N3    A    
N24   H58   S    
C25   C63   A    
C53   H13   S    
C23   C67   A    
N27   H64   S    
C9    C13   A    
N22   H53   S    
C22   C66   A    
C20   N32   S    
C64   H42   S    
C27   C61   A    
C6    C84   A    
C30   C70   A    
C11   C15   A    
Cu4   O8    S    
N15   H35   S    
C72   N24   S    
C12   C16   A    
N6    H8    S    
N28   H65   S    
C49   C51   A    
C50   C52   A    
N13   H31   S    
C43   H21   S    
C30   C86   A    
C29   C85   A    
C48   C56   A    
Cu1   O1    S    
C33   H15   S    
C31   C71   A    
N26   H61   S    
C34   H16   S    
C33   C59   A    
C19   N31   S    
C14   N14   S    
C34   C60   A    
C38   N10   S    
Cu3   O6    S    
C57   H17   S    
C10   C62   A    
Cu2   O11   S    
C71   N23   S    
C35   N3    A    
C36   H20   S    
N11   H28   S    
C52   C54   A    
C41   C68   S    
C29   C69   A    
C45   C47   A    
C48   N4    A    
C40   O14   A    
C31   C87   A    
C28   C62   A    
C41   O15   A    
N25   H59   S    
C26   C66   A    
C84   C88   A    
C27   C67   A    
N12   H29   S    
C13   N13   S    
C72   C74   A    
C76   N28   S    
C35   H19   S    
N17   H43   S    
C71   C73   A    
C27   N7    S    
N30   H69   S    
C54   H14   S    
C42   O12   A    
C44   C46   A    
C39   O13   A    
C82   C86   A    
Cu1   O10   S    
C2    O6    A    
C28   N8    S    
Cu3   O13   S    
Cu1   N1    S    
N24   H57   S    
C51   C53   A    
N16   H38   S    
C79   H3    S    
C37   C43   A    
N25   H60   S    
C5    C83   A    
C38   C44   A    
Cu4   O16   S    
Cu4   O7    S    
Cu2   Cu4   S    
N27   H63   S    
C45   C49   A    
C16   C20   A    
C57   N1    A    
C70   N22   S    
N31   H71   S    
C20   C88   A    
C50   C58   A    
C25   C65   A    
C36   N4    A    
C73   N25   S    
C43   C45   A    
Cu2   O4    S    
N14   H33   S    
C22   N18   S    
N19   H48   S    
C8    C10   A    
N20   H49   S    
C7    C81   A    
N32   H74   S    
C40   C65   S    
C41   O11   A    
C42   C67   S    
C59   N1    A    
C39   C66   S    
C17   C85   A    
C80   H4    S    
C24   N20   S    
C1    O1    A    
C8    C82   A    
N6    H7    S    
Cu4   N4    S    
C47   C55   A    
C42   O16   A    
C7    C9    A    
N31   H72   S    
N8    H12   S    
C21   C65   A    
C61   H39   S    
N14   H34   S    
C14   C18   A    
C76   C80   A    
N12   H30   S    
C25   N5    S    
C75   N27   S    
C40   O10   A    
N9    H23   S    
C79   C81   A    
C54   C56   A    
C5    C11   A    
C23   N19   S    
C26   C64   A    
C33   C51   A    
C46   C50   A    
C34   C52   A    
C21   N17   S    
Cu3   O14   S    
C13   C17   A    
C18   N30   S    
C3    O7    A    
N16   H37   S    
C36   C38   A    
C60   H76   S    
C35   C37   A    
N5    H5    S    
C69   N21   S    
C70   C76   A    
N9    H24   S    
N23   H55   S    
N18   H46   S    
C78   H2    S    
C7    C23   A    
C44   H22   S    
C4    O4    A    
C77   H1    S    
C1    C30   S    
C8    C24   A    
C80   C82   A    
C69   C75   A    
N10   H26   S    
N13   H32   S    
C3    C32   S    
Cu4   O15   S    
N22   H54   S    
Cu2   O3    S    
C4    C31   S    
N7    H10   S    
C24   C68   A    
C63   H41   S    
N21   H51   S    
C46   C48   A    
C78   C84   A    
C17   N29   S    
C39   O9    A    
C5    C21   A    
N32   H73   S    
C73   C77   A    
N15   H36   S    
Cu1   Cu3   S    
C74   C78   A    
C60   N2    A    
C1    O5    A    
C77   C83   A    
N10   H25   S    
C62   H40   S    
C4    O8    A    
Cu3   N3    S    
N30   H70   S    
C37   N9    S    
Cu2   N2    S    
N28   H66   S    
C81   C85   A    
C10   C14   A    
N20   H50   S    
N21   H52   S    
C32   C88   A    
