data_mof_unit_33016.cif
_audit_creation_date              2012-12-10T19:09:05-0500
_audit_creation_method            fapswitch 2.2
_symmetry_space_group_name_H-M    P1
_symmetry_Int_Tables_number       1
_space_group_crystal_system       triclinic
_cell_length_a                    17.704559
_cell_length_b                    10.907581
_cell_length_c                    9.531926
_cell_angle_alpha                 90.435804
_cell_angle_beta                  89.999481
_cell_angle_gamma                 90.629726
_cell_volume                      1840.58308553

loop_
_atom_site_label
_atom_site_type_symbol
_atom_type_description
_atom_site_fract_x
_atom_site_fract_y
_atom_site_fract_z
_atom_type_partial_charge
C1    C     C_R   0.498496 0.262241 0.498652 0.824698
C2    C     C_R   0.885179 0.482691 0.500984 0.141966
C3    C     C_1   0.965880 0.482446 0.500010 -0.059777
C4    C     C_1   0.033631 0.483926 0.499734 -0.062707
C5    C     C_R   0.153464 0.499088 0.626621 -0.154732
C6    C     C_R   0.232180 0.503822 0.626802 -0.206800
C7    C     C_R   0.272390 0.496427 0.499885 -0.024470
C8    C     C_R   0.232444 0.484854 0.372876 -0.184896
C9    C     C_R   0.153721 0.480294 0.373020 -0.155835
C10   C     C_R   0.114333 0.487252 0.499819 0.151066
C11   C     C_R   0.504859 0.063931 0.618216 0.036196
C12   C     C_R   0.355466 0.499297 0.500023 0.793459
C13   C     C_R   0.496698 0.128471 0.493486 -0.114495
C14   C     C_R   0.485252 0.061680 0.366408 -0.079691
C15   C     C_R   0.476586 0.933733 0.370287 -0.078730
C16   C     C_R   0.490225 0.870326 0.497113 -0.126400
C17   C     C_R   0.504328 0.937156 0.619914 0.021235
C18   C     C_3   0.458793 0.934854 0.752398 -0.487160
C19   C     C_3   0.458847 0.073836 0.749198 0.299664
C20   C     C_R   0.562613 0.538680 0.074085 0.219060
C21   C     C_R   0.440878 0.452421 0.073888 -0.026827
C22   C     C_R   0.440859 0.452574 0.925144 -0.070662
C23   C     C_R   0.495323 0.737163 0.499886 0.812101
C24   C     C_R   0.562496 0.538079 0.926235 0.239622
C25   C     C_3   0.598658 0.661591 0.918669 -0.531339
C26   C     C_3   0.597789 0.664209 0.078003 -0.266165
C27   C     C_R   0.644442 0.497935 0.500036 0.786332
C28   C     C_R   0.846838 0.520436 0.621662 -0.153650
C29   C     C_R   0.768193 0.524516 0.621738 -0.190368
C30   C     C_R   0.727299 0.491733 0.500599 -0.031698
C31   C     C_R   0.766269 0.451466 0.380712 -0.156522
C32   C     C_R   0.844982 0.447487 0.380783 -0.141089
Cu1   Cu    Cu3+1 0.500000 0.499980 0.640670 0.957745
Cu2   Cu    Cu3+1 0.500000 0.500020 0.359330 0.968283
H1    H     H_    0.877730 0.547516 0.715234 0.134269
H2    H     H_    0.402137 0.891497 0.737494 0.214593
H3    H     H_    0.490964 0.899712 0.843084 0.164810
H4    H     H_    0.490882 0.120325 0.835428 0.103082
H5    H     H_    0.392603 0.414954 0.128929 0.133329
H6    H     H_    0.392369 0.416258 0.869277 0.139983
H7    H     H_    0.655781 0.657951 0.870648 0.186674
H8    H     H_    0.561017 0.730199 0.871305 0.214398
H9    H     H_    0.739558 0.554614 0.715871 0.143468
H10   H     H_    0.560655 0.735339 0.123150 0.185887
H11   H     H_    0.735938 0.423321 0.286971 0.151663
H12   H     H_    0.874440 0.417656 0.287129 0.131612
H13   H     H_    0.123152 0.504853 0.725176 0.130771
H14   H     H_    0.261441 0.513113 0.726163 0.145183
H15   H     H_    0.261904 0.478820 0.273529 0.143909
H16   H     H_    0.123609 0.471398 0.274427 0.129491
N1    N     N_R   0.500470 0.500930 0.147930 -0.187288
N2    N     N_R   0.500480 0.500890 0.852020 -0.182047
O1    O     O_R   0.500000 0.319640 0.618810 -0.565526
O2    O     O_R   0.500010 0.319680 0.381230 -0.578890
O3    O     O_R   0.391250 0.499990 0.618840 -0.587752
O4    O     O_R   0.391260 0.500020 0.381250 -0.589642
O5    O     O_R   0.499990 0.680320 0.618770 -0.575085
O6    O     O_R   0.500000 0.680360 0.381190 -0.578664
O7    O     O_R   0.608740 0.499980 0.618750 -0.584198
O8    O     O_R   0.608750 0.500010 0.381160 -0.581330
C33   C     C_1   0.446041 0.871182 0.247018 0.256953
N3    N     N_1   0.421066 0.822258 0.148991 -0.311563
O9    O     O_3   0.386667 0.121878 0.720515 -0.552577
C34   C     C_3   0.345983 0.134633 0.846904 0.083302
H17   H     H_    0.374936 0.200457 0.918913 0.149307
H18   H     H_    0.339006 0.044705 0.900198 0.159425
C35   C     C_3   0.268047 0.184248 0.814618 -0.797034
H19   H     H_    0.236859 0.119416 0.744697 0.257382
H20   H     H_    0.235707 0.196212 0.913503 0.197438
H21   H     H_    0.273431 0.274314 0.761953 0.248466
C36   C     C_1   0.674110 0.666592 0.138481 0.285323
N4    N     N_1   0.734397 0.670103 0.185239 -0.296606
C37   C     C_1   0.480080 0.121306 0.231144 0.281052
N5    N     N_1   0.476453 0.168063 0.122907 -0.350986

loop_
_geom_bond_atom_site_label_1
_geom_bond_atom_site_label_2
_ccdc_geom_bond_type
C24   N2    A    
C23   O6    A    
Cu1   O3    S    
C37   N5    T    
C26   H10   S    
C7    C8    A    
Cu1   N2    S    
Cu2   O4    S    
C5    H13   S    
C11   C19   S    
Cu2   N1    S    
C6    H14   S    
C28   C29   A    
C18   H3    S    
C20   N1    A    
C27   O8    A    
C5    C6    A    
C15   C16   A    
C2    C32   A    
C18   C19   S    
C1    O1    A    
C20   C24   A    
C28   H1    S    
C19   O9    S    
C8    C9    A    
C9    C10   A    
Cu1   O7    S    
C13   C14   A    
C29   H9    S    
C27   C30   S    
Cu2   O8    S    
C26   C36   S    
C17   C18   S    
Cu1   O1    S    
C7    C12   S    
C35   H19   S    
C14   C37   S    
C24   C25   S    
C25   H7    S    
C16   C17   A    
C25   C26   S    
C35   H20   S    
C34   H18   S    
C1    O2    A    
C34   C35   S    
C29   C30   A    
C19   H4    S    
C31   C32   A    
C21   H5    S    
C22   H6    S    
Cu1   Cu2   S    
C15   C33   S    
C12   O4    A    
Cu2   O2    S    
C16   C23   S    
C1    C13   S    
C4    C10   S    
C3    C4    T    
C21   N1    A    
C22   N2    A    
C23   O5    A    
C11   C17   A    
Cu1   O5    S    
C32   H12   S    
C9    H16   S    
C25   H8    S    
C6    C7    A    
C35   H21   S    
C34   H17   S    
C2    C3    S    
C5    C10   A    
C27   O7    A    
C11   C13   A    
C30   C31   A    
C20   C26   S    
C33   N3    T    
C12   O3    A    
O9    C34   S    
C36   N4    T    
C31   H11   S    
Cu2   O6    S    
C14   C15   A    
C2    C28   A    
C21   C22   A    
C18   H2    S    
C8    H15   S    
