data_mof_unit_54430.cif
_audit_creation_date              2013-03-05T16:06:20-0500
_audit_creation_method            fapswitch 2.2
_symmetry_space_group_name_H-M    P1
_symmetry_Int_Tables_number       1
_space_group_crystal_system       triclinic
_cell_length_a                    10.797634
_cell_length_b                    9.493222
_cell_length_c                    27.645045
_cell_angle_alpha                 90.011086
_cell_angle_beta                  88.671398
_cell_angle_gamma                 90.034615
_cell_volume                      2832.9746124

loop_
_atom_site_label
_atom_site_type_symbol
_atom_site_description
_atom_site_fract_x
_atom_site_fract_y
_atom_site_fract_z
_atom_type_partial_charge
O1    O     O_R   0.319640 0.618740 0.500000 -0.573396
O2    O     O_R   0.680360 0.381260 0.500000 -0.565459
O3    O     O_R   0.680360 0.618740 0.500000 -0.571840
O4    O     O_R   0.319640 0.381260 0.500000 -0.562170
C1    C     C_R   0.262249 0.499975 0.500138 0.880364
C2    C     C_R   0.737781 0.500100 0.500102 0.875972
O5    O     O_R   0.500020 0.618770 0.430260 -0.591396
O6    O     O_R   0.499980 0.381230 0.569740 -0.570728
O7    O     O_R   0.499980 0.618770 0.569740 -0.581160
O8    O     O_R   0.500020 0.381230 0.430260 -0.559760
C3    C     C_R   0.502688 0.499937 0.406989 0.835790
C4    C     C_R   0.495898 0.499981 0.592961 0.847642
Cu1   Cu    Cu3+1 0.500000 0.640660 0.500000 0.990543
Cu2   Cu    Cu3+1 0.500000 0.359340 0.500000 1.020196
C5    C     C_R   0.406596 0.588013 0.179816 0.642829
C6    C     C_R   0.592238 0.581429 0.820782 0.630530
O9    O     O_2   0.302131 0.583287 0.207394 -0.451610
O10   O     O_2   0.697585 0.571893 0.793886 -0.455329
N1    N     N_R   0.516100 0.552164 0.200086 -0.463240
N2    N     N_R   0.482458 0.548878 0.800012 -0.460783
C7    C     C_R   0.623713 0.542919 0.173355 0.590137
C8    C     C_R   0.374004 0.542846 0.826420 0.593888
C9    C     C_R   0.514599 0.394751 0.272094 -0.038898
C10   C     C_R   0.464392 0.394981 0.727419 -0.041383
C11   C     C_R   0.510174 0.380376 0.323367 -0.080608
C12   C     C_R   0.466219 0.381828 0.676082 -0.100855
C13   C     C_R   0.515651 0.636338 0.330926 -0.166721
C14   C     C_R   0.502870 0.634727 0.669267 -0.145221
C15   C     C_R   0.519128 0.649726 0.281089 -0.085413
C16   C     C_R   0.499464 0.647227 0.719112 -0.076514
C17   C     C_R   0.517810 0.531020 0.251529 0.261976
C18   C     C_R   0.481483 0.529230 0.748415 0.259495
C19   C     C_R   0.510243 0.603783 0.101410 -0.105029
C20   C     C_R   0.486963 0.601210 0.898711 -0.103667
C21   C     C_R   0.402139 0.623265 0.130454 -0.097794
C22   C     C_R   0.595877 0.619004 0.869944 -0.099998
C23   C     C_R   0.294602 0.679580 0.109361 0.172932
C24   C     C_R   0.702828 0.677593 0.890970 0.163953
C25   C     C_R   0.623328 0.563789 0.122737 -0.078083
C26   C     C_R   0.373910 0.562457 0.877095 -0.077849
C27   C     C_R   0.509849 0.503220 0.353121 -0.112960
C28   C     C_R   0.487856 0.503338 0.646765 -0.114028
H1    H     H_    0.516231 0.732254 0.352139 0.177450
H2    H     H_    0.518849 0.729595 0.648269 0.186991
H3    H     H_    0.521831 0.753889 0.265093 0.170078
H4    H     H_    0.512061 0.749984 0.735336 0.168523
C29   C     C_R   0.382311 0.614663 0.978273 0.040814
C30   C     C_R   0.613935 0.618080 0.021803 0.054113
C31   C     C_R   0.606794 0.642745 0.971240 -0.025300
C32   C     C_R   0.388874 0.640855 0.028868 -0.034256
C33   C     C_R   0.491746 0.620688 0.949333 0.077351
C34   C     C_R   0.504582 0.622269 0.050764 0.083782
C35   C     C_R   0.272256 0.570994 0.956671 -0.175744
C36   C     C_R   0.724795 0.576221 0.043185 -0.214641
C37   C     C_R   0.266699 0.544223 0.907158 0.229968
C38   C     C_R   0.730102 0.545504 0.092461 0.233354
O11   O     O_2   0.267761 0.519349 0.803211 -0.466113
O12   O     O_2   0.729621 0.515162 0.196230 -0.464243
C39   C     C_R   0.286124 0.683715 0.058441 -0.107209
C40   C     C_R   0.708892 0.687603 0.941871 -0.092338
H5    H     H_    0.190624 0.548337 0.978655 0.175558
H6    H     H_    0.806720 0.556532 0.020981 0.176887
C41   C     C_R   0.067305 0.457777 0.458252 0.090102
C42   C     C_R   0.932835 0.543424 0.542010 0.096952
C43   C     C_R   0.937788 0.458625 0.458166 0.116166
C44   C     C_R   0.062443 0.543337 0.542014 0.124919
C45   C     C_R   0.871614 0.500477 0.500135 -0.200107
C46   C     C_R   0.128497 0.500019 0.500180 -0.197859
C47   C     C_R   0.423858 0.074441 0.470316 -0.000236
C48   C     C_R   0.575678 0.925573 0.529875 0.004366
C49   C     C_R   0.575747 0.074577 0.529845 0.015932
C50   C     C_R   0.424066 0.925447 0.470228 -0.014906
H7    H     H_    0.363014 0.130713 0.446536 0.166666
H8    H     H_    0.636200 0.869321 0.553793 0.151834
H9    H     H_    0.636316 0.130961 0.553739 0.152600
H10   H     H_    0.363425 0.869099 0.446350 0.147875
N3    N     N_R   0.500000 0.852070 0.500000 -0.172881
N4    N     N_R   0.500000 0.147930 0.500000 -0.171350
I1    I     I_    0.158070 0.791049 0.153017 -0.091514
I2    I     I_    0.841510 0.783895 0.846839 -0.060294
C51   C     C_2   0.446708 0.241850 0.653767 0.920731
O13   O     O_2   0.520067 0.146397 0.660882 -0.588196
O14   O     O_R   0.343426 0.219055 0.625196 -0.705037
H11   H     H_    0.340490 0.119740 0.611769 0.339808
C52   C     C_2   0.500292 0.237779 0.344832 0.917141
O15   O     O_2   0.405238 0.169386 0.340280 -0.573652
O16   O     O_R   0.601064 0.180120 0.368708 -0.696577
H12   H     H_    0.583983 0.081120 0.380889 0.328357
C53   C     C_2   0.444239 0.270593 0.759467 0.919050
O17   O     O_2   0.365359 0.182967 0.749973 -0.535623
O18   O     O_R   0.514627 0.254702 0.800940 -0.734340
H13   H     H_    0.491711 0.166865 0.819992 0.347382
C54   C     C_2   0.516659 0.269048 0.239768 0.910202
O19   O     O_2   0.579243 0.166274 0.249854 -0.551564
O20   O     O_R   0.447915 0.268586 0.197523 -0.729668
H14   H     H_    0.457639 0.177784 0.178505 0.347943
I3    I     I_    0.091692 0.465895 0.884849 -0.082116
I4    I     I_    0.902438 0.458385 0.114106 -0.094718
C55   C     C_2   0.176311 0.751044 0.037166 0.886413
O21   O     O_2   0.189366 0.843031 0.006496 -0.538936
O22   O     O_R   0.057916 0.708799 0.052416 -0.719967
H15   H     H_    0.990684 0.771196 0.039474 0.354088
C56   C     C_2   0.810242 0.769564 0.963656 0.855171
O23   O     O_2   0.918395 0.742207 0.953534 -0.550809
O24   O     O_R   0.780829 0.879070 0.995755 -0.734935
H16   H     H_    0.856350 0.933556 0.006214 0.345644
I5    I     I_    0.171736 0.398356 0.394657 -0.217794
I6    I     I_    0.828390 0.604222 0.605452 -0.251441
I7    I     I_    0.841047 0.404067 0.394080 -0.164144
I8    I     I_    0.159811 0.603708 0.605462 -0.190058

loop_
_geom_bond_atom_site_label_1
_geom_bond_atom_site_label_2
_geom_bond_distance
_ccdc_geom_bond_type
C44   C46   1.406134 A    
O16   H12   1.013773 S    
C41   C43   1.398564 A    
O22   H15   1.009222 S    
C13   C15   1.383266 A    
C39   C55   1.481137 S    
O20   H14   1.013843 S    
C38   I4    2.135033 S    
C50   H10   1.081704 S    
O3    C2    1.286013 A    
N1    C17   1.436819 S    
C10   C53   1.489224 S    
C8    O11   1.345804 S    
C51   O13   1.222857 D    
C52   O15   1.223086 D    
C19   C34   1.413826 A    
C30   C36   1.404871 A    
C23   I1    2.160689 S    
C20   C33   1.413691 A    
C54   O19   1.223075 D    
C31   C40   1.419123 A    
O1    C1    1.286176 A    
C32   C39   1.422399 A    
N1    C7    1.365362 A    
C10   C12   1.424381 A    
C14   C28   1.404684 A    
O7    Cu1   1.939167 S    
C4    C28   1.488271 S    
C5    N1    1.363510 A    
C35   H5    1.080521 S    
O14   H11   1.013937 S    
C31   C33   1.410075 A    
C48   H8    1.081684 S    
C32   C34   1.412043 A    
C47   H7    1.081549 S    
C48   C49   1.414522 A    
C53   O18   1.398406 S    
C40   C56   1.481567 S    
O3    Cu1   1.958672 S    
C6    N2    1.364299 A    
C29   C35   1.404591 A    
C52   O16   1.397644 S    
C54   O20   1.398243 S    
Cu1   Cu2   2.670633 S    
C48   N3    1.366416 A    
C47   N4    1.366177 A    
O2    C2    1.287028 A    
C1    C46   1.444172 S    
C5    C21   1.407023 A    
C51   O14   1.398173 S    
C42   I6    2.142332 S    
C29   C32   1.423942 A    
Cu1   N3    2.006962 S    
C35   C37   1.394772 A    
C36   C38   1.395652 A    
C16   C18   1.393387 A    
C42   C45   1.406531 A    
O8    Cu2   1.939167 S    
C11   C27   1.426918 A    
O18   H13   1.013823 S    
C29   C33   1.412715 A    
C36   H6    1.081298 S    
C43   C45   1.405787 A    
C14   H2    1.083142 S    
C9    C54   1.490586 S    
C15   H3    1.083399 S    
C9    C17   1.413227 A    
C47   C50   1.414441 A    
O5    C3    1.298543 A    
C10   C18   1.414067 A    
C50   N3    1.366421 A    
C13   C27   1.405632 A    
C25   C38   1.419616 A    
C7    C25   1.413416 A    
C30   C34   1.411732 A    
O6    C4    1.297455 A    
C26   C37   1.419851 A    
C8    C26   1.413192 A    
C37   I3    2.134538 S    
C11   C52   1.480962 S    
C56   O24   1.398553 S    
C19   C25   1.420132 A    
C44   I8    2.143549 S    
C43   I7    2.140792 S    
C23   C39   1.413319 A    
C24   C40   1.413395 A    
C30   C31   1.421200 A    
C55   O22   1.395446 S    
N2    C8    1.366702 A    
C12   C51   1.481927 S    
C20   C26   1.419770 A    
O1    Cu1   1.958422 S    
C41   I5    2.142210 S    
C12   C28   1.425933 A    
N2    C18   1.438788 S    
C5    O9    1.347467 S    
C41   C46   1.405675 A    
C2    C45   1.445109 S    
O6    Cu2   1.939087 S    
C21   C23   1.416459 A    
C16   H4    1.083399 S    
O4    C1    1.286415 A    
O24   H16   1.013152 S    
C55   O21   1.223087 D    
C22   C24   1.418117 A    
C7    O12   1.345749 S    
C15   C17   1.392151 A    
C6    C22   1.406466 A    
C49   H9    1.081693 S    
C24   I2    2.159399 S    
C14   C16   1.382669 A    
C19   C21   1.413557 A    
C3    C27   1.489737 S    
C20   C22   1.414368 A    
Cu2   N4    2.006963 S    
O4    Cu2   1.958672 S    
O2    Cu2   1.958422 S    
O7    C4    1.297939 A    
O8    C3    1.297699 A    
C13   H1    1.083060 S    
O5    Cu1   1.939088 S    
C9    C11   1.423713 A    
C6    O10   1.347529 S    
C56   O23   1.222570 D    
C53   O17   1.222992 D    
C49   N4    1.366297 A    
C42   C44   1.399462 A    
