data_mof_unit_29728.cif
_audit_creation_date              2012-12-11T17:34:12-0500
_audit_creation_method            fapswitch 2.2
_symmetry_space_group_name_H-M    P1
_symmetry_Int_Tables_number       1
_space_group_crystal_system       triclinic
_cell_length_a                    8.563355
_cell_length_b                    16.912555
_cell_length_c                    18.993007
_cell_angle_alpha                 102.959998
_cell_angle_beta                  90.318924
_cell_angle_gamma                 96.067853
_cell_volume                      2664.41868451

loop_
_atom_site_label
_atom_site_type_symbol
_atom_type_description
_atom_site_fract_x
_atom_site_fract_y
_atom_site_fract_z
_atom_type_partial_charge
Ba1   Ba    Ba6+2 0.845660 0.536000 0.465120 2.001619
Ba2   Ba    Ba6+2 0.344160 0.464070 0.534880 1.940796
C1    C     C_3   0.574869 0.807487 0.277400 0.344200
C2    C     C_R   0.895661 0.434474 0.096751 0.030971
C3    C     C_R   0.740097 0.404263 0.075432 -0.044573
C4    C     C_3   0.145020 0.709065 0.272457 0.406379
C5    C     C_R   0.677890 0.411993 0.010206 -0.065035
C6    C     C_R   0.769759 0.448558 0.962059 0.026403
C7    C     C_R   0.925773 0.480480 0.982865 -0.002975
C8    C     C_R   0.707359 0.452845 0.894139 0.321284
C9    C     C_R   0.807931 0.477303 0.840512 -0.130140
C10   C     C_R   0.964784 0.513180 0.862778 -0.034322
C11   C     C_R   0.020368 0.516142 0.934934 0.017935
C12   C     C_3   0.617371 0.735963 0.308305 0.306149
C13   C     C_R   0.764386 0.463394 0.765236 0.025608
C14   C     C_R   0.879463 0.483094 0.716368 0.144207
C15   C     C_R   0.020643 0.533411 0.738130 -0.023289
C16   C     C_3   0.131500 0.728137 0.197989 0.275099
C17   C     C_R   0.066628 0.546365 0.813584 -0.074975
C18   C     C_R   0.140080 0.510678 0.075225 0.051362
C19   C     C_R   0.201090 0.505365 0.144254 -0.024698
C20   C     C_R   0.107333 0.463088 0.189980 -0.118694
C21   C     C_R   0.961704 0.420152 0.160380 0.408835
C22   C     C_R   0.213817 0.587581 0.841305 0.013078
C23   C     C_3   0.457825 0.195176 0.319580 0.675429
C24   C     C_R   0.267430 0.590310 0.912604 0.069522
C25   C     C_R   0.172870 0.552377 0.958864 0.054193
C26   C     C_R   0.232128 0.550175 0.029002 0.065893
C27   C     C_R   0.417686 0.628152 0.937830 -0.002105
C28   C     C_3   0.108830 0.742585 0.685494 0.846886
C29   C     C_R   0.476281 0.625456 0.006215 -0.041125
C30   C     C_R   0.385339 0.585829 0.052006 0.039650
C31   C     C_R   0.358348 0.539378 0.165927 -0.102516
C32   C     C_R   0.447259 0.579966 0.119420 -0.111238
C33   C     C_R   0.425807 0.524697 0.229951 -0.005537
C34   C     C_3   0.501791 0.176344 0.239841 -0.156515
C35   C     C_R   0.337392 0.470632 0.265165 0.256154
C36   C     C_R   0.172101 0.458449 0.259098 0.052984
C37   C     C_R   0.409757 0.726750 0.463645 0.069376
C38   C     C_R   0.543739 0.759642 0.509065 -0.177184
C39   C     C_R   0.588467 0.847464 0.525919 0.323728
C40   C     C_3   0.947655 0.721633 0.710053 -0.189486
C41   C     C_R   0.489040 0.899779 0.500696 0.240048
C42   C     C_R   0.346935 0.864873 0.464809 -0.246159
C43   C     C_R   0.304403 0.780666 0.447400 -0.006211
C44   C     C_R   0.593926 0.157680 0.514321 -0.118899
C45   C     C_3   0.088321 0.304701 0.728672 0.355023
C46   C     C_R   0.655982 0.236763 0.508523 -0.008042
C47   C     C_R   0.693852 0.102796 0.531633 0.317878
C48   C     C_R   0.812210 0.262831 0.529710 -0.251196
C49   C     C_R   0.905751 0.214014 0.557699 -0.040861
C50   C     C_R   0.848515 0.133180 0.556238 -0.072388
C51   C     C_3   0.981372 0.286932 0.378250 0.296559
C52   C     C_3   0.948117 0.194263 0.356808 -0.257236
C53   C     C_3   0.563122 0.684756 0.688727 0.487945
C54   C     C_3   0.548554 0.725504 0.770316 0.306935
C55   C     C_3   0.105152 0.288127 0.803634 -0.282029
C56   C     C_3   0.621960 0.273892 0.733637 0.244895
C57   C     C_3   0.563616 0.188191 0.741142 0.243456
C58   C     C_R   0.986699 0.476386 0.052117 0.016144
Cl1   Cl    Cl    0.634818 0.589703 0.682432 -0.724340
Cl2   Cl    Cl    0.726291 0.132175 0.746379 -0.619556
Cl3   Cl    Cl    0.852396 0.439017 0.624669 -0.703909
Cl4   Cl    Cl    0.500157 0.433638 0.884437 -0.750403
Cl5   Cl    Cl    0.885029 0.329142 0.184939 -0.603801
Cl6   Cl    Cl    0.953478 0.679215 0.151468 -0.627246
Cl7   Cl    Cl    0.114369 0.758277 0.596695 -0.643382
H1    H     H_    0.709184 0.756756 0.352023 0.089383
H2    H     H_    0.449207 0.674385 0.661707 0.055823
H3    H     H_    0.592476 0.686322 0.803852 -0.001921
H4    H     H_    0.422864 0.727414 0.782142 0.073003
H5    H     H_    0.509702 0.713627 0.332486 -0.088426
H6    H     H_    0.484923 0.839067 0.311489 -0.044178
H7    H     H_    0.347872 0.224140 0.324828 0.076575
H8    H     H_    0.586366 0.129789 0.229500 0.146401
H9    H     H_    0.395426 0.153464 0.204406 0.127018
H10   H     H_    0.561515 0.231087 0.224575 0.190223
H11   H     H_    0.523474 0.784736 0.221771 0.036788
H12   H     H_    0.951795 0.700932 0.761499 0.063778
H13   H     H_    0.230287 0.704855 0.164891 -0.023345
H14   H     H_    0.154048 0.365158 0.729208 0.074833
H15   H     H_    0.961589 0.306604 0.717057 -0.055095
H16   H     H_    0.231007 0.287709 0.817729 0.176408
H17   H     H_    0.055978 0.336541 0.844142 0.064258
H18   H     H_    0.040642 0.228128 0.805288 0.180011
H19   H     H_    0.709908 0.301295 0.778039 0.020588
H20   H     H_    0.677662 0.269449 0.680253 -0.013531
H21   H     H_    0.486665 0.156293 0.693802 0.094463
H22   H     H_    0.102253 0.643695 0.268090 0.055013
H23   H     H_    0.885560 0.776210 0.718698 0.222899
H24   H     H_    0.495922 0.191203 0.791222 0.110812
H25   H     H_    0.663798 0.374939 0.109541 0.167494
H26   H     H_    0.557729 0.385682 0.997614 0.160086
H27   H     H_    0.290944 0.614766 0.806680 0.080859
H28   H     H_    0.492161 0.658444 0.904140 0.084239
H29   H     H_    0.594246 0.653588 0.022898 0.126509
H30   H     H_    0.568365 0.603522 0.133087 0.146080
H31   H     H_    0.271161 0.720377 0.288292 -0.170872
H32   H     H_    0.474233 0.136036 0.498716 0.186746
H33   H     H_    0.266270 0.904563 0.450807 0.148282
H34   H     H_    0.891223 0.672524 0.666793 0.086030
H35   H     H_    0.926089 0.093256 0.571967 0.142074
H36   H     H_    0.865767 0.319019 0.518822 0.095528
H37   H     H_    0.139634 0.795062 0.202760 0.139478
H38   H     H_    0.894317 0.963215 0.357625 0.384681
H39   H     H_    0.732248 0.933680 0.770562 0.418275
H40   H     H_    0.547267 0.010330 0.374796 0.392677
H41   H     H_    0.414501 0.408507 0.386438 0.373319
H42   H     H_    0.990746 0.948746 0.556688 0.369373
H43   H     H_    0.268429 0.626134 0.539169 0.310565
H44   H     H_    0.214732 0.880521 0.859515 0.401319
H45   H     H_    0.873233 0.313401 0.398578 -0.002914
H46   H     H_    0.076113 0.303167 0.420880 0.040873
H47   H     H_    0.912207 0.169260 0.404083 0.063301
H48   H     H_    0.055301 0.167259 0.334864 0.157273
H49   H     H_    0.852592 0.176191 0.314696 0.173989
N1    N     N_2   0.516026 0.988132 0.517230 -0.174773
N2    N     N_2   0.656063 0.015889 0.513142 -0.110049
O1    O     O_2   0.884010 0.444810 0.325060 -0.402015
O2    O     O_2   0.231613 0.215476 0.542438 -0.458281
O3    O     O_3   0.150135 0.243037 0.677484 -0.566873
O4    O     O_3   0.132090 0.451130 0.414310 -0.427556
O5    O     O_3   0.558660 0.599640 0.536520 -0.399489
O6    O     O_2   0.381010 0.300300 0.465220 -0.450615
O7    O     O_3   0.586777 0.247279 0.358206 -0.641359
O8    O     O_2   0.433120 0.470876 0.752615 -0.398610
O9    O     O_3   0.494568 0.320519 0.739095 -0.577864
O10   O     O_3   0.640770 0.594650 0.368950 -0.418791
O11   O     O_2   0.759419 0.531604 0.242969 -0.443740
O12   O     O_3   0.658111 0.730312 0.650358 -0.588546
O13   O     O_3   0.028235 0.314647 0.316940 -0.534718
O14   O     O_3   0.669545 0.674505 0.253364 -0.572877
O15   O     O_2   0.808690 0.699720 0.534830 -0.371758
O16   O     O_3   0.053760 0.638480 0.405010 -0.360265
O17   O     O_2   0.974472 0.785366 0.457398 -0.376466
O18   O     O_2   0.863221 0.843635 0.229286 -0.204959
O19   O     O_2   0.685863 0.949955 0.247240 -0.228318
O20   O     O_3   0.813041 0.918195 0.361290 -0.505007
O21   O     O_2   0.540065 0.869603 0.863593 -0.214308
O22   O     O_2   0.797011 0.820714 0.843448 -0.277324
O23   O     O_3   0.058681 0.759610 0.323329 -0.566743
O24   O     O_3   0.674261 0.881417 0.744491 -0.383153
O25   O     O_2   0.296036 0.106371 0.402370 -0.345237
O26   O     O_2   0.342513 0.036349 0.279288 -0.271413
O27   O     O_3   0.579568 0.066597 0.369475 -0.527547
O28   O     O_2   0.351241 0.315776 0.210989 -0.330873
O29   O     O_2   0.595235 0.392082 0.268616 -0.283616
O30   O     O_3   0.365076 0.362173 0.349925 -0.577000
O31   O     O_2   0.714937 0.967631 0.635162 -0.200974
O32   O     O_2   0.839147 0.843755 0.618969 -0.210067
O33   O     O_3   0.893996 0.930581 0.525965 -0.483964
O34   O     O_2   0.305690 0.555220 0.674980 -0.440335
O35   O     O_2   0.292957 0.610225 0.356760 -0.479757
O36   O     O_2   0.435388 0.546927 0.427838 -0.275899
O37   O     O_3   0.211928 0.604810 0.492112 -0.430998
O38   O     O_2   0.350651 0.861147 0.718617 -0.208137
O39   O     O_2   0.087316 0.902708 0.740868 -0.220031
O40   O     O_3   0.202792 0.824460 0.828777 -0.504728
O41   O     O_3   0.057610 0.548940 0.585700 -0.390914
O42   O     O_3   0.548930 0.405410 0.631060 -0.376983
O43   O     O_3   0.205658 0.683002 0.690001 -0.705141
O44   O     O_3   0.631040 0.400420 0.463490 -0.411540
O45   O     O_3   0.135930 0.361590 0.595000 -0.455780
P1    P     P_3+3 0.056550 0.421630 0.336220 1.212730
P2    P     P_3+3 0.635450 0.689180 0.556380 1.169777
P3    P     P_3+3 0.099807 0.742866 0.409292 1.172471
P4    P     P_3+3 0.133150 0.578440 0.663790 1.019757
P5    P     P_3+3 0.106028 0.256933 0.591249 1.022957
P6    P     P_3+3 0.620603 0.578595 0.273826 1.105195
P7    P     P_3+3 0.560760 0.294213 0.450122 1.075409
P8    P     P_3+3 0.563499 0.416209 0.724158 1.147716
S1    S     S_3+6 0.739164 0.881535 0.276632 -0.006127
S2    S     S_3+6 0.643373 0.826427 0.807269 0.018044
S3    S     S_3+6 0.414136 0.098694 0.343774 -0.109872
S4    S     S_3+6 0.419919 0.383426 0.272118 -0.126852
S5    S     S_3+6 0.760370 0.896131 0.579750 0.041030
S6    S     S_3+6 0.348464 0.619388 0.432950 -0.099589
S7    S     S_3+6 0.190454 0.836684 0.743526 0.019142

loop_
_geom_bond_atom_site_label_1
_geom_bond_atom_site_label_2
_ccdc_geom_bond_type
O32   S5    D    
C53   C54   S    
Ba1   O10   S    
C44   H32   S    
C56   H20   S    
Ba2   O44   S    
C5    C6    A    
C12   O14   S    
C51   C52   S    
C44   C47   A    
C50   H35   S    
O23   P3    S    
C4    H31   S    
O11   P6    D    
H42   O33   S    
H44   O40   S    
C22   C24   A    
C23   H7    S    
O15   P2    D    
C34   H10   S    
H40   O27   S    
O29   S4    D    
C1    S1    S    
C45   O3    S    
C19   C31   A    
O9    P8    S    
C29   H29   S    
C20   C36   A    
C52   H47   S    
O31   S5    D    
C32   H30   S    
O4    P1    S    
Ba1   Ba2   S    
Ba1   O1    S    
C45   H15   S    
C23   O7    S    
C57   H21   S    
O19   S1    D    
C7    C11   A    
H43   O37   S    
C34   H9    S    
C15   C17   A    
H38   O20   S    
Ba1   O4    S    
C9    C13   A    
C23   S3    S    
O17   P3    D    
O18   S1    D    
Ba1   P1    S    
O41   P4    S    
Ba2   O41   S    
C52   H49   S    
C48   H36   S    
O16   P3    S    
O27   S3    S    
C51   O13   S    
C14   Cl3   S    
Ba1   P2    S    
C18   C58   A    
C43   P3    S    
C28   Cl7   S    
C37   C43   A    
C54   H4    S    
C36   P1    S    
O10   P6    S    
C19   C20   A    
O28   S4    D    
C39   C41   A    
C49   P5    S    
O38   S7    D    
Ba1   O15   S    
C56   H19   S    
C37   S6    S    
C51   H46   S    
H39   O24   S    
O24   S2    S    
C44   C46   A    
Ba2   O4    S    
Ba2   O34   S    
C5    H26   S    
C4    C16   S    
O35   S6    D    
O30   S4    S    
C40   H12   S    
C49   C50   A    
Ba1   O41   S    
C15   P4    S    
C37   C38   A    
C3    C5    A    
C2    C21   A    
C6    C7    A    
C16   H37   S    
C18   C26   A    
C48   C49   A    
C56   C57   S    
Ba2   O5    S    
O20   S1    S    
C40   H23   S    
C30   C32   A    
Ba2   O45   S    
C41   C42   A    
Ba1   O5    S    
C35   C36   A    
C34   H8    S    
C22   H27   S    
C35   S4    S    
C29   C30   A    
O44   P7    S    
C26   C30   A    
C53   O12   S    
C52   H48   S    
C2    C58   A    
C55   H16   S    
C31   C32   A    
C28   S7    S    
C55   H17   S    
C13   P8    S    
C57   H24   S    
C18   C19   A    
C4    O23   S    
O7    P7    S    
C38   P2    S    
O43   P4    S    
C1    C12   S    
C41   N1    S    
C46   P7    S    
C51   H45   S    
C16   H13   S    
C38   C39   A    
C39   S5    S    
Ba1   O44   S    
C54   H3    S    
C24   C25   A    
C33   P6    S    
O21   S2    D    
O14   P6    S    
Ba1   O16   S    
C40   H34   S    
C25   C26   A    
O34   P4    D    
C42   C43   A    
O2    P5    D    
C27   H28   S    
O8    P8    D    
O3    P5    S    
C57   Cl2   S    
O33   S5    S    
C33   C35   A    
O22   S2    D    
C12   H5    S    
C6    C8    A    
C8    Cl4   S    
C47   C50   A    
C2    C3    A    
O1    P1    D    
C9    C10   A    
Ba2   O6    S    
C16   Cl6   S    
C4    H22   S    
O25   S3    D    
C54   S2    S    
C7    C58   A    
C53   H2    S    
C17   C22   A    
O40   S7    S    
C27   C29   A    
N1    N2    D    
C42   H33   S    
O12   P2    S    
C21   Cl5   S    
C14   C15   A    
O13   P1    S    
C53   Cl1   S    
C10   C17   A    
C46   C48   A    
C31   C33   A    
O42   P8    S    
C55   H18   S    
O45   P5    S    
C28   C40   S    
O39   S7    D    
C45   H14   S    
C1    H6    S    
C3    H25   S    
C8    C9    A    
C23   C34   S    
O5    P2    S    
C47   N2    S    
O37   S6    S    
C56   O9    S    
O6    P7    D    
C10   C11   A    
C24   C27   A    
Ba2   O42   S    
O36   S6    D    
O26   S3    D    
C45   C55   S    
C12   H1    S    
C20   C21   A    
C11   C25   A    
C28   O43   S    
C1    H11   S    
Ba2   P4    S    
C13   C14   A    
H41   O30   S    
