data_mof_unit_35958.cif
_audit_creation_date              2013-03-05T15:44:18-0500
_audit_creation_method            fapswitch 2.2
_symmetry_space_group_name_H-M    P1
_symmetry_Int_Tables_number       1
_space_group_crystal_system       triclinic
_cell_length_a                    20.900949
_cell_length_b                    7.099347
_cell_length_c                    16.333983
_cell_angle_alpha                 88.413499
_cell_angle_beta                  92.441698
_cell_angle_gamma                 89.090149
_cell_volume                      2420.20500529

loop_
_atom_site_label
_atom_site_type_symbol
_atom_site_description
_atom_site_fract_x
_atom_site_fract_y
_atom_site_fract_z
_atom_type_partial_charge
O1    O     O_R   0.564840 0.505290 0.579830 -0.499516
O2    O     O_R   0.435160 0.005290 0.420170 -0.532417
O3    O     O_R   0.556720 0.179930 0.409350 -0.540004
O4    O     O_R   0.443280 0.679930 0.590650 -0.554156
C1    C     C_R   0.569494 0.346271 0.379789 1.007487
C2    C     C_R   0.430491 0.843272 0.620092 1.003557
O5    O     O_R   0.572280 0.175810 0.578530 -0.526767
O6    O     O_R   0.427720 0.675810 0.421470 -0.494878
O7    O     O_R   0.450830 0.001920 0.590540 -0.541863
O8    O     O_R   0.549170 0.501920 0.409460 -0.554183
C3    C     C_R   0.590244 0.340943 0.605004 0.961460
C4    C     C_R   0.410332 0.848021 0.394589 0.958343
O9    O     O_3   0.460130 0.338030 0.503750 -0.275681
O10   O     O_3   0.539870 0.838030 0.496250 -0.271502
V1    V     V_3+5 0.507400 0.064560 0.499310 1.339995
V2    V     V_3+5 0.492600 0.564560 0.500690 1.345535
C5    C     C_R   0.143074 0.893525 0.167685 -0.164558
C6    C     C_R   0.854551 0.426037 0.834352 -0.162119
C7    C     C_R   0.357360 0.875096 0.330955 -0.257160
C8    C     C_R   0.644221 0.336299 0.668133 -0.255823
C9    C     C_R   0.306353 0.079416 0.222401 0.337597
C10   C     C_R   0.701860 0.168112 0.783082 0.326453
C11   C     C_R   0.359137 0.029734 0.274969 0.509557
C12   C     C_R   0.648864 0.187855 0.727198 0.505785
C13   C     C_R   0.302200 0.764733 0.331242 0.572010
C14   C     C_R   0.693504 0.468659 0.666310 0.567119
C15   C     C_R   0.249010 0.810768 0.277584 -0.087290
C16   C     C_R   0.747304 0.451127 0.721761 -0.097456
C17   C     C_R   0.250726 0.968523 0.222115 -0.206471
C18   C     C_R   0.751842 0.301311 0.781501 -0.203032
C19   C     C_R   0.197505 0.007070 0.166593 0.664380
C20   C     C_R   0.805439 0.292753 0.838641 0.669507
C21   C     C_R   0.141692 0.742273 0.224835 -0.146553
C22   C     C_R   0.849627 0.569354 0.773504 -0.127115
C23   C     C_R   0.193731 0.701560 0.278995 0.090761
C24   C     C_R   0.796926 0.581790 0.718047 0.087570
H1    H     H_    0.100280 0.652599 0.226782 0.110453
H2    H     H_    0.886649 0.673856 0.769246 0.112062
H3    H     H_    0.190865 0.581911 0.321224 0.159292
H4    H     H_    0.794837 0.696159 0.672661 0.156235
C25   C     C_R   0.380186 0.802257 0.839935 0.644038
C26   C     C_R   0.618776 0.427241 0.160965 0.643028
C27   C     C_R   0.390920 0.845528 0.693296 -0.298308
C28   C     C_R   0.609098 0.362834 0.306664 -0.299986
C29   C     C_R   0.079438 0.916021 0.731716 -0.137695
C30   C     C_R   0.920861 0.403542 0.268791 -0.137672
C31   C     C_R   0.114235 0.898419 0.661697 0.629294
C32   C     C_R   0.885597 0.401440 0.338993 0.630290
C33   C     C_R   0.180820 0.880758 0.667498 -0.047527
C34   C     C_R   0.818890 0.396008 0.333207 -0.047253
C35   C     C_R   0.215163 0.886072 0.744081 0.018238
C36   C     C_R   0.785162 0.387006 0.256345 0.018408
C37   C     C_R   0.178533 0.894249 0.815944 -0.056433
C38   C     C_R   0.821884 0.399206 0.184506 -0.057037
C39   C     C_R   0.284031 0.872266 0.751999 -0.091612
C40   C     C_R   0.716368 0.377883 0.248261 -0.091344
C41   C     C_R   0.313733 0.844359 0.831892 -0.227521
C42   C     C_R   0.686092 0.404597 0.168679 -0.227924
C43   C     C_R   0.276219 0.855105 0.902083 0.408362
C44   C     C_R   0.723749 0.412886 0.098465 0.409697
C45   C     C_R   0.210078 0.881304 0.893192 -0.071839
C46   C     C_R   0.790274 0.408439 0.107271 -0.066732
C47   C     C_R   0.324778 0.885068 0.683894 0.519886
C48   C     C_R   0.676219 0.343862 0.315820 0.520330
C49   C     C_R   0.418538 0.801438 0.771665 0.158018
C50   C     C_R   0.580460 0.408361 0.228901 0.156830
C51   C     C_R   0.110497 0.911793 0.809125 -0.161705
C52   C     C_R   0.889957 0.404947 0.191311 -0.161216
H5    H     H_    0.027673 0.927948 0.725712 0.104116
H6    H     H_    0.972647 0.408763 0.274799 0.102114
H7    H     H_    0.203398 0.853663 0.611044 0.198634
H8    H     H_    0.795324 0.408530 0.390036 0.198176
H9    H     H_    0.183280 0.890787 0.948304 0.098400
H10   H     H_    0.817276 0.413422 0.052118 0.102902
O11   O     O_R   0.950790 0.256670 0.090520 -0.551714
O12   O     O_R   0.049210 0.756670 0.909480 -0.556125
O13   O     O_R   0.927720 0.590370 0.921470 -0.551749
O14   O     O_R   0.072280 0.090370 0.078530 -0.516056
C53   C     C_R   0.909474 0.424395 0.895673 0.849543
C54   C     C_R   0.089678 0.917976 0.105057 0.850168
O15   O     O_R   0.943270 0.586180 0.090640 -0.557192
O16   O     O_R   0.056730 0.086180 0.909360 -0.553351
O17   O     O_R   0.064850 0.759970 0.079840 -0.563121
O18   O     O_R   0.935150 0.259970 0.920160 -0.521912
C55   C     C_R   0.930433 0.416607 0.119225 0.830667
C56   C     C_R   0.069893 0.918594 0.881101 0.830774
O19   O     O_3   0.039850 0.428050 0.996240 -0.265912
O20   O     O_3   0.960150 0.928050 0.003760 -0.256329
V3    V     V_3+5 0.992610 0.701540 0.000700 1.205312
V4    V     V_3+5 0.007390 0.201540 0.999300 1.229168
F1    F     F_    0.199926 0.144244 0.107224 -0.642766
F2    F     F_    0.808356 0.165077 0.902177 -0.646197
F3    F     F_    0.302637 0.947268 0.608537 -0.703654
F4    F     F_    0.700387 0.281389 0.390210 -0.703423
F5    F     F_    0.083010 0.893970 0.587278 -0.645656
F6    F     F_    0.916308 0.408741 0.413651 -0.646196
N1    N     N_R   0.308868 0.249761 0.173526 0.193079
O21   O     O_R   0.354624 0.273753 0.123011 -0.132971
O22   O     O_R   0.271222 0.391328 0.188261 -0.287697
N2    N     N_R   0.705137 0.006638 0.838076 0.187375
O23   O     O_R   0.655904 0.962622 0.880351 -0.136598
O24   O     O_R   0.751789 0.884391 0.833896 -0.300827
F7    F     F_    0.411983 0.138498 0.273208 -0.605626
F8    F     F_    0.601982 0.057552 0.729548 -0.598428
F9    F     F_    0.299253 0.617329 0.385807 -0.655905
F10   F     F_    0.690254 0.610726 0.608650 -0.656125
N3    N     N_R   0.486063 0.760935 0.783561 0.154070
O25   O     O_R   0.514501 0.641971 0.737468 -0.318478
O26   O     O_R   0.518117 0.828845 0.845772 -0.119587
N4    N     N_R   0.512101 0.429515 0.216832 0.159956
O27   O     O_R   0.479293 0.533165 0.264944 -0.307390
O28   O     O_R   0.483474 0.363526 0.151684 -0.117517
N5    N     N_R   0.304531 0.849521 0.983736 0.154946
O29   O     O_R   0.345777 0.976332 0.005129 -0.196522
O30   O     O_R   0.280191 0.743378 0.040281 -0.290909
N6    N     N_R   0.695549 0.416175 0.016748 0.156664
O31   O     O_R   0.715819 0.534410 0.961744 -0.279939
O32   O     O_R   0.659097 0.278999 0.993500 -0.201770
F11   F     F_    0.407958 0.746966 0.913574 -0.539822
F12   F     F_    0.589653 0.483212 0.088199 -0.539832

loop_
_geom_bond_atom_site_label_1
_geom_bond_atom_site_label_2
_geom_bond_distance
_ccdc_geom_bond_type
C15   C17   1.422789 A    
C28   C50   1.407996 A    
O1    C3    1.321917 A    
O2    C4    1.310048 A    
C14   F10   1.359653 S    
C2    O7    1.298014 A    
N1    O21   1.299626 A    
C13   F9    1.359537 S    
C31   C33   1.394299 A    
C28   C48   1.408422 A    
O5    C3    1.315504 A    
O13   V3    2.019439 S    
C5    C21   1.404649 A    
C53   O18   1.321570 A    
O14   C54   1.327010 A    
C41   C43   1.419377 A    
C38   C52   1.423709 A    
C42   C44   1.418777 A    
N6    O31   1.301241 A    
C44   C46   1.391516 A    
C29   C31   1.388715 A    
C34   H8    1.074371 S    
N4    O27   1.300456 A    
O11   V4    1.985067 S    
O19   V4    1.755498 S    
C37   C45   1.398571 A    
O11   C55   1.311959 A    
C11   F7    1.358524 S    
C8    C12   1.408297 A    
C40   C42   1.427778 A    
C6    C53   1.490665 S    
C33   C35   1.417174 A    
C39   C47   1.431302 A    
C29   C51   1.395832 A    
C34   C36   1.416934 A    
N3    O25   1.300314 A    
C40   C48   1.432063 A    
C10   C18   1.420752 A    
C35   C39   1.441251 A    
C27   C49   1.406735 A    
O12   V3    1.976187 S    
O15   V3    1.995416 S    
C32   C34   1.394645 A    
O6    V2    1.974064 S    
C52   C55   1.480082 S    
N3    O26   1.301238 A    
C26   C42   1.413466 A    
O18   V4    1.976598 S    
C54   O17   1.312669 A    
C7    C13   1.404288 A    
N1    O22   1.300592 A    
C36   C38   1.430635 A    
N4    O28   1.300798 A    
O13   C53   1.318897 A    
O17   V3    2.001526 S    
C30   C32   1.389143 A    
C3    C8    1.494979 S    
C43   C45   1.392822 A    
C10   N2    1.435602 S    
C29   H5    1.083963 S    
C24   H4    1.083295 S    
O4    C2    1.295928 A    
C7    C11   1.411187 A    
C25   C49   1.400871 A    
O5    V1    2.019441 S    
C38   C46   1.398342 A    
C45   H9    1.083385 S    
O16   C56   1.317228 A    
C9    C17   1.414348 A    
C5    C54   1.486212 S    
O14   V4    1.974090 S    
C12   F8    1.359194 S    
O4    V2    2.015319 S    
C23   H3    1.083328 S    
C30   C52   1.395853 A    
C9    N1    1.433431 S    
O6    C4    1.327459 A    
N2    O24   1.300273 A    
O1    V2    1.977678 S    
C25   F11   1.358276 S    
O2    V1    2.002946 S    
C6    C22   1.401994 A    
C16   C24   1.404499 A    
C1    C28   1.485001 S    
O20   V4    2.192985 S    
C19   F1    1.358217 S    
C2    C27   1.482896 S    
C39   C41   1.428411 A    
C33   H7    1.074237 S    
C5    C19   1.405159 A    
C10   C12   1.407696 A    
C44   N6    1.435391 S    
C6    C20   1.409700 A    
O12   C56   1.313994 A    
O3    V1    1.995456 S    
N5    O29   1.300836 A    
C51   C56   1.480403 S    
C32   F6    1.356344 S    
C22   H2    1.083497 S    
C43   N5    1.435145 S    
O3    C1    1.299388 A    
C13   C15   1.414379 A    
C47   F3    1.356141 S    
C14   C16   1.415207 A    
O16   V4    2.015262 S    
C15   C23   1.402236 A    
C9    C11   1.403198 A    
O7    V1    1.986562 S    
C48   F4    1.356109 S    
C1    O8    1.291763 A    
C17   C19   1.423153 A    
O8    V2    1.996598 S    
C18   C20   1.426635 A    
C26   F12   1.358533 S    
C20   F2    1.357603 S    
C8    C14   1.405948 A    
C4    C7    1.492398 S    
C16   C18   1.422623 A    
N2    O23   1.300841 A    
C21   C23   1.393915 A    
N6    O32   1.300935 A    
C22   C24   1.396103 A    
C37   C51   1.424823 A    
C21   H1    1.083607 S    
C30   H6    1.083960 S    
C25   C41   1.415913 A    
O20   V3    1.738211 S    
C50   N4    1.438866 S    
C27   C47   1.407359 A    
O9    V2    1.755714 S    
C26   C50   1.400554 A    
O19   V3    2.168658 S    
C31   F5    1.356357 S    
O10   V1    1.738421 S    
C46   H10   1.083276 S    
C35   C37   1.430483 A    
C49   N3    1.439776 S    
O15   C55   1.314944 A    
C36   C40   1.440940 A    
N5    O30   1.301298 A    
