data_mof_unit_45654.cif
_audit_creation_date              2013-03-05T15:42:20-0500
_audit_creation_method            fapswitch 2.2
_symmetry_space_group_name_H-M    P1
_symmetry_Int_Tables_number       1
_space_group_crystal_system       triclinic
_cell_length_a                    7.767214
_cell_length_b                    8.576818
_cell_length_c                    19.006333
_cell_angle_alpha                 91.34646
_cell_angle_beta                  84.281605
_cell_angle_gamma                 93.800607
_cell_volume                      1256.9099075

loop_
_atom_site_label
_atom_site_type_symbol
_atom_site_description
_atom_site_fract_x
_atom_site_fract_y
_atom_site_fract_z
_atom_type_partial_charge
O1    O     O_R   0.389250 0.738570 0.504600 -0.615693
O2    O     O_R   0.610750 0.261430 0.495400 -0.615172
O3    O     O_R   0.678400 0.711620 0.492580 -0.616064
O4    O     O_R   0.321600 0.288380 0.507420 -0.620618
C1    C     C_R   0.545959 0.794870 0.498187 0.962573
C2    C     C_R   0.454043 0.205130 0.501801 0.967631
O5    O     O_R   0.355380 0.513500 0.607880 -0.559500
O6    O     O_R   0.644620 0.486500 0.392120 -0.560657
O7    O     O_R   0.644530 0.486550 0.595850 -0.630690
O8    O     O_R   0.355470 0.513450 0.404150 -0.627664
C3    C     C_R   0.499329 0.501637 0.635221 0.891848
C4    C     C_R   0.502125 0.506748 0.365009 0.886537
Zn1   Zn    Zn3+2 0.306930 0.517990 0.508030 1.014638
Zn2   Zn    Zn3+2 0.693070 0.482010 0.491970 1.014947
C5    C     C_R   0.347214 0.558494 0.755457 0.347076
C6    C     C_R   0.671482 0.558872 0.246774 0.349642
C7    C     C_R   0.358953 0.606093 0.825269 -0.209416
C8    C     C_R   0.673522 0.599470 0.176397 -0.207275
H1    H     H_    0.240909 0.630902 0.857760 0.185645
H2    H     H_    0.797222 0.611488 0.144534 0.180606
C9    C     C_R   0.518475 0.615239 0.853809 -0.008899
C10   C     C_R   0.519306 0.623931 0.147322 -0.003340
C11   C     C_R   0.668640 0.578006 0.811382 -0.095201
C12   C     C_R   0.360955 0.608218 0.189621 -0.107702
H3    H     H_    0.793172 0.581631 0.832585 0.199666
H4    H     H_    0.239548 0.625429 0.168284 0.189869
C13   C     C_R   0.659406 0.533787 0.741061 -0.168940
C14   C     C_R   0.357041 0.566416 0.259880 -0.165363
H5    H     H_    0.777862 0.508550 0.709129 0.237150
H6    H     H_    0.233048 0.555218 0.291326 0.240664
C15   C     C_R   0.500034 0.525252 0.711927 -0.199659
C16   C     C_R   0.510992 0.540454 0.289342 -0.202516
N1    N     N_R   0.674146 0.640295 0.959412 -0.162345
N2    N     N_R   0.374046 0.663878 0.041611 -0.162772
N3    N     N_R   0.673876 0.642411 0.029225 -0.159742
N4    N     N_R   0.374356 0.661988 0.971803 -0.160077
C17   C     C_R   0.523337 0.650592 0.071543 0.327173
C18   C     C_R   0.523715 0.646514 0.929485 0.327637
C19   C     C_2   0.570168 0.958347 0.497097 -0.350031
C20   C     C_2   0.429837 0.041637 0.502851 -0.353113
H7    H     H_    0.702609 0.009628 0.491585 0.187747
H8    H     H_    0.297397 0.990349 0.508358 0.188452
N5    N     N_2   0.950330 0.457950 0.481240 -0.148521
N6    N     N_2   0.049670 0.542050 0.518760 -0.149746
H9    H     H_    0.014283 0.381598 0.446922 0.206051
H10   H     H_    0.985721 0.618405 0.553083 0.208367
N7    N     N_R   0.178825 0.544029 0.730452 0.202671
O9    O     O_R   0.114532 0.407686 0.710942 -0.395817
O10   O     O_R   0.079023 0.660387 0.738655 -0.435948
N8    N     N_R   0.834243 0.540181 0.273756 0.201637
O11   O     O_R   0.901709 0.651806 0.311893 -0.405114
O12   O     O_R   0.930665 0.430381 0.247617 -0.420633

loop_
_geom_bond_atom_site_label_1
_geom_bond_atom_site_label_2
_geom_bond_distance
_ccdc_geom_bond_type
C6    N8    1.430670 S    
N8    O12   1.300741 A    
O7    Zn2   1.972768 S    
C5    C15   1.418730 A    
C11   C13   1.388167 A    
C13   H5    1.081981 S    
N2    C17   1.353989 A    
O7    C3    1.302025 A    
N2    N4    1.326275 A    
N1    C18   1.354150 A    
O6    C4    1.289959 A    
N5    N6    1.279016 D    
C14   H6    1.081533 S    
N8    O11   1.301217 A    
C3    C15   1.467675 S    
N7    O10   1.300898 A    
C6    C8    1.388383 A    
C4    C16   1.467578 S    
O5    C3    1.289904 A    
N5    H9    1.029334 S    
O2    C2    1.274687 A    
O3    Zn2   1.979839 S    
O8    C4    1.300799 A    
O1    C1    1.274702 A    
C14   C16   1.402712 A    
C20   H8    1.087831 S    
N1    N3    1.326385 A    
C12   H4    1.083038 S    
C8    H2    1.083685 S    
C11   H3    1.082621 S    
C9    C11   1.400880 A    
O2    Zn2   1.956883 S    
C10   C12   1.401184 A    
O1    Zn1   1.956883 S    
C13   C15   1.402502 A    
N4    C18   1.356400 A    
C12   C14   1.387669 A    
O5    Zn1   1.972903 S    
C2    C20   1.402730 S    
C19   H7    1.087820 S    
O4    C2    1.285062 A    
C19   C20   1.336462 D    
C5    C7    1.388991 A    
C1    C19   1.402621 S    
C6    C16   1.418578 A    
C7    H1    1.083569 S    
C5    N7    1.432305 S    
O6    Zn2   1.972905 S    
N3    C17   1.356412 A    
C8    C10   1.398159 A    
C10   C17   1.460552 S    
Zn1   N6    2.012072 S    
C7    C9    1.398096 A    
C9    C18   1.460995 S    
N7    O9    1.301330 A    
O4    Zn1   1.979839 S    
N6    H10   1.029378 S    
Zn2   N5    2.012071 S    
O3    C1    1.285049 A    
O8    Zn1   1.972772 S    
