data_mof_unit_18627.cif
_audit_creation_date              2012-12-10T21:29:37-0500
_audit_creation_method            fapswitch 2.2
_symmetry_space_group_name_H-M    P1
_symmetry_Int_Tables_number       1
_space_group_crystal_system       triclinic
_cell_length_a                    10.509453
_cell_length_b                    16.051141
_cell_length_c                    16.636911
_cell_angle_alpha                 86.968807
_cell_angle_beta                  89.465125
_cell_angle_gamma                 92.052507
_cell_volume                      2800.55721382

loop_
_atom_site_label
_atom_site_type_symbol
_atom_type_description
_atom_site_fract_x
_atom_site_fract_y
_atom_site_fract_z
_atom_type_partial_charge
C1    C     C_R   0.499322 0.488131 0.653573 0.848552
C2    C     C_R   0.498353 0.511851 0.346104 0.865529
C3    C     C_R   0.477026 0.478730 0.739904 -0.110828
C4    C     C_R   0.470810 0.520241 0.259973 -0.132671
C5    C     C_R   0.393656 0.534000 0.773311 -0.193508
C6    C     C_R   0.399871 0.454431 0.227510 -0.199920
C7    C     C_R   0.361811 0.525778 0.854165 -0.142128
C8    C     C_R   0.364191 0.459027 0.147743 -0.149116
C9    C     C_R   0.413870 0.462054 0.903146 0.273200
C10   C     C_R   0.399178 0.529787 0.098523 0.274263
C11   C     C_R   0.491768 0.404187 0.869496 -0.127336
C12   C     C_R   0.462334 0.597753 0.131066 -0.131081
C13   C     C_R   0.526547 0.412315 0.787967 -0.048525
C14   C     C_R   0.501635 0.593667 0.211297 -0.066731
C15   C     C_R   0.424747 0.763335 0.473087 -0.009369
C16   C     C_R   0.575723 0.236657 0.526389 -0.009688
C17   C     C_R   0.430575 0.850396 0.474966 -0.278971
C18   C     C_R   0.569405 0.149575 0.524896 -0.273729
C19   C     C_R   0.531655 0.891082 0.514675 0.337451
C20   C     C_R   0.467097 0.108855 0.486384 0.336537
C21   C     C_R   0.624988 0.841066 0.552284 -0.105642
C22   C     C_R   0.372901 0.158861 0.449704 -0.109059
C23   C     C_R   0.741557 0.500652 0.489224 0.926916
C24   C     C_R   0.261789 0.498742 0.516732 0.949383
C25   C     C_R   0.613496 0.753705 0.548888 -0.122099
C26   C     C_R   0.385112 0.246255 0.452463 -0.124361
C27   C     C_R   0.889078 0.347972 0.463645 -0.132014
C28   C     C_R   0.118603 0.648477 0.557326 -0.122893
C29   C     C_R   0.938770 0.271769 0.488528 -0.322410
C30   C     C_R   0.071092 0.725506 0.533535 -0.317657
C31   C     C_R   0.039629 0.268420 0.542649 -0.084352
C32   C     C_R   0.972271 0.730713 0.478069 -0.087935
C33   C     C_R   0.101416 0.344323 0.563649 0.479007
C34   C     C_R   0.909437 0.655772 0.455016 0.482599
C35   C     C_R   0.056012 0.421774 0.532130 0.007020
C36   C     C_R   0.950197 0.577107 0.486974 0.008497
C37   C     C_R   0.940478 0.423451 0.491376 -0.003304
C38   C     C_R   0.064826 0.574360 0.528471 -0.002535
C39   C     C_R   0.125995 0.497858 0.536868 -0.172765
C40   C     C_R   0.880207 0.500706 0.479321 -0.171884
H1    H     H_    0.643939 0.114774 0.554085 0.208120
H2    H     H_    0.356621 0.885211 0.445164 0.208172
H3    H     H_    0.683913 0.714585 0.577176 0.135264
H4    H     H_    0.314055 0.285357 0.424860 0.132134
H5    H     H_    0.810465 0.347293 0.422100 0.177500
H6    H     H_    0.199469 0.647018 0.597238 0.163137
H7    H     H_    0.893623 0.214845 0.468528 0.169436
H8    H     H_    0.117914 0.781578 0.554210 0.167854
H9    H     H_    0.371383 0.398799 0.263929 0.168497
H10   H     H_    0.352119 0.583511 0.736507 0.156935
H11   H     H_    0.312876 0.406335 0.123686 0.162594
H12   H     H_    0.299204 0.570339 0.878861 0.161359
H13   H     H_    0.531990 0.356031 0.908609 0.187896
H14   H     H_    0.489589 0.651424 0.091544 0.186755
H15   H     H_    0.653290 0.267318 0.556909 0.153481
H16   H     H_    0.347834 0.732671 0.441953 0.161766
N1    N     N_2   0.403589 0.460114 0.987680 -0.182794
N2    N     N_2   0.388989 0.530317 0.014227 -0.187269
N3    N     N_R   0.515300 0.716920 0.509720 -0.088883
N4    N     N_R   0.484700 0.283080 0.490280 -0.086335
N5    N     N_2   0.542551 0.980280 0.517735 -0.117374
N6    N     N_2   0.456027 0.019649 0.483430 -0.117980
O1    O     O_R   0.494530 0.422540 0.612660 -0.604599
O2    O     O_R   0.505470 0.577460 0.387340 -0.617488
O3    O     O_R   0.504350 0.561840 0.618900 -0.618702
O4    O     O_R   0.495650 0.438160 0.381100 -0.610262
O5    O     O_R   0.678310 0.430340 0.496890 -0.639466
O6    O     O_R   0.321690 0.569660 0.503110 -0.629749
O7    O     O_R   0.688140 0.569650 0.503130 -0.599914
O8    O     O_R   0.311860 0.430350 0.496870 -0.604532
Zn1   Zn    Zn3+2 0.493440 0.406980 0.495830 0.955448
Zn2   Zn    Zn3+2 0.506560 0.593020 0.504170 0.952124
C41   C     C_2   0.942883 0.815178 0.444109 0.399458
H17   H     H_    0.971880 0.869699 0.476300 0.092932
O9    O     O_2   0.892298 0.825715 0.378801 -0.511617
C42   C     C_2   0.073829 0.184831 0.576379 0.405561
H18   H     H_    0.045435 0.129597 0.545077 0.091677
O10   O     O_2   0.127976 0.175781 0.640663 -0.515163
C43   C     C_2   0.735921 0.876498 0.595314 0.401946
H19   H     H_    0.804161 0.834877 0.622897 0.052692
O11   O     O_2   0.753531 0.951583 0.600527 -0.544923
C44   C     C_2   0.260135 0.123383 0.408523 0.394979
H20   H     H_    0.191153 0.164994 0.381755 0.055599
O12   O     O_2   0.241792 0.048268 0.404003 -0.544343
O13   O     O_3   0.201192 0.345551 0.617083 -0.726672
H21   H     H_    0.254678 0.297446 0.607644 0.370729
O14   O     O_3   0.816228 0.656968 0.397296 -0.756136
H22   H     H_    0.762163 0.704933 0.406199 0.362868
C45   C     C_2   0.620002 0.354710 0.755888 0.443888
H23   H     H_    0.666749 0.368607 0.698128 0.066368
O15   O     O_2   0.647445 0.291063 0.794343 -0.533596
C46   C     C_2   0.581534 0.663861 0.240117 0.449312
H24   H     H_    0.642130 0.654752 0.291592 0.132232
O16   O     O_2   0.582374 0.732846 0.205372 -0.527359

loop_
_geom_bond_atom_site_label_1
_geom_bond_atom_site_label_2
_ccdc_geom_bond_type
O14   H22   S    
C27   C29   A    
C41   H17   S    
C23   O7    A    
C2    C4    S    
C25   H3    S    
C31   C42   S    
C24   O8    A    
O13   H21   S    
C28   H6    S    
C29   H7    S    
C22   C44   S    
C30   H8    S    
C35   C37   A    
C42   O10   D    
C7    H12   S    
C37   C40   A    
C38   C39   A    
C23   C40   S    
C24   C39   S    
C18   C20   A    
C7    C9    A    
C16   N4    A    
C23   O5    A    
C33   O13   S    
C17   H2    S    
C33   C35   A    
C10   N2    S    
C1    O3    A    
C31   C33   A    
O8    Zn1   S    
C45   O15   D    
O5    Zn1   S    
C11   H13   S    
N3    Zn2   S    
C27   H5    S    
C4    C14   A    
C41   O9    D    
C1    O1    A    
C2    O2    A    
C26   H4    S    
C36   C40   A    
C42   H18   S    
C9    N1    S    
C4    C6    A    
C18   H1    S    
C32   C41   S    
C5    C7    A    
C6    C8    A    
N4    Zn1   S    
C3    C5    A    
C1    C3    S    
C32   C34   A    
O7    Zn2   S    
C35   C39   A    
O4    Zn1   S    
C28   C38   A    
O6    Zn2   S    
C21   C43   S    
C46   O16   D    
C9    C11   A    
C8    H11   S    
C14   C46   S    
C10   C12   A    
C16   C18   A    
C12   C14   A    
C44   O12   D    
C5    H10   S    
C20   C22   A    
C43   O11   D    
C15   C17   A    
C21   C25   A    
C13   C45   S    
C15   N3    A    
O1    Zn1   S    
C2    O4    A    
C3    C13   A    
O3    Zn2   S    
C15   H16   S    
C28   C30   A    
C16   H15   S    
C29   C31   A    
C30   C32   A    
C11   C13   A    
N1    N2    D    
C19   N5    S    
C36   C38   A    
C46   H24   S    
C17   C19   A    
C34   C36   A    
C34   O14   S    
O2    Zn2   S    
C6    H9    S    
C20   N6    S    
N5    N6    D    
C24   O6    A    
C43   H19   S    
C8    C10   A    
C44   H20   S    
C22   C26   A    
C25   N3    A    
C45   H23   S    
C26   N4    A    
C12   H14   S    
C27   C37   A    
C19   C21   A    
