data_mof_unit_35652.cif
_audit_creation_date              2012-12-10T19:45:01-0500
_audit_creation_method            fapswitch 2.2
_symmetry_space_group_name_H-M    P1
_symmetry_Int_Tables_number       1
_space_group_crystal_system       triclinic
_cell_length_a                    15.100922
_cell_length_b                    10.831826
_cell_length_c                    13.673821
_cell_angle_alpha                 89.975665
_cell_angle_beta                  89.513094
_cell_angle_gamma                 89.816161
_cell_volume                      2236.54210058

loop_
_atom_site_label
_atom_site_type_symbol
_atom_type_description
_atom_site_fract_x
_atom_site_fract_y
_atom_site_fract_z
_atom_type_partial_charge
C1    C     C_R   0.500044 0.262282 0.499732 0.882587
C2    C     C_R   0.624603 0.866727 0.620860 0.119099
C3    C     C_R   0.396316 0.177887 0.286451 -0.020893
C4    C     C_R   0.602142 0.823242 0.714654 -0.030215
C5    C     C_R   0.334885 0.245586 0.232212 -0.124156
C6    C     C_R   0.664123 0.757350 0.769500 -0.122772
C7    C     C_R   0.249919 0.267093 0.269995 -0.113214
C8    C     C_R   0.749348 0.737030 0.732034 -0.108760
C9    C     C_R   0.437152 0.935387 0.441798 -0.050215
C10   C     C_R   0.560115 0.064083 0.559398 -0.045926
C11   C     C_R   0.497689 0.871437 0.501726 -0.153069
C12   C     C_R   0.499351 0.737604 0.500303 0.881251
C13   C     C_R   0.500555 0.128232 0.498642 -0.153286
C14   C     C_R   0.558337 0.934979 0.561462 -0.080561
C15   C     C_R   0.439528 0.064684 0.439148 -0.078529
C16   C     C_R   0.328657 0.492340 0.500602 0.940976
C17   C     C_R   0.671256 0.509384 0.499426 0.935520
C18   C     C_R   0.558127 0.425809 0.792708 0.023056
C19   C     C_R   0.441914 0.574250 0.207290 0.018439
C20   C     C_R   0.442194 0.574612 0.793730 0.071034
C21   C     C_R   0.557784 0.425355 0.206267 0.071074
C22   C     C_R   0.440781 0.576400 0.896850 -0.009041
C23   C     C_R   0.039691 0.432719 0.670632 -0.099334
C24   C     C_R   0.559217 0.423597 0.103145 -0.008583
C25   C     C_R   0.500071 0.500100 0.948147 0.082507
C26   C     C_R   0.499944 0.499925 0.051849 0.083964
C27   C     C_R   0.559491 0.423977 0.895798 -0.014332
C28   C     C_R   0.440530 0.576060 0.104199 -0.013176
C29   C     C_R   0.381676 0.652149 0.949656 -0.168767
C30   C     C_R   0.618313 0.347831 0.050334 -0.172865
C31   C     C_R   0.381517 0.651934 0.052437 -0.180896
C32   C     C_R   0.618482 0.348063 0.947549 -0.177120
C33   C     C_R   0.816549 0.569078 0.417415 0.355508
C34   C     C_R   0.960407 0.576096 0.330231 -0.102065
C35   C     C_R   0.182994 0.436129 0.582525 0.350909
C36   C     C_R   0.768137 0.521525 0.498710 -0.174275
C37   C     C_R   0.231732 0.483942 0.501605 -0.183884
C38   C     C_R   0.812999 0.482807 0.582531 -0.311198
C39   C     C_R   0.187241 0.527468 0.418985 -0.265658
C40   C     C_R   0.904680 0.479364 0.584495 0.106018
C41   C     C_R   0.095496 0.530831 0.416767 0.097919
C42   C     C_R   0.953500 0.510123 0.500035 0.037289
C43   C     C_R   0.046522 0.498822 0.500839 0.032148
C44   C     C_R   0.909644 0.552725 0.415149 -0.018288
C45   C     C_R   0.226100 0.220250 0.361769 -0.123861
C46   C     C_R   0.090234 0.455030 0.585419 -0.017510
C47   C     C_R   0.948013 0.443175 0.669684 -0.217363
C48   C     C_R   0.052216 0.567586 0.331701 -0.211288
C49   C     C_2   0.368671 0.867792 0.385183 0.833330
C50   C     C_2   0.627904 0.131304 0.616738 0.833037
C51   C     C_R   0.772807 0.783035 0.639879 -0.120062
C52   C     C_R   0.287620 0.153558 0.416623 -0.108526
C53   C     C_R   0.710671 0.847580 0.584302 -0.110027
C54   C     C_R   0.373518 0.133470 0.379877 0.124502
Cu1   Cu    Cu3+1 0.500010 0.499980 0.597420 1.006502
Cu2   Cu    Cu3+1 0.499990 0.500020 0.402580 1.010143
H1    H     H_    0.603441 0.368100 0.751272 0.152798
H2    H     H_    0.224280 0.559498 0.355590 0.182739
H3    H     H_    0.910876 0.422806 0.735915 0.147515
H4    H     H_    0.089454 0.588836 0.265716 0.145844
H5    H     H_    0.070087 0.409633 0.739485 0.212453
H6    H     H_    0.930169 0.598415 0.261155 0.212545
H7    H     H_    0.202469 0.319812 0.228119 0.137426
H8    H     H_    0.797282 0.685893 0.774451 0.137680
H9    H     H_    0.160142 0.236421 0.390732 0.152764
H10   H     H_    0.838980 0.767881 0.611187 0.153573
H11   H     H_    0.268458 0.117632 0.487567 0.181967
H12   H     H_    0.396655 0.632006 0.248739 0.145322
H13   H     H_    0.729561 0.882898 0.513076 0.183274
H14   H     H_    0.462023 0.161808 0.256623 0.124143
H15   H     H_    0.536322 0.838765 0.744359 0.123108
H16   H     H_    0.353231 0.281601 0.161035 0.135456
H17   H     H_    0.646056 0.722008 0.840974 0.135977
H18   H     H_    0.648737 0.780110 0.316327 0.379922
H19   H     H_    0.348669 0.220310 0.682098 0.379464
H20   H     H_    0.307466 0.843036 0.256162 0.319530
H21   H     H_    0.730814 0.248382 0.615266 0.324748
H22   H     H_    0.397194 0.632817 0.753059 0.137744
H23   H     H_    0.602762 0.367116 0.246937 0.138922
H24   H     H_    0.335540 0.711466 0.911493 0.151497
H25   H     H_    0.664426 0.288477 0.088496 0.153543
H26   H     H_    0.335281 0.711120 0.091399 0.145546
H27   H     H_    0.664679 0.288823 0.908554 0.165379
H28   H     H_    0.776307 0.454069 0.647097 0.168119
N1    N     N_R   0.499960 0.499900 0.743810 -0.192028
N2    N     N_R   0.500040 0.500100 0.256190 -0.190626
O1    O     O_R   0.500000 0.319630 0.582270 -0.559724
O2    O     O_2   0.739131 0.582639 0.241567 -0.302704
O3    O     O_3   0.673103 0.732341 0.371784 -0.559138
O4    O     O_2   0.260161 0.418190 0.758254 -0.302813
O5    O     O_2   0.171542 0.241139 0.706226 -0.304931
O6    O     O_3   0.324702 0.268906 0.626876 -0.560471
O7    O     O_2   0.322715 0.789942 0.425643 -0.625210
O8    O     O_R   0.356472 0.894001 0.286079 -0.765182
O9    O     O_2   0.634331 0.113601 0.704740 -0.609088
O10   O     O_R   0.685183 0.213131 0.569294 -0.778191
O11   O     O_R   0.500000 0.680370 0.417730 -0.557918
O12   O     O_R   0.499990 0.319660 0.417730 -0.609115
O13   O     O_R   0.500010 0.680340 0.582270 -0.610349
O14   O     O_R   0.370260 0.499960 0.582280 -0.526376
O15   O     O_R   0.629740 0.500040 0.417720 -0.523719
O16   O     O_R   0.370250 0.499990 0.417740 -0.601967
O17   O     O_R   0.629750 0.500010 0.582260 -0.606696
O18   O     O_2   0.825665 0.762533 0.291856 -0.305084
S1    S     S_3+6 0.764059 0.662654 0.326695 -0.022205
S2    S     S_3+6 0.234432 0.339991 0.672368 -0.022555

loop_
_geom_bond_atom_site_label_1
_geom_bond_atom_site_label_2
_ccdc_geom_bond_type
C1    O1    A    
C40   C47   A    
C30   C32   A    
Cu1   Cu2   S    
C22   C29   A    
Cu2   O12   S    
C19   N2    A    
C53   H13   S    
C39   C41   A    
C31   H26   S    
C7    C45   A    
H18   O3    S    
C35   C37   A    
C24   C26   A    
Cu2   O15   S    
C5    H16   S    
C3    C54   A    
C50   O9    D    
Cu1   O17   S    
C34   H6    S    
C33   C36   A    
C17   O15   A    
C12   O13   A    
H20   O8    S    
C22   C25   A    
Cu1   O14   S    
C17   C36   S    
C49   O8    S    
C16   C37   S    
C40   C42   A    
C23   C46   A    
Cu1   O1    S    
C41   C43   A    
O5    S2    D    
C42   C44   A    
Cu2   O11   S    
O18   S1    D    
C52   C54   A    
C48   H4    S    
C18   N1    A    
C23   C47   A    
C15   C54   S    
C3    H14   S    
C33   S1    S    
O4    S2    D    
C4    C6    A    
C10   C14   A    
C5    C7    A    
C16   O14   A    
C6    C8    A    
C45   C52   A    
C25   C26   A    
C39   H2    S    
C2    C53   A    
C51   C53   A    
C51   H10   S    
Cu1   N1    S    
C2    C4    A    
C18   H1    S    
Cu2   N2    S    
C20   N1    A    
C21   H23   S    
C9    C49   S    
C19   H12   S    
C19   C28   A    
C9    C11   A    
C8    C51   A    
C7    H7    S    
C12   O11   A    
C52   H11   S    
H19   O6    S    
C8    H8    S    
C16   O16   A    
C20   C22   A    
C13   C15   A    
C45   H9    S    
C1    C13   S    
C42   C43   A    
Cu1   O13   S    
C10   C50   S    
C6    H17   S    
O6    S2    S    
C32   H27   S    
C21   N2    A    
C38   H28   S    
C27   C32   A    
C33   C44   A    
C28   C31   A    
C18   C27   A    
C3    C5    A    
C10   C13   A    
C1    O12   A    
C11   C12   S    
C25   C27   A    
H21   O10   S    
C26   C28   A    
C20   H22   S    
C30   H25   S    
C36   C38   A    
C17   O17   A    
Cu2   O16   S    
C37   C39   A    
C35   S2    S    
C38   C40   A    
O2    S1    D    
C50   O10   S    
C29   H24   S    
C11   C14   A    
C41   C48   A    
C9    C15   A    
C2    C14   S    
C43   C46   A    
C24   C30   A    
C47   H3    S    
C23   H5    S    
C34   C48   A    
C29   C31   A    
C21   C24   A    
O3    S1    S    
C34   C44   A    
C49   O7    D    
C35   C46   A    
C4    H15   S    
