data_mof_unit_64933.cif
_audit_creation_date              2012-10-26T19:01:02-0400
_audit_creation_method            fapswitch 2.2
_symmetry_space_group_name_H-M    P1
_symmetry_Int_Tables_number       1
_space_group_crystal_system       triclinic
_cell_length_a                    10.922149
_cell_length_b                    17.765765
_cell_length_c                    16.460945
_cell_angle_alpha                 90.061371
_cell_angle_beta                  101.230481
_cell_angle_gamma                 90.657481
_cell_volume                      3132.70178481

loop_
_atom_site_label
_atom_site_type_symbol
_atom_type_description
_atom_site_fract_x
_atom_site_fract_y
_atom_site_fract_z
_atom_type_partial_charge
C1    C     C_R   0.500767 0.355258 0.500140 0.599035
C2    C     C_R   0.423378 0.451822 0.246750 0.522515
C3    C     C_R   0.417814 0.454293 0.731642 0.469142
C4    C     C_R   0.575117 0.549452 0.266810 0.478880
C5    C     C_R   0.415090 0.452726 0.817679 0.022200
C6    C     C_R   0.577664 0.550378 0.180747 0.025405
C7    C     C_R   0.498477 0.499069 0.872849 -0.053473
C8    C     C_R   0.500134 0.500130 0.126842 -0.053869
C9    C     C_1   0.498803 0.499395 0.962552 0.133519
C10   C     C_1   0.499116 0.499587 0.037050 0.133457
C11   C     C_R   0.261840 0.503262 0.467782 0.573650
C12   C     C_R   0.499667 0.644742 0.499937 0.590669
C13   C     C_R   0.738307 0.502445 0.532445 0.555898
C14   C     C_2   0.125464 0.510938 0.452986 0.114105
C15   C     C_2   0.875209 0.507297 0.548609 0.113455
C16   C     C_2   0.071232 0.546877 0.509207 0.138525
C17   C     C_2   0.934239 0.548710 0.498533 0.142872
C18   C     C_R   0.552493 0.846600 0.574200 0.061596
C19   C     C_R   0.450192 0.152911 0.427067 0.062627
C20   C     C_R   0.551384 0.767516 0.572989 0.353240
C21   C     C_R   0.450024 0.231986 0.427879 0.359681
C22   C     C_R   0.499528 0.727792 0.499955 -0.015607
C23   C     C_R   0.501640 0.885693 0.501622 -0.004208
C24   C     C_R   0.502313 0.272202 0.500457 -0.010982
C25   C     C_R   0.448173 0.768051 0.427578 0.045756
C26   C     C_R   0.555634 0.232425 0.572778 0.046689
C27   C     C_R   0.449904 0.846822 0.428980 0.362628
C28   C     C_R   0.555171 0.153644 0.571796 0.365218
C29   C     C_R   0.502807 0.114297 0.499611 -0.003367
C30   C     C_1   0.502376 0.966268 0.501093 0.125531
C31   C     C_1   0.502759 0.033727 0.500559 0.126066
C32   C     C_R   0.581848 0.545318 0.839986 0.365586
C33   C     C_R   0.422423 0.450853 0.160963 0.364505
C34   C     C_R   0.581213 0.544982 0.754259 0.525502
Cu1   Cu    Cu3+1 0.499990 0.499980 0.580420 1.169347
Cu2   Cu    Cu3+1 0.500010 0.500020 0.419580 1.162821
F1    F     F_    0.602772 0.729431 0.642586 -0.553717
F2    F     F_    0.646858 0.598997 0.318283 -0.598997
F3    F     F_    0.396848 0.269556 0.358374 -0.548926
F4    F     F_    0.400385 0.885507 0.359318 -0.601689
F5    F     F_    0.606421 0.115430 0.641423 -0.601623
F6    F     F_    0.663872 0.590794 0.890711 -0.553434
F7    F     F_    0.345147 0.402076 0.111370 -0.553766
F8    F     F_    0.663003 0.590080 0.724492 -0.506203
F9    F     F_    0.345408 0.404694 0.277443 -0.503193
F10   F     F_    0.338523 0.409437 0.678453 -0.595409
H1    H     H_    0.926593 0.621610 0.401545 0.243124
H2    H     H_    0.918699 0.408728 0.607619 0.242596
H3    H     H_    0.077401 0.502963 0.328375 0.260174
H4    H     H_    0.070706 0.420984 0.379242 0.270066
H5    H     H_    0.532573 0.913821 0.669527 0.256535
H6    H     H_    0.648320 0.851954 0.695166 0.315849
H7    H     H_    0.469361 0.085478 0.331738 0.257008
H8    H     H_    0.352558 0.146706 0.306583 0.315967
H9    H     H_    0.298790 0.746148 0.336528 0.265589
H10   H     H_    0.438123 0.745502 0.306007 0.294629
H11   H     H_    0.706098 0.255455 0.662615 0.267223
H12   H     H_    0.826601 0.639155 0.464253 0.243823
H13   H     H_    0.567754 0.255350 0.694460 0.288165
H14   H     H_    0.116054 0.643660 0.573402 0.227961
H15   H     H_    0.126272 0.565706 0.632743 0.281322
H16   H     H_    0.266771 0.378045 0.801221 0.298500
H17   H     H_    0.379592 0.362668 0.884191 0.257269
H18   H     H_    0.703173 0.638992 0.193440 0.295907
H19   H     H_    0.726148 0.570904 0.127697 0.257753
H20   H     H_    0.920143 0.483811 0.670823 0.268295
N1    N     N_R   0.499970 0.499970 0.701210 -0.274127
N2    N     N_3   0.396289 0.111097 0.353584 -0.539376
N3    N     N_3   0.391631 0.729151 0.353093 -0.559175
N4    N     N_3   0.612868 0.271855 0.646753 -0.568025
N5    N     N_R   0.500030 0.500030 0.298790 -0.274752
N6    N     N_3   0.865458 0.595792 0.434888 -0.507414
N7    N     N_3   0.144879 0.587652 0.577516 -0.592233
N8    N     N_3   0.328231 0.404943 0.849342 -0.551975
N9    N     N_3   0.657080 0.602303 0.147602 -0.550440
N10   N     N_3   0.945407 0.465330 0.616128 -0.617623
N11   N     N_3   0.050323 0.478308 0.379848 -0.600861
N12   N     N_3   0.605816 0.887928 0.648145 -0.540925
O1    O     O_R   0.499990 0.391240 0.567930 -0.449342
O2    O     O_R   0.500010 0.608760 0.432070 -0.446165
O3    O     O_R   0.500000 0.391270 0.432120 -0.422313
O4    O     O_R   0.500000 0.608730 0.567880 -0.421024
O5    O     O_R   0.320680 0.500000 0.542950 -0.434647
O6    O     O_R   0.679320 0.500000 0.457050 -0.454892
O7    O     O_R   0.320690 0.500030 0.407130 -0.479532
O8    O     O_R   0.679310 0.499970 0.592870 -0.474570

loop_
_geom_bond_atom_site_label_1
_geom_bond_atom_site_label_2
_ccdc_geom_bond_type
H2    N10   S    
Cu1   Cu2   S    
C6    N9    S    
C13   O6    A    
C28   C29   A    
C19   C21   A    
C11   O7    A    
C30   C31   T    
C11   C14   S    
H8    N2    S    
C1    O3    A    
C12   C22   S    
H14   N7    S    
C15   C17   D    
C14   N11   S    
C5    N8    S    
H7    N2    S    
C16   C17   S    
C22   C25   A    
C13   O8    A    
C23   C27   A    
H11   N4    S    
C9    C10   T    
C27   F4    S    
Cu2   N5    S    
C15   N10   S    
H6    N12   S    
Cu1   O4    S    
C2    F9    S    
C16   N7    S    
C33   F7    S    
C23   C30   S    
C34   F8    S    
C4    C6    A    
Cu2   O2    S    
C5    C7    A    
Cu1   O5    S    
C6    C8    A    
H15   N7    S    
C18   C23   A    
C32   C34   A    
C21   F3    S    
Cu1   N1    S    
Cu2   O3    S    
C18   N12   S    
H20   N10   S    
C12   O4    A    
C19   N2    S    
H9    N3    S    
C17   N6    S    
C2    C33   A    
C4    F2    S    
C13   C15   S    
C1    O1    A    
C14   C16   D    
C25   N3    S    
C20   C22   A    
C2    N5    A    
C19   C29   A    
H4    N11   S    
C7    C9    S    
C7    C32   A    
C3    N1    A    
C24   C26   A    
C3    C5    A    
C34   N1    A    
H17   N8    S    
Cu2   O7    S    
C25   C27   A    
C3    F10   S    
C26   C28   A    
H19   N9    S    
C11   O5    A    
H5    N12   S    
C29   C31   S    
C20   F1    S    
H12   N6    S    
Cu2   O6    S    
C26   N4    S    
C12   O2    A    
Cu1   O1    S    
Cu1   O8    S    
H18   N9    S    
H3    N11   S    
C18   C20   A    
C8    C33   A    
H1    N6    S    
H13   N4    S    
C1    C24   S    
C8    C10   S    
H10   N3    S    
C21   C24   A    
C32   F6    S    
H16   N8    S    
C4    N5    A    
C28   F5    S    
