data_mof_unit_16723.cif
_audit_creation_date              2013-03-05T16:46:35-0500
_audit_creation_method            fapswitch 2.2
_symmetry_space_group_name_H-M    P1
_symmetry_Int_Tables_number       1
_space_group_crystal_system       triclinic
_cell_length_a                    12.961194
_cell_length_b                    8.933193
_cell_length_c                    8.125359
_cell_angle_alpha                 89.999788
_cell_angle_beta                  96.55725
_cell_angle_gamma                 89.998189
_cell_volume                      934.639013857

loop_
_atom_site_label
_atom_site_type_symbol
_atom_site_description
_atom_site_fract_x
_atom_site_fract_y
_atom_site_fract_z
_atom_type_partial_charge
O1    O     O_R   0.499990 0.285340 0.636850 -0.617499
O2    O     O_R   0.500010 0.714660 0.363150 -0.613076
O3    O     O_R   0.500010 0.285340 0.363150 -0.617547
O4    O     O_R   0.499990 0.714660 0.636850 -0.613098
N1    N     N_1   0.500020 0.500000 0.073640 -0.039084
N2    N     N_1   0.499980 0.500000 0.926360 -0.039109
C1    C     C_R   0.500001 0.218068 0.500000 0.930898
C2    C     C_R   0.499999 0.781929 0.500000 0.945659
O5    O     O_R   0.346350 0.500000 0.614250 -0.627559
O6    O     O_R   0.653650 0.500000 0.385750 -0.627568
O7    O     O_R   0.346360 0.500000 0.340500 -0.620070
O8    O     O_R   0.653640 0.500000 0.659500 -0.620156
C3    C     C_R   0.297718 0.495175 0.467914 0.887044
C4    C     C_R   0.702285 0.495265 0.532095 0.887147
Zn1   Zn    Zn3+2 0.499990 0.500000 0.682780 0.981061
Zn2   Zn    Zn3+2 0.500010 0.500000 0.317220 0.981103
C5    C     C_R   0.814374 0.489070 0.552967 -0.071782
C6    C     C_R   0.185633 0.488888 0.447092 -0.071735
C7    C     C_R   0.020160 0.486280 0.278511 -0.207862
C8    C     C_R   0.979856 0.485511 0.721560 -0.207554
C9    C     C_R   0.127274 0.469734 0.290087 0.187252
C10   C     C_R   0.872707 0.469384 0.709932 0.187075
C11   C     C_R   0.135706 0.500421 0.590117 -0.310164
C12   C     C_R   0.864320 0.501062 0.410009 -0.310194
C13   C     C_R   0.029004 0.496572 0.578510 0.136706
C14   C     C_R   0.971019 0.496952 0.421605 0.136784
H1    H     H_    0.820392 0.508588 0.288328 0.176440
H2    H     H_    0.179641 0.507435 0.711828 0.176459
H3    H     H_    0.974935 0.483923 0.158772 0.140577
H4    H     H_    0.025101 0.482566 0.841271 0.140509
C15   C     C_1   0.500001 0.065211 0.500000 -0.190925
C16   C     C_1   0.500000 0.934795 0.500000 -0.193312
C17   C     C_3   0.825277 0.420775 0.862521 -0.866891
H5    H     H_    0.884300 0.369598 0.954627 0.214491
H6    H     H_    0.788996 0.517617 0.919392 0.251511
H7    H     H_    0.767316 0.330715 0.831297 0.252736
C18   C     C_3   0.174573 0.421106 0.137395 -0.866875
H8    H     H_    0.233116 0.331770 0.168620 0.252994
H9    H     H_    0.115550 0.368731 0.046093 0.214505
H10   H     H_    0.210071 0.518216 0.079645 0.251108

loop_
_geom_bond_atom_site_label_1
_geom_bond_atom_site_label_2
_geom_bond_distance
_ccdc_geom_bond_type
O8    Zn1   2.021841 S    
C18   H8    1.110409 S    
O1    Zn1   1.953579 S    
C6    C9    1.417217 A    
O2    Zn2   1.953579 S    
O7    Zn2   2.021841 S    
C15   C16   1.165035 T    
C12   H1    1.085198 S    
O4    C2    1.263959 A    
O4    Zn1   1.953576 S    
C17   H5    1.106142 S    
O5    Zn1   2.005571 S    
C18   H9    1.106759 S    
C13   C14   1.404067 A    
O6    Zn2   2.005571 S    
C11   H2    1.085171 S    
O7    C3    1.272881 A    
C4    C5    1.444360 S    
C3    C6    1.444353 S    
C7    C9    1.388636 A    
O8    C4    1.272811 A    
C18   H10   1.110751 S    
O3    C1    1.263970 A    
C11   C13   1.375844 A    
N1    N2    1.196644 T    
C12   C14   1.375862 A    
C5    C12   1.396991 A    
C1    C15   1.365499 S    
C8    C13   1.391287 A    
C6    C11   1.397022 A    
C7    H3    1.077198 S    
C17   H7    1.110176 S    
C9    C18   1.509147 S    
O6    C4    1.281381 A    
C10   C17   1.509233 S    
C7    C14   1.391311 A    
O5    C3    1.281323 A    
N1    Zn2   1.979189 S    
C8    H4    1.077246 S    
C17   H6    1.110263 S    
N2    Zn1   1.979190 S    
O1    C1    1.263972 A    
O2    C2    1.263960 A    
O3    Zn2   1.953577 S    
C5    C10   1.417378 A    
C8    C10   1.388670 A    
C2    C16   1.365575 S    
