data_mof_unit_60140.cif
_audit_creation_date              2012-10-26T21:24:01-0400
_audit_creation_method            fapswitch 2.2
_symmetry_space_group_name_H-M    P1
_symmetry_Int_Tables_number       1
_space_group_crystal_system       triclinic
_cell_length_a                    17.732637
_cell_length_b                    16.586826
_cell_length_c                    14.34262
_cell_angle_alpha                 89.999859
_cell_angle_beta                  92.281032
_cell_angle_gamma                 89.999984
_cell_volume                      4215.2258105

loop_
_atom_site_label
_atom_site_type_symbol
_atom_type_description
_atom_site_fract_x
_atom_site_fract_y
_atom_site_fract_z
_atom_type_partial_charge
Br1   Br    Br    0.614192 0.887925 0.647762 -0.432621
Br2   Br    Br    0.402459 0.113886 0.334528 -0.468510
Br3   Br    Br    0.385808 0.887926 0.352239 -0.432616
Br4   Br    Br    0.597542 0.113886 0.665472 -0.468509
C1    C     C_R   0.355742 0.499929 0.499365 0.559573
C2    C     C_R   0.453274 0.256762 0.438336 0.259627
C3    C     C_R   0.458368 0.744698 0.432957 0.269958
C4    C     C_R   0.546726 0.256761 0.561664 0.259630
C5    C     C_R   0.500000 0.874377 0.500001 -0.018940
C6    C     C_R   0.499999 0.127138 0.500001 0.000653
C7    C     C_1   0.500000 0.963739 0.500001 0.141166
C8    C     C_1   0.499999 0.037803 0.500001 0.147891
C9    C     C_R   0.500563 0.499899 0.330933 0.526488
C10   C     C_R   0.499436 0.499899 0.669067 0.526491
C11   C     C_1   0.500782 0.499409 0.228686 -0.072337
C12   C     C_R   0.644258 0.499930 0.500638 0.559573
C13   C     C_1   0.499216 0.499409 0.771314 -0.072346
C14   C     C_1   0.500616 0.499176 0.143308 -0.058297
C15   C     C_1   0.499382 0.499176 0.856691 -0.058303
C16   C     C_1   0.500200 0.499096 0.042702 0.000651
C17   C     C_1   0.499797 0.499096 0.957298 0.000651
C18   C     C_R   0.848046 0.532112 0.579800 0.132810
C19   C     C_R   0.156728 0.474512 0.577418 0.150522
C20   C     C_R   0.151951 0.532145 0.420233 0.132819
C21   C     C_R   0.843275 0.474534 0.422588 0.150524
C22   C     C_R   0.768562 0.529461 0.581020 0.130719
C23   C     C_1   0.966136 0.505785 0.500035 -0.032294
C24   C     C_R   0.235655 0.471325 0.576442 0.108664
C25   C     C_R   0.231434 0.529482 0.419001 0.130736
C26   C     C_R   0.764348 0.471346 0.423559 0.108668
C27   C     C_R   0.726904 0.499242 0.502413 -0.018801
C28   C     C_R   0.273095 0.499241 0.497594 -0.018803
C29   C     C_R   0.884988 0.505003 0.500379 -0.012683
C30   C     C_R   0.115012 0.505008 0.499644 -0.012688
C31   C     C_3   0.914383 0.503309 0.726274 -0.307435
C32   C     C_3   0.101830 0.363324 0.659081 -0.283782
C33   C     C_3   0.085614 0.503434 0.273733 -0.307451
C34   C     C_1   0.033864 0.505787 0.499992 -0.032296
C35   C     C_3   0.898171 0.363374 0.340875 -0.283777
C36   C     C_3   0.696268 0.504065 0.719375 -0.309937
C37   C     C_3   0.293431 0.504037 0.726912 -0.274054
C38   C     C_3   0.303717 0.504086 0.280639 -0.309964
C39   C     C_3   0.706576 0.504099 0.273098 -0.274059
C40   C     C_3   0.559399 0.716628 0.735007 -0.252749
C41   C     C_3   0.323028 0.293162 0.403985 -0.267667
C42   C     C_3   0.440603 0.716630 0.264993 -0.252754
C43   C     C_3   0.676973 0.293159 0.596004 -0.267665
C44   C     C_R   0.545013 0.830536 0.564384 0.132991
C45   C     C_R   0.456504 0.170993 0.433344 0.103526
C46   C     C_R   0.454987 0.830536 0.435617 0.132993
C47   C     C_R   0.543495 0.170993 0.566657 0.103529
C48   C     C_R   0.541632 0.744698 0.567043 0.269958
Cu1   Cu    Cu3+1 0.500000 0.580420 0.500000 0.948622
Cu2   Cu    Cu3+1 0.500000 0.419580 0.500000 0.959208
H1    H     H_    0.934047 0.601026 0.640675 0.260814
H2    H     H_    0.050284 0.532246 0.217413 0.143823
H3    H     H_    0.052324 0.455326 0.306805 0.138518
H4    H     H_    0.135011 0.475667 0.241729 0.159180
H5    H     H_    0.923963 0.484491 0.322598 0.243905
H6    H     H_    0.940290 0.349206 0.397994 0.132515
H7    H     H_    0.922446 0.347311 0.273166 0.141752
H8    H     H_    0.846538 0.326589 0.349495 0.179646
H9    H     H_    0.759438 0.606670 0.694926 0.292034
H10   H     H_    0.666692 0.536515 0.774920 0.140260
H11   H     H_    0.739503 0.464117 0.752641 0.135495
H12   H     H_    0.949689 0.532092 0.782637 0.143830
H13   H     H_    0.654331 0.466412 0.680472 0.174523
H14   H     H_    0.322430 0.406778 0.644513 0.262614
H15   H     H_    0.321506 0.475875 0.789359 0.147125
H16   H     H_    0.240659 0.533453 0.748648 0.176878
H17   H     H_    0.331764 0.550294 0.698808 0.142939
H18   H     H_    0.240558 0.606697 0.305099 0.292042
H19   H     H_    0.333280 0.536535 0.225081 0.140259
H20   H     H_    0.260479 0.464132 0.247390 0.135476
H21   H     H_    0.345664 0.466439 0.319532 0.174519
H22   H     H_    0.677573 0.406820 0.355462 0.262605
H23   H     H_    0.947698 0.455243 0.693163 0.138514
H24   H     H_    0.678505 0.475954 0.210638 0.147120
H25   H     H_    0.759348 0.533524 0.251376 0.176882
H26   H     H_    0.668240 0.550347 0.301216 0.142952
H27   H     H_    0.611505 0.652814 0.627437 0.311648
H28   H     H_    0.542213 0.658346 0.765064 0.135324
H29   H     H_    0.511022 0.759101 0.737911 0.168724
H30   H     H_    0.607254 0.740607 0.778836 0.183819
H31   H     H_    0.408470 0.289775 0.309020 0.264145
H32   H     H_    0.288820 0.339329 0.365692 0.126577
H33   H     H_    0.317176 0.302664 0.480048 0.163233
H34   H     H_    0.864987 0.475491 0.758227 0.159161
H35   H     H_    0.299706 0.233099 0.385135 0.180432
H36   H     H_    0.388498 0.652813 0.372561 0.311654
H37   H     H_    0.457791 0.658349 0.234936 0.135323
H38   H     H_    0.488979 0.759105 0.262090 0.168724
H39   H     H_    0.392748 0.740608 0.221163 0.183819
H40   H     H_    0.591537 0.289775 0.690977 0.264141
H41   H     H_    0.711182 0.339334 0.634283 0.126578
H42   H     H_    0.682820 0.302650 0.519937 0.163235
H43   H     H_    0.700299 0.233100 0.614865 0.180428
H44   H     H_    0.076048 0.484437 0.677421 0.243902
H45   H     H_    0.059706 0.349181 0.601960 0.132513
H46   H     H_    0.077560 0.347238 0.726785 0.141757
H47   H     H_    0.153460 0.326541 0.650437 0.179642
H48   H     H_    0.065946 0.601092 0.359418 0.260822
N1    N     N_R   0.500000 0.701220 0.500000 -0.239778
N2    N     N_2   0.723317 0.442827 0.342603 -0.496590
N3    N     N_2   0.583491 0.705211 0.640420 -0.465724
N4    N     N_2   0.401312 0.299822 0.379055 -0.449104
N5    N     N_2   0.416510 0.705212 0.359579 -0.465723
N6    N     N_2   0.598691 0.299821 0.620941 -0.449110
N7    N     N_R   0.500000 0.298780 0.500000 -0.208479
N8    N     N_2   0.890511 0.563415 0.658215 -0.511495
N9    N     N_2   0.120121 0.448246 0.658610 -0.490568
N10   N     N_2   0.109482 0.563495 0.341846 -0.511496
N11   N     N_2   0.879885 0.448297 0.341387 -0.490570
N12   N     N_2   0.730506 0.562017 0.658522 -0.517016
N13   N     N_2   0.276687 0.442784 0.657385 -0.496586
N14   N     N_2   0.269488 0.562040 0.341498 -0.517017
O1    O     O_R   0.391260 0.567930 0.500000 -0.487869
O2    O     O_R   0.608740 0.432070 0.500000 -0.492278
O3    O     O_R   0.608740 0.567930 0.500000 -0.487878
O4    O     O_R   0.391260 0.432070 0.500000 -0.492287
O5    O     O_R   0.500000 0.567920 0.376050 -0.485112
O6    O     O_R   0.500000 0.432080 0.623950 -0.459670
O7    O     O_R   0.500000 0.567920 0.623950 -0.485104
O8    O     O_R   0.500000 0.432080 0.376050 -0.459665

loop_
_geom_bond_atom_site_label_1
_geom_bond_atom_site_label_2
_ccdc_geom_bond_type
H22   N2    S    
C11   C14   T    
C48   N1    A    
C10   O6    A    
Cu2   O4    S    
H48   N10   S    
C20   N10   S    
C40   H29   S    
C40   N3    S    
C23   C29   S    
C39   H24   S    
H40   N6    S    
C38   H21   S    
C41   H33   S    
H36   N5    S    
C25   C28   A    
C21   N11   S    
C26   C27   A    
Cu1   O1    S    
C42   H38   S    
C23   C34   T    
C39   H25   S    
C35   H8    S    
C39   N2    S    
C33   N10   S    
C20   C25   A    
C33   H2    S    
C36   N12   S    
C35   N11   S    
C36   H13   S    
C43   H42   S    
C10   O7    A    
C41   H35   S    
C33   H4    S    
C37   H17   S    
C1    C28   S    
Cu2   O6    S    
C22   C27   A    
C3    N1    A    
H9    N12   S    
C10   C13   S    
C37   N13   S    
C6    C47   A    
C4    N6    S    
Br3   C46   S    
C35   H7    S    
H27   N3    S    
C38   H20   S    
C1    O4    A    
C24   C28   A    
Cu1   O7    S    
C12   O3    A    
C9    O8    A    
C42   H37   S    
Br4   C47   S    
C31   H12   S    
C18   N8    S    
C39   H26   S    
Cu1   Cu2   S    
C31   H23   S    
C20   C30   A    
Cu2   N7    S    
C1    O1    A    
C32   H47   S    
C12   C27   S    
C22   N12   S    
Br2   C45   S    
C12   O2    A    
C9    O5    A    
C31   H34   S    
H5    N11   S    
C19   C30   A    
C42   N5    S    
C32   N9    S    
C2    N4    S    
C32   H46   S    
C19   C24   A    
C5    C7    S    
C4    C47   A    
C31   N8    S    
C6    C8    S    
C38   N14   S    
C25   N14   S    
C48   N3    S    
C36   H11   S    
Cu2   O2    S    
H1    N8    S    
C2    N7    A    
C3    N5    S    
H31   N4    S    
C24   N13   S    
C41   N4    S    
C37   H15   S    
C21   C26   A    
C18   C29   A    
Cu2   O8    S    
C38   H19   S    
H44   N9    S    
C15   C17   S    
C30   C34   S    
C5    C46   A    
C3    C46   A    
C40   H30   S    
C43   H43   S    
C7    C8    T    
Cu1   O3    S    
Br1   C44   S    
C19   N9    S    
H18   N14   S    
C40   H28   S    
C36   H10   S    
C9    C11   S    
C41   H32   S    
Cu1   O5    S    
C4    N7    A    
C42   H39   S    
Cu1   N1    S    
C35   H6    S    
C13   C15   T    
C32   H45   S    
C14   C16   S    
C2    C45   A    
H14   N13   S    
C44   C48   A    
C16   C17   T    
C5    C44   A    
C43   N6    S    
C18   C22   A    
C26   N2    S    
C43   H41   S    
C6    C45   A    
C33   H3    S    
C21   C29   A    
C37   H16   S    
