data_mof_unit_68018.cif
_audit_creation_date              2013-03-05T15:40:30-0500
_audit_creation_method            fapswitch 2.2
_symmetry_space_group_name_H-M    P1
_symmetry_Int_Tables_number       1
_space_group_crystal_system       triclinic
_cell_length_a                    6.995466
_cell_length_b                    11.969614
_cell_length_c                    18.825263
_cell_angle_alpha                 89.791867
_cell_angle_beta                  92.892677
_cell_angle_gamma                 90.066199
_cell_volume                      1574.27664433

loop_
_atom_site_label
_atom_site_type_symbol
_atom_site_description
_atom_site_fract_x
_atom_site_fract_y
_atom_site_fract_z
_atom_type_partial_charge
O1    O     O_R   0.330540 0.606360 0.598870 -0.543883
O2    O     O_R   0.669460 0.106360 0.401130 -0.544596
O3    O     O_R   0.026770 0.620470 0.750430 -0.538275
O4    O     O_R   0.973230 0.120470 0.249570 -0.539842
O5    O     O_R   0.856460 0.393640 0.750930 -0.559138
O6    O     O_R   0.143540 0.893640 0.249070 -0.557999
C1    C     C_R   0.198856 0.640638 0.777409 0.792141
C2    C     C_R   0.801345 0.140880 0.222714 0.797486
O7    O     O_R   0.000920 0.620350 0.599420 -0.535453
O8    O     O_R   0.999080 0.120350 0.400580 -0.535935
O9    O     O_R   0.830430 0.393520 0.598850 -0.536803
O10   O     O_R   0.169570 0.893520 0.401150 -0.536050
C3    C     C_R   0.166574 0.644353 0.572899 0.717751
C4    C     C_R   0.833252 0.144873 0.426809 0.717029
O11   O     O_R   0.356570 0.606480 0.750960 -0.539572
O12   O     O_R   0.643430 0.106480 0.249040 -0.541923
O13   O     O_3   0.176990 0.425580 0.674890 -0.389532
O14   O     O_3   0.823010 0.925580 0.325110 -0.386770
V1    V     V_3+5 0.902170 0.513810 0.674910 1.504689
V2    V     V_3+5 0.097830 0.013810 0.325090 1.500360
O15   O     O_R   0.500800 0.379530 0.599380 -0.544709
O16   O     O_R   0.499200 0.879530 0.400620 -0.545162
C5    C     C_R   0.667413 0.352733 0.574502 0.713516
C6    C     C_R   0.332692 0.853217 0.425775 0.716194
O17   O     O_R   0.526650 0.379650 0.750390 -0.545824
O18   O     O_R   0.473350 0.879650 0.249610 -0.545552
C7    C     C_R   0.698684 0.349971 0.771389 0.740914
C8    C     C_R   0.301106 0.852675 0.227112 0.740130
V3    V     V_3+5 0.402160 0.486190 0.674900 1.487823
V4    V     V_3+5 0.597840 0.986190 0.325100 1.486301
O19   O     O_3   0.677210 0.574420 0.674910 -0.378275
O20   O     O_3   0.322790 0.074420 0.325090 -0.381546
C9    C     C_R   0.707879 0.082474 0.874675 -0.094897
C10   C     C_R   0.276350 0.585455 0.124969 -0.101816
H1    H     H_    0.696448 0.959717 0.986766 0.140039
H2    H     H_    0.325822 0.464861 0.014573 0.134185
C11   C     C_R   0.712193 0.270985 0.830547 -0.205557
C12   C     C_R   0.285579 0.773895 0.168382 -0.204991
C13   C     C_R   0.776559 0.336820 0.181621 0.444301
C14   C     C_R   0.196468 0.838207 0.816587 0.434664
C15   C     C_R   0.740787 0.414003 0.127943 -0.155740
C16   C     C_R   0.182181 0.914776 0.870759 -0.144562
C17   C     C_R   0.710743 0.381714 0.058064 -0.239929
C18   C     C_R   0.194269 0.883297 0.941539 -0.232742
C19   C     C_R   0.731585 0.270448 0.035843 0.044693
C20   C     C_R   0.240357 0.773411 0.963396 0.034188
C21   C     C_R   0.753161 0.187217 0.091205 -0.030130
C22   C     C_R   0.247676 0.690426 0.908177 -0.029163
C23   C     C_R   0.724408 0.238444 0.961251 0.018804
C24   C     C_R   0.262892 0.741365 0.037989 0.026434
C25   C     C_R   0.716286 0.122648 0.945485 -0.040488
C26   C     C_R   0.278532 0.626046 0.054341 -0.038620
C27   C     C_R   0.717077 0.045245 0.000385 -0.239543
C28   C     C_R   0.295918 0.549679 0.000254 -0.258629
C29   C     C_R   0.744798 0.072608 0.071915 0.425111
C30   C     C_R   0.273347 0.576693 0.928511 0.431019
C31   C     C_R   0.724712 0.313459 0.900948 -0.160376
C32   C     C_R   0.275136 0.816290 0.097682 -0.177028
C33   C     C_R   0.695698 0.155755 0.817133 0.342875
C34   C     C_R   0.289699 0.658243 0.182390 0.350868
C35   C     C_R   0.779717 0.221967 0.164235 -0.160596
C36   C     C_R   0.218788 0.723597 0.834699 -0.166115
H3    H     H_    0.660625 0.447132 0.024251 0.150507
H4    H     H_    0.150134 0.946755 0.976705 0.146775
H5    H     H_    0.734212 0.501729 0.140360 0.125227
H6    H     H_    0.145319 0.000033 0.857228 0.135348
C37   C     C_2   0.828293 0.237333 0.480827 -0.267098
C38   C     C_2   0.171325 0.737218 0.519051 -0.268175
C39   C     C_2   0.672933 0.259659 0.520897 -0.262342
C40   C     C_2   0.327138 0.760106 0.479429 -0.266375
O21   O     O_3   0.700695 0.109832 0.749277 -0.583732
C41   C     C_3   0.546609 0.140817 0.701042 0.043308
H7    H     H_    0.543885 0.079721 0.657176 0.161459
H8    H     H_    0.579438 0.219348 0.674817 0.121027
C42   C     C_3   0.344821 0.143335 0.730761 -0.378883
H9    H     H_    0.319624 0.068262 0.763035 0.215728
H10   H     H_    0.329833 0.216116 0.765213 0.195122
C43   C     C_3   0.188485 0.153790 0.671423 -0.662813
H11   H     H_    0.214047 0.228041 0.637935 0.242802
H12   H     H_    0.046731 0.162334 0.694827 0.242077
H13   H     H_    0.185166 0.079891 0.636440 0.222240
O22   O     O_3   0.278514 0.612031 0.250246 -0.581143
C44   C     C_3   0.429448 0.641582 0.300176 0.046608
H14   H     H_    0.426545 0.580523 0.344245 0.157017
H15   H     H_    0.396602 0.720519 0.325430 0.120463
C45   C     C_3   0.634010 0.641925 0.272937 -0.387363
H16   H     H_    0.660817 0.564339 0.244516 0.220136
H17   H     H_    0.652951 0.711124 0.235682 0.195503
C46   C     C_3   0.786838 0.655550 0.333108 -0.664899
H18   H     H_    0.759319 0.731202 0.364551 0.247627
H19   H     H_    0.930016 0.663339 0.310637 0.242610
H20   H     H_    0.788840 0.582878 0.369473 0.220254
C47   C     C_1   0.506070 0.187581 0.516263 0.327698
N1    N     N_1   0.373391 0.129652 0.512378 -0.376126
C48   C     C_1   0.494783 0.688926 0.485190 0.328322
N2    N     N_1   0.627789 0.631542 0.490466 -0.373354
C49   C     C_1   0.724393 0.963797 0.860502 0.335438
N3    N     N_1   0.739765 0.868756 0.851391 -0.358328
C50   C     C_1   0.243310 0.467695 0.138720 0.351338
N4    N     N_1   0.215536 0.373609 0.148122 -0.354805
C51   C     C_1   0.727514 0.434706 0.905763 0.296271
N5    N     N_1   0.731258 0.531434 0.907272 -0.354449
C52   C     C_1   0.300301 0.936430 0.090730 0.298479
N6    N     N_1   0.317623 0.032434 0.086947 -0.350861
O23   O     O_3   0.829492 0.379691 0.248321 -0.573041
C53   C     C_3   0.708914 0.347470 0.303240 0.007769
H21   H     H_    0.738731 0.404718 0.348360 0.152973
H22   H     H_    0.752879 0.266411 0.324122 0.126094
C54   C     C_3   0.492252 0.348951 0.284343 -0.365598
H23   H     H_    0.453957 0.427084 0.256714 0.232171
H24   H     H_    0.451137 0.279335 0.248115 0.223615
C55   C     C_3   0.375961 0.339549 0.350533 -0.662711
H25   H     H_    0.403847 0.258753 0.377517 0.247122
H26   H     H_    0.220878 0.345405 0.335165 0.250159
H27   H     H_    0.414527 0.406724 0.389036 0.207262
O24   O     O_3   0.148960 0.879315 0.748570 -0.574067
C56   C     C_3   0.270838 0.846211 0.694541 0.018322
H28   H     H_    0.239590 0.901197 0.648148 0.149838
H29   H     H_    0.229639 0.764213 0.675302 0.125017
C57   C     C_3   0.486614 0.851124 0.713737 -0.365300
H30   H     H_    0.519799 0.929549 0.741260 0.236778
H31   H     H_    0.530187 0.782117 0.750176 0.227576
C58   C     C_3   0.605415 0.843859 0.648096 -0.672606
H32   H     H_    0.587574 0.761016 0.623070 0.248771
H33   H     H_    0.759186 0.856035 0.663835 0.254428
H34   H     H_    0.561007 0.908085 0.607993 0.208222
O25   O     O_3   0.736754 0.988295 0.123297 -0.572176
C59   C     C_3   0.840034 0.890862 0.105586 0.067682
H35   H     H_    0.920127 0.862328 0.153905 0.167511
H36   H     H_    0.943311 0.906083 0.064213 0.113337
C60   C     C_3   0.707440 0.795230 0.082357 -0.350144
H37   H     H_    0.632074 0.766332 0.128443 0.197829
H38   H     H_    0.602630 0.822524 0.040698 0.217223
C61   C     C_3   0.810429 0.696106 0.052806 -0.795362
H39   H     H_    0.882994 0.720395 0.004160 0.263601
H40   H     H_    0.702936 0.631723 0.037644 0.242827
H41   H     H_    0.911952 0.661029 0.093929 0.235898
O26   O     O_3   0.286466 0.491611 0.878571 -0.572523
C62   C     C_3   0.170627 0.397904 0.894884 0.056956
H42   H     H_    0.086452 0.374920 0.846251 0.165172
H43   H     H_    0.070711 0.414021 0.937472 0.131606
C63   C     C_3   0.291624 0.297279 0.917245 -0.343112
H44   H     H_    0.369986 0.270205 0.871748 0.202906
H45   H     H_    0.392028 0.319433 0.961398 0.216714
C64   C     C_3   0.176757 0.198771 0.941855 -0.816723
H46   H     H_    0.106451 0.219647 0.991578 0.261327
H47   H     H_    0.275455 0.127821 0.953108 0.248783
H48   H     H_    0.070834 0.174389 0.899192 0.231843
C65   C     C_1   0.995498 0.309109 0.485544 0.359526
N7    N     N_1   0.128356 0.366863 0.489435 -0.364151
C66   C     C_1   0.004215 0.809017 0.514478 0.361008
N8    N     N_1   0.871469 0.866750 0.510869 -0.362744

loop_
_geom_bond_atom_site_label_1
_geom_bond_atom_site_label_2
_geom_bond_distance
_ccdc_geom_bond_type
C47   N1    1.157423 T    
C37   C65   1.449787 S    
C56   H28   1.104812 S    
O13   V3    1.733437 S    
C5    C39   1.507697 S    
C48   N2    1.157165 T    
O4    C2    1.303659 A    
C60   C61   1.511118 S    
V1    O19   1.733635 S    
C59   H35   1.097602 S    
C61   H41   1.105802 S    
C55   H26   1.110818 S    
C49   N3    1.157020 T    
C6    C40   1.503179 S    
C58   H32   1.103613 S    
C13   C15   1.380388 A    
O18   C8    1.297713 A    
C18   H4    1.065527 S    
O9    V1    2.077483 S    
C51   N5    1.158483 T    
V3    O19   2.193797 S    
O3    C1    1.305344 A    
C54   H24   1.107248 S    
C64   H46   1.108584 S    
C62   C63   1.518889 S    
C45   H17   1.095616 S    
C58   H33   1.110828 S    
H1    C27   1.064146 S    
C53   H21   1.104787 S    
O12   V4    2.062779 S    
C14   C36   1.419260 A    
O24   C56   1.417630 S    
C13   O23   1.390828 S    
O7    C3    1.315776 A    
O5    C7    1.296083 A    
C34   O22   1.395972 S    
O7    V1    2.051076 S    
O6    C8    1.294202 A    
C50   N4    1.157095 T    
C18   C20   1.409580 A    
C23   C25   1.418979 A    
C24   C26   1.416295 A    
C4    C37   1.507291 S    
O3    V1    2.072770 S    
O14   V4    1.734960 S    
C8    C12   1.455531 S    
C46   H19   1.110456 S    
C9    C49   1.452115 S    
C57   C58   1.526367 S    
C2    C35   1.467183 S    
C19   C21   1.441672 A    
C9    C33   1.390679 A    
C12   C32   1.421146 A    
C10   C34   1.390226 A    
C15   C17   1.378277 A    
C63   C64   1.510633 S    
C16   C18   1.381880 A    
C41   C42   1.544813 S    
C55   H25   1.103737 S    
C64   H47   1.108200 S    
C26   C28   1.380795 A    
O11   V3    2.070539 S    
C20   C22   1.443201 A    
C27   C29   1.390977 A    
O17   V3    2.066087 S    
C13   C35   1.414774 A    
C28   C30   1.388889 A    
C17   H3    1.056276 S    
C24   C32   1.439379 A    
C41   H8    1.089783 S    
O8    C4    1.317317 A    
C56   C57   1.535380 S    
O8    V2    2.058474 S    
C45   H16   1.094532 S    
C41   H7    1.104466 S    
C58   H34   1.109113 S    
C61   H40   1.104267 S    
C1    O11   1.300112 A    
O15   V3    2.059482 S    
C9    C25   1.417159 A    
C37   C39   1.380756 D    
C42   H9    1.101888 S    
C1    C36   1.469997 S    
C30   O26   1.394732 S    
C22   C36   1.442170 A    
C44   H14   1.104567 S    
C19   C23   1.455279 A    
C66   N8    1.157268 T    
O10   V2    2.071064 S    
O1    V3    2.069514 S    
C10   C50   1.452531 S    
C43   H12   1.110213 S    
C46   H20   1.104646 S    
C42   H10   1.096243 S    
C11   C33   1.406646 A    
C12   C34   1.408310 A    
C38   C40   1.378170 D    
C44   H15   1.089197 S    
C29   O25   1.398419 S    
O18   V4    2.071211 S    
O15   C5    1.318237 A    
O16   C6    1.316789 A    
C54   C55   1.525841 S    
O1    C3    1.305557 A    
C60   H37   1.092644 S    
C59   C60   1.523846 S    
C64   H48   1.104725 S    
O6    V2    2.069167 S    
C57   H30   1.092897 S    
C57   H31   1.105029 S    
C21   C29   1.420735 A    
V2    O20   1.732112 S    
C22   C30   1.421917 A    
O10   C6    1.302308 A    
O16   V4    2.052080 S    
C43   H11   1.107351 S    
C10   C26   1.414724 A    
C14   C16   1.381033 A    
C60   H38   1.095452 S    
C45   C46   1.526886 S    
C59   H36   1.103282 S    
C21   C35   1.440756 A    
C23   C31   1.444912 A    
C15   H5    1.078118 S    
C62   H42   1.098940 S    
C61   H39   1.107024 S    
O5    V1    2.061411 S    
O17   C7    1.297203 A    
C31   C51   1.454477 S    
O23   C53   1.418974 S    
C20   C24   1.455243 A    
C39   C47   1.449976 S    
O2    V4    2.075928 S    
C56   H29   1.081178 S    
C40   C48   1.449760 S    
O21   C41   1.422546 S    
C17   C19   1.407345 A    
C38   C66   1.450589 S    
C65   N7    1.157179 T    
V4    O20   2.195936 S    
C62   H43   1.107478 S    
C43   H13   1.104205 S    
C14   O24   1.394603 S    
C53   H22   1.084534 S    
C7    C11   1.457735 S    
O9    C5    1.302490 A    
O13   V1    2.194551 S    
O14   V2    2.192411 S    
O2    C4    1.305200 A    
C42   C43   1.528246 S    
C11   C31   1.419758 A    
H2    C28   1.067679 S    
O26   C62   1.424623 S    
O4    V2    2.067645 S    
C44   C45   1.544273 S    
C2    O12   1.299315 A    
O22   C44   1.422964 S    
C52   N6    1.157672 T    
C16   H6    1.079295 S    
C63   H44   1.090378 S    
C32   C52   1.454799 S    
C25   C27   1.385287 A    
C46   H18   1.105987 S    
C54   H23   1.095404 S    
C53   C54   1.539373 S    
C55   H27   1.108448 S    
C63   H45   1.093968 S    
O25   C59   1.422091 S    
C33   O21   1.394559 S    
C3    C38   1.503126 S    
