data_mof_unit_55107.cif
_audit_creation_date              2012-12-10T18:50:47-0500
_audit_creation_method            fapswitch 2.2
_symmetry_space_group_name_H-M    P1
_symmetry_Int_Tables_number       1
_space_group_crystal_system       triclinic
_cell_length_a                    10.769115
_cell_length_b                    9.859861
_cell_length_c                    15.753793
_cell_angle_alpha                 90.078308
_cell_angle_beta                  90.643893
_cell_angle_gamma                 90.41583
_cell_volume                      1672.61745055

loop_
_atom_site_label
_atom_site_type_symbol
_atom_type_description
_atom_site_fract_x
_atom_site_fract_y
_atom_site_fract_z
_atom_type_partial_charge
C1    C     C_R   0.260160 0.499610 0.498690 0.883186
C2    C     C_3   0.628910 0.491332 0.951964 -0.395476
C3    C     C_3   0.628880 0.491157 0.049764 -0.356212
C4    C     C_1   0.496637 0.500379 0.825431 -0.155691
C5    C     C_1   0.496787 0.499862 0.174316 -0.087708
C6    C     C_1   0.498512 0.499778 0.249543 -0.161331
C7    C     C_R   0.064910 0.378857 0.475941 -0.224253
C8    C     C_R   0.067144 0.623101 0.495165 -0.225575
C9    C     C_R   0.937472 0.379280 0.469494 -0.009159
C10   C     C_R   0.940366 0.626345 0.488596 -0.010559
C11   C     C_R   0.873253 0.502342 0.483031 -0.127222
C12   C     C_R   0.128472 0.499721 0.491882 -0.048460
C13   C     C_R   0.572741 0.072971 0.556491 0.018660
C14   C     C_R   0.571437 0.928542 0.557283 0.020903
C15   C     C_R   0.499908 0.499920 0.338321 0.894578
C16   C     C_R   0.428019 0.927480 0.443493 -0.083316
C17   C     C_R   0.427621 0.071131 0.443731 -0.082291
C18   C     C_R   0.740038 0.500641 0.494019 0.871724
C19   C     C_R   0.500330 0.500084 0.661648 0.934269
C20   C     C_3   0.433228 0.632131 0.050692 -0.378672
C21   C     C_3   0.417196 0.377553 0.050210 -0.380761
C22   C     C_3   0.419954 0.370720 0.950869 0.001969
C23   C     C_3   0.436773 0.638799 0.951377 -0.005570
C24   C     C_1   0.498859 0.500260 0.750295 -0.151604
C25   C     C_3   0.494416 0.500140 0.082897 0.220327
C26   C     C_3   0.492973 0.500489 0.917351 0.128202
H1    H     H_    0.370352 0.872618 0.398260 0.139192
H2    H     H_    0.369585 0.124890 0.398722 0.136838
H3    H     H_    0.335868 0.635140 0.074019 0.158176
H4    H     H_    0.320262 0.387567 0.073518 0.157318
H5    H     H_    0.452315 0.283486 0.080600 0.220742
H6    H     H_    0.479874 0.720631 0.081397 0.221807
H7    H     H_    0.685004 0.578653 0.073836 0.196413
H8    H     H_    0.673543 0.396799 0.073466 0.198337
H9    H     H_    0.686722 0.577351 0.928932 0.200382
H10   H     H_    0.675497 0.398409 0.928569 0.202108
H11   H     H_    0.114454 0.284413 0.467456 0.161146
H12   H     H_    0.118034 0.717971 0.502361 0.166517
N1    N     N_R   0.499970 0.857200 0.499980 -0.104038
N2    N     N_R   0.499970 0.142800 0.499980 -0.103495
O1    O     O_R   0.316750 0.614620 0.499990 -0.632483
O2    O     O_R   0.316750 0.385380 0.499990 -0.630217
O3    O     O_R   0.499990 0.614720 0.377140 -0.616628
O4    O     O_R   0.499990 0.385280 0.377140 -0.616542
O5    O     O_R   0.683220 0.614710 0.500000 -0.612627
O6    O     O_R   0.683220 0.385290 0.500000 -0.610405
O7    O     O_R   0.499980 0.614620 0.622860 -0.615668
O8    O     O_R   0.499980 0.385380 0.622860 -0.615966
Zn1   Zn    Zn3+2 0.499980 0.653120 0.500000 0.970115
Zn2   Zn    Zn3+2 0.499980 0.346880 0.500000 0.971249
C27   C     C_1   0.309417 0.662062 0.918460 0.122034
N3    N     N_1   0.209995 0.681267 0.892711 -0.165524
C28   C     C_1   0.290783 0.364686 0.917859 0.119069
N4    N     N_1   0.189811 0.358945 0.892036 -0.166534
C29   C     C_2   0.480169 0.240779 0.918590 0.401238
H13   H     H_    0.479017 0.219385 0.850909 0.078308
O9    O     O_2   0.531014 0.159897 0.965987 -0.533875
C30   C     C_2   0.512684 0.759724 0.919538 0.416712
H14   H     H_    0.513723 0.781646 0.851974 0.078762
O10   O     O_2   0.573771 0.832576 0.967156 -0.531100
C31   C     C_1   0.877502 0.253712 0.444030 0.208113
N5    N     N_1   0.829405 0.153708 0.422993 -0.177427
C32   C     C_1   0.885670 0.759527 0.483737 0.218774
N6    N     N_1   0.843362 0.866723 0.479014 -0.190819
C33   C     C_1   0.652261 0.146982 0.614856 0.239530
N7    N     N_1   0.716525 0.205476 0.661796 -0.192498
C34   C     C_1   0.645765 0.856298 0.618922 0.238902
N8    N     N_1   0.705845 0.799414 0.668577 -0.195891

loop_
_geom_bond_atom_site_label_1
_geom_bond_atom_site_label_2
_ccdc_geom_bond_type
C2    H9    S    
C23   C30   S    
C4    C26   S    
C29   H13   S    
C11   C18   S    
C22   C29   S    
C9    C31   S    
C9    C11   A    
C21   H4    S    
O6    Zn2   S    
C23   C27   S    
C10   C32   S    
C20   C23   S    
O5    Zn1   S    
C8    C12   A    
C10   C11   A    
C21   C22   S    
C16   H1    S    
O8    Zn2   S    
C2    C3    S    
C6    C15   S    
C15   O3    A    
C2    C26   S    
C13   C33   S    
C28   N4    T    
C21   H5    S    
C7    C12   A    
C1    C12   S    
C8    H12   S    
O2    Zn2   S    
C34   N8    T    
C5    C25   S    
C5    C6    T    
C18   O6    A    
C1    O1    A    
N1    Zn1   S    
C15   O4    A    
C19   C24   S    
C22   C28   S    
C20   H3    S    
C29   O9    D    
C22   C26   S    
C31   N5    T    
C4    C24   T    
C19   O7    A    
C20   C25   S    
C3    H7    S    
C14   C34   S    
C30   O10   D    
C27   N3    T    
C18   O5    A    
N2    Zn2   S    
C1    O2    A    
C3    C25   S    
C2    H10   S    
O7    Zn1   S    
C33   N7    T    
C20   H6    S    
C23   C26   S    
O1    Zn1   S    
C7    C9    A    
C21   C25   S    
C19   O8    A    
O3    Zn1   S    
C13   N2    A    
O4    Zn2   S    
C16   N1    A    
C3    H8    S    
C30   H14   S    
C13   C14   A    
C17   H2    S    
C8    C10   A    
C32   N6    T    
C14   N1    A    
C16   C17   A    
C7    H11   S    
C17   N2    A    
