data_mof_unit_17262.cif
_audit_creation_date              2012-10-26T18:39:08-0400
_audit_creation_method            fapswitch 2.2
_symmetry_space_group_name_H-M    P1
_symmetry_Int_Tables_number       1
_space_group_crystal_system       triclinic
_cell_length_a                    9.541199
_cell_length_b                    10.646816
_cell_length_c                    17.174239
_cell_angle_alpha                 89.507635
_cell_angle_beta                  85.714652
_cell_angle_gamma                 89.159476
_cell_volume                      1739.50357909

loop_
_atom_site_label
_atom_site_type_symbol
_atom_type_description
_atom_site_fract_x
_atom_site_fract_y
_atom_site_fract_z
_atom_type_partial_charge
C1    C     C_R   0.499383 0.739849 0.500444 0.553870
C2    C     C_3   0.624495 0.957391 0.517140 0.242605
C3    C     C_3   0.953037 0.387084 0.500103 0.109211
C4    C     C_3   0.046968 0.612925 0.499913 0.110726
C5    C     C_3   0.042867 0.443101 0.560809 0.100517
C6    C     C_3   0.957138 0.556923 0.439200 0.098635
C7    C     C_3   0.058934 0.444320 0.439203 0.098326
C8    C     C_3   0.941057 0.555693 0.560800 0.100904
C9    C     C_R   0.481158 0.500442 0.649722 0.567294
C10   C     C_R   0.518796 0.501418 0.350152 0.561089
C11   C     C_R   0.470148 0.500773 0.735146 0.002297
C12   C     C_R   0.500590 0.260187 0.499879 0.557812
C13   C     C_R   0.529846 0.513710 0.264767 -0.013394
C14   C     C_R   0.559226 0.419854 0.774802 0.180285
C15   C     C_R   0.437286 0.597771 0.229854 0.238495
C16   C     C_R   0.545720 0.414322 0.857059 0.217184
C17   C     C_R   0.454854 0.621864 0.149233 0.249700
C18   C     C_R   0.452193 0.496962 0.898215 -0.026434
C19   C     C_R   0.560187 0.555823 0.103262 0.060793
C20   C     C_R   0.362224 0.577883 0.859073 -0.027076
C21   C     C_R   0.654211 0.472782 0.138084 0.018859
C22   C     C_R   0.372126 0.581146 0.777072 0.185926
C23   C     C_3   0.471805 0.959897 0.429817 -0.043629
C24   C     C_R   0.637515 0.449667 0.218899 0.176339
C25   C     C_2   0.454386 0.501318 0.983936 0.284179
C26   C     C_2   0.559080 0.560672 0.017732 0.278635
C27   C     C_3   0.905931 0.251308 0.500717 -0.369041
C28   C     C_3   0.094092 0.748698 0.499320 -0.368894
C29   C     C_3   0.123737 0.377248 0.366991 -0.343187
C30   C     C_3   0.876186 0.622673 0.633035 -0.350936
C31   C     C_3   0.260459 0.664269 0.905281 -0.328379
C32   C     C_3   0.767744 0.404343 0.087969 -0.305038
C33   C     C_3   0.437574 0.915288 0.349782 -0.361579
C34   C     C_3   0.528253 0.040361 0.571051 -0.043714
C35   C     C_3   0.562043 0.085989 0.651009 -0.366030
C36   C     C_3   0.089381 0.374110 0.632721 -0.356770
C37   C     C_3   0.910682 0.626171 0.367365 -0.353102
C38   C     C_3   0.599941 0.041201 0.445614 -0.148324
C39   C     C_3   0.400117 0.958928 0.555260 -0.150086
C40   C     C_3   0.501277 0.123729 0.500060 0.040632
C41   C     C_3   0.498732 0.876383 0.500748 0.040275
C42   C     C_3   0.375563 0.042754 0.483741 0.242418
Cu1   Cu    Cu3+1 0.356850 0.500010 0.499980 0.956216
Cu2   Cu    Cu3+1 0.643150 0.499990 0.500020 0.952267
H1    H     H_    0.681881 0.075111 0.401452 0.110212
H2    H     H_    0.163884 0.767631 0.446178 0.152116
H3    H     H_    0.040314 0.327651 0.338252 0.124934
H4    H     H_    0.171641 0.446485 0.324823 0.181605
H5    H     H_    0.203996 0.307721 0.383563 0.199798
H6    H     H_    0.828344 0.553361 0.675177 0.165408
H7    H     H_    0.959550 0.672326 0.661788 0.123778
H8    H     H_    0.795839 0.692133 0.616492 0.200374
H9    H     H_    0.674725 0.322482 0.297313 0.330159
H10   H     H_    0.338103 0.692964 0.689727 0.327483
H11   H     H_    0.647988 0.634756 0.921323 0.323362
H12   H     H_    0.318141 0.925007 0.599398 0.111559
H13   H     H_    0.287630 0.398916 0.995974 0.329234
H14   H     H_    0.190079 0.608287 0.946104 0.153770
H15   H     H_    0.319877 0.730876 0.939114 0.127812
H16   H     H_    0.192656 0.720331 0.867977 0.198901
H17   H     H_    0.718921 0.343835 0.045514 0.183636
H18   H     H_    0.836517 0.473517 0.055748 0.169706
H19   H     H_    0.836118 0.343562 0.122240 0.185621
H20   H     H_    0.410510 0.739807 0.066606 0.329263
H21   H     H_    0.642567 0.253726 0.866958 0.335038
H22   H     H_    0.334802 0.867740 0.354666 0.166787
H23   H     H_    0.741095 0.334874 0.762538 0.326302
H24   H     H_    0.431595 0.997062 0.309619 0.152910
H25   H     H_    0.520713 0.848943 0.326275 0.156190
H26   H     H_    0.662527 0.137322 0.645907 0.171020
H27   H     H_    0.571988 0.004357 0.690924 0.145805
H28   H     H_    0.476544 0.149501 0.675072 0.157472
H29   H     H_    0.185500 0.015794 0.459725 0.308917
H30   H     H_    0.814419 0.984352 0.541401 0.308872
H31   H     H_    0.998090 0.325304 0.662444 0.104869
H32   H     H_    0.172334 0.303534 0.615474 0.172856
H33   H     H_    0.128598 0.442061 0.674249 0.172698
H34   H     H_    0.271259 0.708883 0.244783 0.367538
H35   H     H_    0.001964 0.675132 0.337748 0.116441
H36   H     H_    0.871621 0.558386 0.325720 0.182343
H37   H     H_    0.827637 0.696630 0.384666 0.170829
H38   H     H_    0.999014 0.188285 0.502142 0.146119
H39   H     H_    0.836140 0.232378 0.553857 0.149480
H40   H     H_    0.852897 0.231499 0.446970 0.145111
H41   H     H_    0.001010 0.811734 0.497908 0.145655
H42   H     H_    0.147151 0.768487 0.553064 0.146276
N1    N     N_3   0.141720 0.500030 0.499940 -0.227528
N2    N     N_3   0.858280 0.499970 0.500060 -0.228087
O1    O     O_R   0.379130 0.683150 0.499960 -0.521854
O2    O     O_3   0.332972 0.657774 0.276776 -0.714984
O3    O     O_3   0.724688 0.361224 0.250744 -0.716112
O4    O     O_3   0.289073 0.667042 0.739985 -0.718262
O5    O     O_3   0.666915 0.624977 0.976881 -0.723356
O6    O     O_3   0.351896 0.439865 0.030484 -0.693940
O7    O     O_3   0.366529 0.709039 0.117043 -0.703368
O8    O     O_3   0.621532 0.329390 0.899110 -0.707089
O9    O     O_3   0.244950 0.090304 0.465049 -0.718592
O10   O     O_3   0.755096 0.909829 0.535835 -0.719438
O11   O     O_R   0.620870 0.316850 0.500040 -0.521774
O12   O     O_R   0.620910 0.683140 0.500000 -0.473044
O13   O     O_R   0.379090 0.316860 0.500000 -0.472226
O14   O     O_R   0.365090 0.500030 0.613580 -0.516491
O15   O     O_R   0.634910 0.499970 0.386420 -0.515502
O16   O     O_R   0.606870 0.500020 0.613610 -0.466245
O17   O     O_R   0.393130 0.499980 0.386390 -0.459903
O18   O     O_3   0.658279 0.347941 0.731770 -0.730335

loop_
_geom_bond_atom_site_label_1
_geom_bond_atom_site_label_2
_ccdc_geom_bond_type
C30   H7    S    
C7    C29   S    
C4    C8    S    
Cu2   O16   S    
C39   C41   S    
C4    N1    S    
C29   H5    S    
H34   O2    S    
H29   O9    S    
C37   H35   S    
C28   H2    S    
Cu1   O1    S    
C23   C42   S    
C29   H3    S    
C34   C40   S    
C31   H14   S    
C27   H40   S    
C19   C21   A    
C32   H17   S    
C3    C7    S    
C36   H33   S    
Cu2   O11   S    
C2    C41   S    
C5    C36   S    
C6    N2    S    
C34   C35   S    
Cu1   O17   S    
C31   H15   S    
C19   C26   S    
C12   O11   A    
C36   H32   S    
C17   C19   A    
H21   O8    S    
C7    N1    S    
C35   H26   S    
C9    O14   A    
C23   C33   S    
H9    O3    S    
C17   O7    S    
H11   O5    S    
C2    C34   S    
C26   O5    S    
C40   C42   S    
C30   H6    S    
C35   H27   S    
C25   O6    S    
C37   H37   S    
C18   C25   S    
C1    O12   A    
C4    C28   S    
Cu2   O15   S    
C33   H22   S    
C39   C42   S    
C37   H36   S    
C16   O8    S    
C29   H4    S    
C34   C39   S    
H20   O7    S    
C4    C6    S    
C42   O9    S    
C25   C26   D    
C13   C24   A    
C8    N2    S    
C31   H16   S    
C12   C40   S    
Cu1   Cu2   S    
Cu1   O13   S    
H10   O4    S    
C36   H31   S    
C2    C38   S    
C39   H12   S    
C6    C37   S    
C9    C11   S    
C1    C41   S    
C20   C22   A    
C35   H28   S    
H13   O6    S    
C13   C15   A    
C28   H42   S    
C38   H1    S    
C14   C16   A    
C24   O3    S    
C15   C17   A    
C30   H8    S    
C10   O15   A    
C1    O1    A    
H30   O10   S    
C3    N2    S    
C27   H38   S    
C32   H19   S    
C3    C5    S    
C10   C13   S    
C5    C8    S    
H23   O18   S    
C6    C7    S    
C33   H25   S    
C23   C38   S    
C11   C22   A    
C23   C41   S    
Cu1   N1    S    
C27   H39   S    
Cu1   O14   S    
C8    C30   S    
C12   O13   A    
C21   C32   S    
C15   O2    S    
C38   C40   S    
Cu2   O12   S    
C9    O16   A    
C3    C27   S    
C11   C14   A    
C18   C20   A    
C32   H18   S    
C5    N1    S    
C14   O18   S    
C2    O10   S    
C16   C18   A    
C21   C24   A    
C28   H41   S    
C22   O4    S    
C10   O17   A    
Cu2   N2    S    
C33   H24   S    
C20   C31   S    
