data_mof_unit_32661.cif
_audit_creation_date              2012-12-10T17:32:13-0500
_audit_creation_method            fapswitch 2.2
_symmetry_space_group_name_H-M    P1
_symmetry_Int_Tables_number       1
_space_group_crystal_system       triclinic
_cell_length_a                    12.38243
_cell_length_b                    13.130946
_cell_length_c                    14.992204
_cell_angle_alpha                 77.322172
_cell_angle_beta                  100.104165
_cell_angle_gamma                 116.744344
_cell_volume                      2115.54535902

loop_
_atom_site_label
_atom_site_type_symbol
_atom_type_description
_atom_site_fract_x
_atom_site_fract_y
_atom_site_fract_z
_atom_type_partial_charge
C1    C     C_R   0.854979 0.285748 0.510287 0.796303
C2    C     C_R   0.104691 0.571391 0.094872 0.115285
C3    C     C_R   0.791562 0.346499 0.049281 -0.216691
C4    C     C_R   0.789707 0.344608 0.956615 -0.219011
C5    C     C_R   0.891284 0.419938 0.907414 0.051237
C6    C     C_R   0.997250 0.495216 0.954346 0.016677
C7    C     C_R   0.101884 0.569357 0.907958 0.111885
C8    C     C_R   0.206421 0.643306 0.955066 -0.195340
C9    C     C_R   0.207739 0.644490 0.047978 -0.222210
C10   C     C_R   0.890983 0.421150 0.812997 0.204395
C11   C     C_R   0.995703 0.496694 0.767732 -0.087735
C12   C     C_R   0.998585 0.499278 0.670742 0.849759
C13   C     C_R   0.100472 0.568651 0.815127 -0.312023
C14   C     C_R   0.284600 0.023594 0.372673 -0.197661
C15   C     C_R   0.228685 0.835954 0.467318 -0.046478
C16   C     C_R   0.809307 0.079415 0.579061 0.255957
C17   C     C_R   0.726140 0.963439 0.595024 -0.172998
C18   C     C_R   0.606013 0.928543 0.559899 -0.257695
C19   C     C_R   0.565227 0.007825 0.503322 0.082301
C20   C     C_R   0.652308 0.121809 0.475289 0.041425
C21   C     C_R   0.440896 0.976414 0.471685 0.088324
C22   C     C_R   0.406996 0.054413 0.405168 0.165260
C23   C     C_R   0.144935 0.713658 0.486313 0.777634
C24   C     C_R   0.495938 0.160753 0.369892 -0.246244
C25   C     C_R   0.616787 0.193253 0.403222 -0.185884
C26   C     C_R   0.348855 0.869568 0.504589 -0.256427
C27   C     C_R   0.195827 0.914218 0.402919 -0.197350
C28   C     C_R   0.772747 0.160490 0.518964 -0.177424
C29   C     C_R   0.347975 0.335711 0.656046 0.165413
C30   C     C_R   0.767583 0.654551 0.381880 0.083198
C31   C     C_R   0.683084 0.700209 0.366923 -0.282243
C32   C     C_R   0.581568 0.646848 0.416782 -0.151253
C33   C     C_R   0.559370 0.542828 0.478769 0.021065
C34   C     C_R   0.001381 0.500575 0.329504 0.791763
C35   C     C_R   0.653767 0.505781 0.497477 0.270974
C36   C     C_R   0.450844 0.478470 0.526630 -0.106151
C37   C     C_R   0.448133 0.391547 0.602283 0.086542
C38   C     C_R   0.543699 0.359151 0.621100 -0.249993
C39   C     C_R   0.643612 0.414691 0.569893 -0.184742
C40   C     C_R   0.341683 0.491621 0.498441 0.388571
C41   C     C_R   0.248877 0.362988 0.630509 -0.062549
C42   C     C_R   0.105004 0.572305 0.187760 -0.270065
C43   C     C_R   0.001727 0.498576 0.233717 -0.045158
C44   C     C_R   0.896945 0.424412 0.187873 -0.250201
C45   C     C_R   0.895172 0.422078 0.095227 0.116398
C46   C     C_R   0.999066 0.496125 0.048123 0.076868
Cu1   Cu    Cu3+1 0.098270 0.475420 0.521130 0.930784
Cu2   Cu    Cu3+1 0.901730 0.524580 0.478870 0.928284
H1    H     H_    0.184209 0.631654 0.224005 0.133919
H2    H     H_    0.258230 0.082669 0.321572 0.132629
H3    H     H_    0.368121 0.809271 0.558605 0.147163
H4    H     H_    0.548154 0.837653 0.576128 0.143651
H5    H     H_    0.681951 0.273901 0.369596 0.167730
H6    H     H_    0.540293 0.287969 0.674779 0.189606
H7    H     H_    0.817502 0.367980 0.224770 0.128607
H8    H     H_    0.848113 0.697945 0.344927 0.126136
H9    H     H_    0.711853 0.288288 0.085192 0.142167
H10   H     H_    0.180508 0.625411 0.778962 0.151034
H11   H     H_    0.289280 0.702408 0.083182 0.141751
N1    N     N_R   0.246280 0.438190 0.553160 -0.214885
N2    N     N_R   0.754320 0.561190 0.447410 -0.209394
O1    O     O_R   0.972510 0.318130 0.526570 -0.554351
O2    O     O_R   0.806530 0.359650 0.490890 -0.604951
O3    O     O_R   0.082980 0.479210 0.647590 -0.586261
O4    O     O_R   0.917000 0.520730 0.611900 -0.575728
O5    O     O_R   0.193470 0.640350 0.509110 -0.600065
O6    O     O_R   0.027490 0.681870 0.473430 -0.586046
O7    O     O_R   0.083000 0.479270 0.388100 -0.580399
O8    O     O_R   0.917020 0.520790 0.352410 -0.589454
H12   H     H_    0.472101 0.219160 0.316054 0.140889
N3    N     N_2   0.930184 0.114724 0.621981 -0.415631
H13   H     H_    0.992145 0.121500 0.580570 0.262084
C47   C     C_3   0.946875 0.064377 0.716524 -0.734169
H14   H     H_    0.036774 0.120671 0.747473 0.221073
H15   H     H_    0.944015 0.977856 0.719988 0.223993
H16   H     H_    0.876030 0.057057 0.757099 0.240332
H17   H     H_    0.753453 0.899180 0.636958 0.156102
H18   H     H_    0.172471 0.322722 0.671817 0.159697
N4    N     N_2   0.346535 0.253010 0.735768 -0.435779
H19   H     H_    0.260995 0.189074 0.748571 0.248143
C48   C     C_3   0.412345 0.303117 0.816802 -0.714759
H20   H     H_    0.367919 0.350442 0.837408 0.228741
H21   H     H_    0.507966 0.363355 0.804076 0.235103
H22   H     H_    0.412894 0.233440 0.874060 0.226389
N5    N     N_2   0.325999 0.546932 0.407809 -0.442615
H23   H     H_    0.287096 0.603516 0.397277 0.280792
C49   C     C_3   0.306427 0.481855 0.335157 -0.662684
H24   H     H_    0.316291 0.539413 0.267904 0.217287
H25   H     H_    0.214680 0.408743 0.335125 0.248361
H26   H     H_    0.374743 0.446672 0.343741 0.223540
H27   H     H_    0.524784 0.691526 0.408471 0.170629
H28   H     H_    0.697989 0.778841 0.318607 0.145392
H29   H     H_    0.713083 0.385967 0.591402 0.235251
H30   H     H_    0.708077 0.282915 0.924944 0.151692
N6    N     N_2   0.787223 0.346935 0.762756 -0.453879
H31   H     H_    0.705620 0.338603 0.778098 0.244717
C50   C     C_3   0.787361 0.238510 0.757057 -0.722438
H32   H     H_    0.782871 0.185364 0.826270 0.228058
H33   H     H_    0.870558 0.254181 0.727297 0.251356
H34   H     H_    0.707360 0.190097 0.711764 0.229387
H35   H     H_    0.287077 0.700448 0.919933 0.142279
H36   H     H_    0.102995 0.889191 0.373113 0.145034

loop_
_geom_bond_atom_site_label_1
_geom_bond_atom_site_label_2
_ccdc_geom_bond_type
C16   C28   A    
C21   C26   A    
C40   N1    A    
N6    H31   S    
C47   H14   S    
C19   C20   A    
Cu2   O8    S    
C49   H24   S    
C1    O1    A    
C48   H22   S    
Cu1   O1    S    
C48   H20   S    
C18   H4    S    
C7    C8    A    
C14   H2    S    
N5    H23   S    
C2    C46   A    
C5    C6    A    
C23   O5    A    
C36   C37   A    
C19   C21   A    
C25   H5    S    
C30   C31   A    
C12   O3    A    
C32   H27   S    
C20   C25   A    
C33   C36   A    
C18   C19   A    
C23   O6    A    
C39   H29   S    
C50   H33   S    
Cu1   N1    S    
C31   C32   A    
C8    C9    A    
C29   N4    S    
C1    C28   S    
C14   C27   A    
C8    H35   S    
Cu1   O5    S    
C15   C23   S    
C21   C22   A    
C47   H15   S    
C16   N3    S    
C1    O2    A    
C48   H21   S    
C50   H32   S    
N5    C49   S    
C24   H12   S    
C36   C40   A    
C24   C25   A    
C34   O7    A    
C41   H18   S    
N4    C48   S    
C16   C17   A    
C15   C26   A    
C13   H10   S    
C20   C28   A    
C45   C46   A    
C30   H8    S    
C3    C45   A    
C9    H11   S    
C40   N5    S    
C35   C39   A    
C43   C44   A    
C37   C38   A    
C15   C27   A    
Cu1   Cu2   S    
C38   H6    S    
C17   H17   S    
C17   C18   A    
C35   N2    A    
C34   O8    A    
C4    H30   S    
C3    H9    S    
C49   H25   S    
Cu2   O4    S    
C47   H16   S    
C22   C24   A    
C30   N2    A    
C42   C43   A    
C3    C4    A    
Cu1   O7    S    
Cu1   O3    S    
C50   H34   S    
C44   C45   A    
N3    C47   S    
C6    C46   A    
C29   C41   A    
C34   C43   S    
C41   N1    A    
C4    C5    A    
Cu2   O2    S    
C11   C12   S    
N6    C50   S    
C6    C7    A    
C12   O4    A    
C27   H36   S    
C32   C33   A    
C14   C22   A    
C5    C10   A    
C26   H3    S    
C11   C13   A    
C44   H7    S    
Cu2   N2    S    
C38   C39   A    
C10   N6    S    
C2    C42   A    
C33   C35   A    
Cu2   O6    S    
C10   C11   A    
C42   H1    S    
N4    H19   S    
C7    C13   A    
N3    H13   S    
C31   H28   S    
C49   H26   S    
C29   C37   A    
C2    C9    A    
