data_mof_unit_12330.cif
_audit_creation_date              2012-12-11T14:06:33-0500
_audit_creation_method            fapswitch 2.2
_symmetry_space_group_name_H-M    P1
_symmetry_Int_Tables_number       1
_space_group_crystal_system       triclinic
_cell_length_a                    11.795817
_cell_length_b                    11.937619
_cell_length_c                    19.215214
_cell_angle_alpha                 89.960141
_cell_angle_beta                  89.549572
_cell_angle_gamma                 119.801899
_cell_volume                      2347.82405456

loop_
_atom_site_label
_atom_site_type_symbol
_atom_type_description
_atom_site_fract_x
_atom_site_fract_y
_atom_site_fract_z
_atom_type_partial_charge
C1    C     C_R   0.550556 0.476887 0.596487 0.532050
C2    C     C_R   0.522108 0.073434 0.596468 0.535736
C3    C     C_R   0.923241 0.446921 0.597093 0.538410
C4    C     C_2   0.888145 0.366609 0.279594 -0.105624
C5    C     C_2   0.537843 0.627429 0.323815 -0.126731
C6    C     C_2   0.372633 0.934302 0.319889 -0.072793
C7    C     C_R   0.408501 0.850564 0.919203 0.538412
C8    C     C_R   0.075421 0.527569 0.929051 0.536880
C9    C     C_R   0.442168 0.591793 0.919442 0.528728
C10   C     C_R   0.409119 0.851127 0.135499 0.472886
C11   C     C_R   0.049570 0.513777 0.104422 0.536795
C12   C     C_R   0.435019 0.597513 0.132449 0.563172
C13   C     C_R   0.550715 0.477075 0.403878 0.558429
C14   C     C_R   0.520783 0.068963 0.406860 0.578175
C15   C     C_R   0.913688 0.441446 0.398843 0.552618
C16   C     C_1   0.034307 0.515274 0.859141 0.013060
C17   C     C_1   0.452799 0.567091 0.847873 -0.004592
C18   C     C_1   0.434531 0.885958 0.847639 -0.008896
C19   C     C_1   0.995056 0.495593 0.726323 -0.027639
C20   C     C_1   0.482451 0.523093 0.718409 -0.023495
C21   C     C_1   0.475579 0.959424 0.718120 -0.023220
C22   C     C_1   0.013862 0.507309 0.798062 -0.029277
C23   C     C_1   0.463542 0.546859 0.787736 -0.026128
C24   C     C_1   0.453851 0.916891 0.787449 -0.026575
C25   C     C_1   0.971281 0.478691 0.665685 0.013589
C26   C     C_1   0.507561 0.502273 0.660939 0.010471
C27   C     C_1   0.495396 0.005200 0.660742 0.010727
C28   C     C_2   0.951219 0.464544 0.324942 -0.079913
C29   C     C_2   0.502259 0.505569 0.341158 -0.091415
C30   C     C_2   0.483887 0.972573 0.353694 -0.106592
C31   C     C_2   0.954276 0.478862 0.163405 0.008976
C32   C     C_2   0.428298 0.584270 0.209291 -0.053734
C33   C     C_2   0.443812 0.911230 0.203273 -0.032384
C34   C     C_2   0.921287 0.372952 0.204367 0.032029
C35   C     C_2   0.530453 0.663620 0.251009 -0.050947
C36   C     C_2   0.349813 0.869684 0.253413 -0.020977
Cr1   Cr    Cr6+3 0.468420 0.238090 0.499960 1.057793
Cr2   Cr    Cr6+3 0.761910 0.230330 0.499960 1.048290
Cr3   Cr    Cr6+3 0.769670 0.531580 0.499960 1.076471
Cr4   Cr    Cr6+3 0.515700 0.760130 0.026360 1.049422
Cr5   Cr    Cr6+3 0.239870 0.755570 0.026360 1.038263
Cr6   Cr    Cr6+3 0.244430 0.484300 0.026360 1.114448
H1    H     H_    0.816348 0.272206 0.299806 0.163073
H2    H     H_    0.593762 0.704435 0.360525 0.175630
H3    H     H_    0.299213 0.956949 0.338732 0.204859
O1    O     O_R   0.434830 0.101190 0.575190 -0.506143
O2    O     O_R   0.898810 0.333640 0.575190 -0.502104
O3    O     O_R   0.666360 0.565170 0.575190 -0.507055
O4    O     O_3   0.333333 0.666667 0.026340 -0.348607
O5    O     O_R   0.480130 0.360720 0.570290 -0.498317
O6    O     O_R   0.639280 0.119410 0.570290 -0.499236
O7    O     O_R   0.880590 0.519870 0.570290 -0.497358
O8    O     O_R   0.439410 0.104260 0.424150 -0.504110
O9    O     O_R   0.895740 0.335150 0.424150 -0.514186
O10   O     O_R   0.664850 0.560590 0.424150 -0.478365
O11   O     O_R   0.484380 0.363570 0.430280 -0.491255
O12   O     O_R   0.636430 0.120810 0.430280 -0.498107
O13   O     O_R   0.879190 0.515620 0.430280 -0.463706
O14   O     O_3   0.666667 0.333333 0.499980 -0.282227
O15   O     O_R   0.548200 0.655360 0.951320 -0.481558
O16   O     O_R   0.344640 0.892840 0.951320 -0.460221
O17   O     O_R   0.107160 0.451800 0.951320 -0.501258
O18   O     O_R   0.505020 0.871000 0.955840 -0.475456
O19   O     O_R   0.129000 0.634020 0.955840 -0.532445
O20   O     O_R   0.365980 0.494980 0.955840 -0.463953
O21   O     O_R   0.543640 0.655270 0.102360 -0.501236
O22   O     O_R   0.344730 0.888370 0.102360 -0.423244
O23   O     O_R   0.111630 0.456360 0.102360 -0.431243
O24   O     O_R   0.500790 0.870920 0.095850 -0.515751
O25   O     O_R   0.129080 0.629870 0.095850 -0.554750
O26   O     O_R   0.370130 0.499210 0.095850 -0.391989
C37   C     C_2   0.915788 0.253986 0.176697 0.294302
H4    H     H_    0.923497 0.187280 0.212156 0.132169
O27   O     O_2   0.895464 0.225734 0.115198 -0.474856
C38   C     C_2   0.646208 0.785374 0.225807 0.248710
H5    H     H_    0.643754 0.831996 0.178220 0.121748
O28   O     O_2   0.746974 0.837068 0.259339 -0.471077
C39   C     C_2   0.215594 0.764696 0.241602 0.202795
H6    H     H_    0.199185 0.676501 0.217102 0.079087
O29   O     O_2   0.123002 0.777169 0.259618 -0.491320
C40   C     C_2   0.904251 0.569030 0.178657 0.270306
H7    H     H_    0.946466 0.661489 0.151990 0.154997
O30   O     O_2   0.812308 0.539338 0.218484 -0.435598
C41   C     C_2   0.300613 0.487926 0.241188 0.169612
H8    H     H_    0.275071 0.502763 0.293442 0.090790
O31   O     O_2   0.224237 0.390284 0.210298 -0.459406
C42   C     C_2   0.570502 0.035275 0.207061 0.253083
H9    H     H_    0.657313 0.042530 0.183069 0.129706
O32   O     O_2   0.576576 0.131936 0.232328 -0.475593
H10   H     H_    0.023203 0.559469 0.307633 0.146362
H11   H     H_    0.451044 0.426483 0.305100 0.158917
H12   H     H_    0.554056 0.944112 0.336634 0.100686

loop_
_geom_bond_atom_site_label_1
_geom_bond_atom_site_label_2
_ccdc_geom_bond_type
C42   H9    S    
Cr4   O15   S    
C6    H3    S    
Cr5   O16   S    
C40   H7    S    
C11   O25   A    
Cr5   O22   S    
C10   O22   A    
C2    O1    A    
C35   C38   S    
C17   C23   T    
Cr4   O18   S    
C18   C24   T    
C13   C29   S    
C41   O31   D    
C39   O29   D    
Cr4   O4    S    
C33   C36   D    
C7    O16   A    
C40   O30   D    
Cr1   O11   S    
Cr3   O10   S    
Cr6   O20   S    
C2    C27   S    
C1    O5    A    
Cr6   O17   S    
C13   O11   A    
Cr1   O8    S    
Cr3   O7    S    
C21   C27   T    
C11   C31   S    
C8    C16   S    
Cr4   O21   S    
C12   C32   S    
Cr6   O23   S    
C14   C30   S    
Cr5   O4    S    
C4    C28   D    
C5    C29   D    
C32   C41   S    
C4    C34   S    
Cr4   O24   S    
C32   C35   D    
C3    C25   S    
C19   C22   S    
C41   H8    S    
C37   O27   D    
C39   H6    S    
Cr2   O6    S    
Cr3   O13   S    
C12   O21   A    
C38   H5    S    
C15   O9    A    
Cr2   O12   S    
Cr2   O9    S    
C20   C23   S    
C7    C18   S    
Cr3   O14   S    
C31   C34   D    
C38   O28   D    
C7    O18   A    
Cr2   O2    S    
Cr1   O14   S    
C8    O19   A    
C9    C17   S    
C6    C30   D    
C5    H2    S    
C42   O32   D    
C1    C26   S    
C15   O13   A    
C34   C37   S    
C29   H11   S    
C11   O23   A    
C14   O12   A    
C16   C22   T    
C12   O26   A    
C37   H4    S    
C3    O7    A    
C1    O3    A    
C4    H1    S    
C31   C40   S    
C9    O15   A    
C33   C42   S    
C36   C39   S    
Cr1   O5    S    
C15   C28   S    
C20   C26   T    
C5    C35   S    
C3    O2    A    
Cr6   O26   S    
C6    C36   S    
C10   C33   S    
C19   C25   T    
C9    O20   A    
C2    O6    A    
Cr6   O4    S    
Cr2   O14   S    
C10   O24   A    
C14   O8    A    
C21   C24   S    
Cr3   O3    S    
C28   H10   S    
Cr5   O19   S    
Cr1   O1    S    
C8    O17   A    
Cr5   O25   S    
C13   O10   A    
C30   H12   S    
