data_mof_unit_39859.cif
_audit_creation_date              2012-10-26T20:06:32-0400
_audit_creation_method            fapswitch 2.2
_symmetry_space_group_name_H-M    P1
_symmetry_Int_Tables_number       1
_space_group_crystal_system       triclinic
_cell_length_a                    10.809313
_cell_length_b                    9.712783
_cell_length_c                    14.321762
_cell_angle_alpha                 90.200837
_cell_angle_beta                  85.379201
_cell_angle_gamma                 90.33503
_cell_volume                      1498.70069078

loop_
_atom_site_label
_atom_site_type_symbol
_atom_type_description
_atom_site_fract_x
_atom_site_fract_y
_atom_site_fract_z
_atom_type_partial_charge
C1    C     C_R   0.262974 0.499694 0.502536 0.602738
C2    C     C_1   0.499325 0.500111 0.957266 -0.013858
C3    C     C_R   0.054977 0.447174 0.579287 0.091821
C4    C     C_R   0.948446 0.542102 0.418056 0.085845
C5    C     C_R   0.925238 0.445875 0.576604 0.102497
C6    C     C_R   0.076916 0.547260 0.422120 0.113734
C7    C     C_R   0.872197 0.497663 0.497140 0.007918
C8    C     C_R   0.129282 0.499569 0.502177 0.017986
C9    C     C_R   0.571074 0.074617 0.432781 0.119601
C10   C     C_R   0.428642 0.925638 0.567179 0.117346
C11   C     C_R   0.425685 0.073741 0.565365 0.119793
C12   C     C_R   0.737582 0.499930 0.497066 0.586003
C13   C     C_R   0.573346 0.926779 0.434359 0.128216
C14   C     C_3   0.145526 0.492760 0.725699 -0.322906
C15   C     C_3   0.849980 0.473542 0.277633 -0.317984
C16   C     C_3   0.813620 0.252887 0.653061 -0.269625
C17   C     C_3   0.167979 0.741809 0.336574 -0.270452
C18   C     C_3   0.639508 0.149770 0.350977 -0.344004
C19   C     C_3   0.360575 0.850729 0.649149 -0.343950
C20   C     C_3   0.335719 0.144928 0.636214 -0.335521
C21   C     C_3   0.661422 0.856221 0.362886 -0.350189
C22   C     C_R   0.499800 0.499834 0.331494 0.539102
C23   C     C_R   0.499433 0.500174 0.668547 0.545722
C24   C     C_1   0.499637 0.499569 0.229079 -0.052549
C25   C     C_1   0.499317 0.500444 0.770970 -0.054166
C26   C     C_1   0.499549 0.499636 0.143570 -0.057184
C27   C     C_1   0.499271 0.500361 0.856488 -0.058708
C28   C     C_1   0.499423 0.499873 0.042796 -0.013750
Cu1   Cu    Cu3+1 0.500000 0.640660 0.500000 0.899160
Cu2   Cu    Cu3+1 0.500000 0.359340 0.500000 0.899609
H1    H     H_    0.066889 0.307549 0.688083 0.256003
H2    H     H_    0.869078 0.193874 0.701073 0.102660
H3    H     H_    0.828997 0.208118 0.581461 0.162622
H4    H     H_    0.713923 0.241103 0.677053 0.178500
H5    H     H_    0.135089 0.549189 0.280880 0.267991
H6    H     H_    0.078766 0.788870 0.320427 0.139002
H7    H     H_    0.239972 0.767794 0.279566 0.142230
H8    H     H_    0.196947 0.786215 0.403024 0.173967
H9    H     H_    0.573269 0.175218 0.298460 0.141277
H10   H     H_    0.687621 0.241464 0.373652 0.173783
H11   H     H_    0.715449 0.092493 0.312628 0.068601
H12   H     H_    0.061789 0.545971 0.757722 0.137379
H13   H     H_    0.313876 0.757830 0.626909 0.173303
H14   H     H_    0.426848 0.826737 0.701962 0.140197
H15   H     H_    0.283728 0.907674 0.686660 0.068136
H16   H     H_    0.361920 0.124778 0.708299 0.094448
H17   H     H_    0.327704 0.255311 0.630284 0.222551
H18   H     H_    0.240033 0.107194 0.627951 0.096554
H19   H     H_    0.667255 0.746599 0.370333 0.195797
H20   H     H_    0.633990 0.875959 0.291071 0.102569
H21   H     H_    0.757544 0.893116 0.370407 0.080368
H22   H     H_    0.210776 0.569626 0.692434 0.143828
H23   H     H_    0.192618 0.440491 0.781759 0.137945
H24   H     H_    0.850769 0.672055 0.336344 0.242566
H25   H     H_    0.910385 0.381208 0.276222 0.148305
H26   H     H_    0.845384 0.510291 0.204715 0.144797
H27   H     H_    0.754980 0.446121 0.306006 0.132959
H28   H     H_    0.870472 0.431542 0.719463 0.250391
N1    N     N_R   0.500000 0.852070 0.500000 -0.220882
N2    N     N_R   0.500000 0.147930 0.500000 -0.224288
N3    N     N_2   0.111411 0.392105 0.657604 -0.536124
N4    N     N_2   0.899460 0.581999 0.333211 -0.530375
N5    N     N_2   0.847152 0.397583 0.654877 -0.509495
N6    N     N_2   0.155179 0.593704 0.343421 -0.492140
O1    O     O_R   0.319640 0.618740 0.499990 -0.507928
O2    O     O_R   0.680360 0.381260 0.500010 -0.502660
O3    O     O_R   0.680360 0.618740 0.500010 -0.504554
O4    O     O_R   0.319640 0.381260 0.499990 -0.489666
O5    O     O_R   0.500000 0.618810 0.376050 -0.488838
O6    O     O_R   0.500000 0.381190 0.623950 -0.495458
O7    O     O_R   0.500000 0.618810 0.623950 -0.492204
O8    O     O_R   0.500000 0.381190 0.376050 -0.496358

loop_
_geom_bond_atom_site_label_1
_geom_bond_atom_site_label_2
_ccdc_geom_bond_type
C2    C28   T    
C18   H9    S    
C19   H15   S    
C2    C27   S    
C13   N1    A    
C16   N5    S    
C4    N4    S    
C16   H3    S    
C25   C27   T    
C1    C8    S    
H1    N3    S    
C22   O5    A    
C26   C28   S    
C10   C19   S    
C14   H12   S    
C9    N2    A    
C15   H26   S    
C1    O4    A    
C21   H19   S    
C10   N1    A    
C3    C5    A    
C13   C21   S    
C17   N6    S    
C20   H18   S    
C23   C25   S    
C15   H27   S    
C23   O6    A    
H5    N6    S    
Cu2   N2    S    
C4    C7    A    
Cu1   O1    S    
Cu2   O2    S    
C22   O8    A    
C14   H22   S    
C21   H20   S    
Cu2   O6    S    
C15   N4    S    
C24   C26   T    
Cu1   O5    S    
C17   H8    S    
C3    N3    S    
C17   H6    S    
C7    C12   S    
C12   O3    A    
C22   C24   S    
C11   C20   S    
C20   H17   S    
C16   H2    S    
C10   C11   A    
C17   H7    S    
Cu1   Cu2   S    
C11   N2    A    
C23   O7    A    
C9    C18   S    
C21   H21   S    
C14   H23   S    
C18   H10   S    
C19   H14   S    
C5    N5    S    
C4    C6    A    
C3    C8    A    
C18   H11   S    
C6    N6    S    
H28   N5    S    
C5    C7    A    
C9    C13   A    
C6    C8    A    
H24   N4    S    
C16   H4    S    
Cu1   O3    S    
C14   N3    S    
C12   O2    A    
C1    O1    A    
Cu2   O4    S    
Cu1   N1    S    
C19   H13   S    
Cu2   O8    S    
Cu1   O7    S    
C20   H16   S    
C15   H25   S    
