data_mof_unit_27348.cif
_audit_creation_date              2012-12-10T16:50:11-0500
_audit_creation_method            fapswitch 2.2
_symmetry_space_group_name_H-M    P1
_symmetry_Int_Tables_number       1
_space_group_crystal_system       triclinic
_cell_length_a                    7.784571
_cell_length_b                    8.569369
_cell_length_c                    10.622481
_cell_angle_alpha                 91.10179
_cell_angle_beta                  85.746117
_cell_angle_gamma                 93.633657
_cell_volume                      705.165735345

loop_
_atom_site_label
_atom_site_type_symbol
_atom_type_description
_atom_site_fract_x
_atom_site_fract_y
_atom_site_fract_z
_atom_type_partial_charge
Br1   Br    Br    0.652948 0.203693 0.842963 -0.542948
C1    C     C_R   0.545721 0.794671 0.497000 0.922699
C2    C     C_R   0.454291 0.205329 0.503353 0.990747
C3    C     C_R   0.498800 0.503424 0.260791 0.870910
C4    C     C_R   0.396001 0.777715 0.877737 -0.132907
C5    C     C_R   0.337832 0.905781 0.947771 -0.067588
C6    C     C_R   0.334224 0.905610 0.078830 -0.132029
C7    C     C_R   0.386965 0.776572 0.140324 -0.166337
C8    C     C_R   0.442248 0.643932 0.070747 0.100657
C9    C     C_R   0.447460 0.644423 0.938687 0.046177
C10   C     C_R   0.507856 0.512166 0.871525 -0.169223
C11   C     C_R   0.567886 0.384612 0.931700 0.250365
C12   C     C_R   0.561677 0.385138 0.060589 -0.241425
C13   C     C_R   0.497482 0.511454 0.128770 -0.140510
C14   C     C_2   0.569755 0.958179 0.495483 -0.340627
C15   C     C_2   0.430243 0.041813 0.505494 -0.383183
C16   C     C_R   0.502414 0.502920 0.739315 0.920766
H1    H     H_    0.986621 0.617927 0.594661 0.199092
H2    H     H_    0.291883 0.006269 0.132973 0.139544
H3    H     H_    0.385443 0.782861 0.242087 0.150481
H4    H     H_    0.605290 0.285615 0.108266 0.176664
H5    H     H_    0.013390 0.382061 0.405360 0.193348
H6    H     H_    0.402230 0.785587 0.776057 0.148760
H7    H     H_    0.297817 0.006434 0.900071 0.166606
H8    H     H_    0.701541 0.009196 0.485994 0.190811
H9    H     H_    0.298460 0.990790 0.515091 0.180302
N1    N     N_2   0.950330 0.457950 0.466250 -0.163185
N2    N     N_2   0.049670 0.542050 0.533750 -0.164504
O1    O     O_R   0.389250 0.738570 0.508280 -0.631084
O2    O     O_R   0.678390 0.711630 0.486650 -0.627502
O3    O     O_R   0.355400 0.513470 0.694050 -0.617908
O4    O     O_R   0.644540 0.486530 0.672420 -0.586655
O5    O     O_R   0.321610 0.288370 0.513350 -0.625650
O6    O     O_R   0.610750 0.261430 0.491720 -0.598998
O7    O     O_R   0.355460 0.513470 0.327580 -0.633153
O8    O     O_R   0.644600 0.486530 0.305950 -0.611872
Zn1   Zn    Zn3+2 0.306930 0.517990 0.514440 0.952840
Zn2   Zn    Zn3+2 0.693070 0.482010 0.485560 0.976518

loop_
_geom_bond_atom_site_label_1
_geom_bond_atom_site_label_2
_ccdc_geom_bond_type
C10   C11   A    
C3    O8    A    
C5    C6    A    
O4    Zn2   S    
C8    C9    A    
C4    H6    S    
C1    O2    A    
C8    C13   A    
C5    H7    S    
O8    Zn2   S    
C3    O7    A    
C12   H4    S    
C6    C7    A    
C12   C13   A    
C3    C13   S    
C1    C14   S    
C7    H3    S    
Br1   C11   S    
N2    Zn1   S    
C1    O1    A    
O7    Zn1   S    
C6    H2    S    
H5    N1    S    
C15   H9    S    
C4    C5    A    
C16   O3    A    
C14   H8    S    
C9    C10   A    
C2    O5    A    
N1    Zn2   S    
C14   C15   D    
C4    C9    A    
H1    N2    S    
C11   C12   A    
O2    Zn2   S    
O1    Zn1   S    
N1    N2    D    
C16   O4    A    
C10   C16   S    
C2    O6    A    
O6    Zn2   S    
O5    Zn1   S    
C2    C15   S    
O3    Zn1   S    
C7    C8    A    
