data_mof_unit_5661.cif
_audit_creation_date              2012-12-10T17:25:30-0500
_audit_creation_method            fapswitch 2.2
_symmetry_space_group_name_H-M    P1
_symmetry_Int_Tables_number       1
_space_group_crystal_system       triclinic
_cell_length_a                    10.182942
_cell_length_b                    10.529073
_cell_length_c                    22.952004
_cell_angle_alpha                 90.33554
_cell_angle_beta                  80.643197
_cell_angle_gamma                 94.317718
_cell_volume                      2421.15998005

loop_
_atom_site_label
_atom_site_type_symbol
_atom_type_description
_atom_site_fract_x
_atom_site_fract_y
_atom_site_fract_z
_atom_type_partial_charge
C1    C     C_R   0.554540 0.734110 0.492857 0.951088
C2    C     C_R   0.440640 0.414736 0.295377 0.404610
C3    C     C_R   0.414288 0.657052 0.757779 -0.118386
C4    C     C_R   0.429644 0.433694 0.235714 -0.076154
C5    C     C_R   0.441988 0.561900 0.795949 0.098585
C6    C     C_R   0.467575 0.555943 0.209481 -0.042784
C7    C     C_2   0.581815 0.868557 0.478793 -0.379701
C8    C     C_2   0.419106 0.131104 0.489541 -0.380466
C9    C     C_2   0.494505 0.930175 0.453440 0.354395
C10   C     C_2   0.508837 0.069016 0.452652 0.351490
C11   C     C_2   0.926025 0.512030 0.504811 0.382242
C12   C     C_R   0.445625 0.265787 0.500312 0.958806
C13   C     C_2   0.074494 0.489520 0.494394 0.362853
C14   C     C_R   0.499528 0.501626 0.611170 0.888217
C15   C     C_R   0.501610 0.503465 0.388946 0.901035
C16   C     C_R   0.305736 0.534671 0.139240 0.590537
C17   C     C_R   0.501027 0.670888 0.881617 0.571663
C18   C     C_R   0.463765 0.707758 0.127186 0.569375
C19   C     C_R   0.321141 0.508879 0.893383 0.672396
C20   C     C_R   0.470943 0.709189 0.065495 -0.121933
C21   C     C_R   0.308460 0.515082 0.955581 -0.117073
C22   C     C_R   0.388028 0.616325 0.041159 0.013448
C23   C     C_R   0.501843 0.451722 0.773737 0.472918
C24   C     C_R   0.393280 0.607174 0.979691 -0.002422
C25   C     C_R   0.296950 0.534954 0.078986 -0.023313
C26   C     C_R   0.485487 0.689051 0.942477 -0.026448
C27   C     C_R   0.557277 0.796577 0.027548 -0.055258
C28   C     C_R   0.214454 0.435351 0.994699 -0.041980
C29   C     C_R   0.563013 0.785076 0.966543 -0.146496
C30   C     C_R   0.207450 0.449408 0.055760 -0.164995
C31   C     C_2   0.652814 0.893131 0.048118 1.007870
C32   C     C_2   0.128136 0.329495 0.975186 1.011085
C33   C     C_2   0.569540 0.306201 0.688799 0.905069
C34   C     C_R   0.567178 0.630599 0.233782 0.476983
C35   C     C_2   0.660839 0.715209 0.320268 1.020658
C36   C     C_2   0.348394 0.772497 0.781620 1.054736
C37   C     C_2   0.402765 0.320816 0.198737 1.056723
C38   C     C_R   0.526789 0.431091 0.712148 -0.211394
C39   C     C_R   0.576272 0.617201 0.293447 -0.153879
C40   C     C_R   0.499659 0.526867 0.673879 -0.261013
C41   C     C_R   0.505544 0.512242 0.325390 -0.308282
C42   C     C_R   0.449904 0.642522 0.696746 0.382759
H1    H     H_    0.120920 0.610119 0.557165 0.147774
H2    H     H_    0.685494 0.661834 0.159927 0.356378
H3    H     H_    0.539378 0.114753 0.693667 0.375201
H4    H     H_    0.722643 0.900985 0.324639 0.337894
H5    H     H_    0.490620 0.736897 0.622503 0.327410
H6    H     H_    0.421796 0.290656 0.360368 0.344037
H7    H     H_    0.331477 0.961201 0.773862 0.376371
H8    H     H_    0.441656 0.235614 0.119414 0.366818
H9    H     H_    0.671939 0.070218 0.395624 0.340041
H10   H     H_    0.336651 0.928355 0.416124 0.352858
H11   H     H_    0.062243 0.325484 0.456980 0.313432
H12   H     H_    0.878334 0.387701 0.443651 0.156116
H13   H     H_    0.940418 0.677016 0.541260 0.310415
H14   H     H_    0.632664 0.848956 0.937626 0.217481
H15   H     H_    0.138160 0.386103 0.085147 0.209554
H16   H     H_    0.329520 0.080949 0.513542 0.140061
H17   H     H_    0.669949 0.918985 0.491407 0.137220
H18   H     H_    0.735389 0.073805 0.041420 0.364631
H19   H     H_    0.942343 0.244442 0.980414 0.362474
H20   H     H_    0.602804 0.312563 0.794127 0.362875
N1    N     N_R   0.412614 0.599492 0.158304 -0.313328
N2    N     N_R   0.420287 0.581432 0.858537 -0.316811
N3    N     N_2   0.842710 0.448880 0.476480 -0.163712
N4    N     N_2   0.157290 0.551120 0.523520 -0.175113
O1    O     O_R   0.431060 0.692470 0.504730 -0.556790
O2    O     O_2   0.596921 0.741216 0.845514 -0.533347
O3    O     O_2   0.496434 0.814539 0.155853 -0.437173
O4    O     O_2   0.235251 0.433220 0.867357 -0.482886
O5    O     O_2   0.724767 0.863582 0.082806 -0.543722
O6    O     O_R   0.665673 0.016780 0.024939 -0.774859
O7    O     O_2   0.177612 0.245010 0.944149 -0.530985
O8    O     O_R   0.990729 0.322285 0.995621 -0.772925
O9    O     O_3   0.534456 0.367192 0.814081 -0.695117
O10   O     O_3   0.668789 0.702928 0.199158 -0.636201
O11   O     O_2   0.665171 0.301463 0.649250 -0.583082
O12   O     O_R   0.568940 0.307530 0.495270 -0.547368
O13   O     O_R   0.500956 0.193697 0.712935 -0.750724
O14   O     O_2   0.736143 0.684593 0.353213 -0.609174
O15   O     O_R   0.658102 0.843430 0.305339 -0.701547
O16   O     O_3   0.427900 0.740026 0.660180 -0.698308
O17   O     O_3   0.390873 0.299415 0.322019 -0.675492
O18   O     O_2   0.263368 0.764544 0.825963 -0.613450
O19   O     O_R   0.383137 0.890414 0.753364 -0.710594
O20   O     O_2   0.325230 0.231711 0.219135 -0.493147
O21   O     O_R   0.468029 0.316403 0.140291 -0.814785
O22   O     O_3   0.618407 0.133501 0.418893 -0.728638
O23   O     O_R   0.651120 0.659650 0.489640 -0.561827
O24   O     O_3   0.387287 0.865355 0.433388 -0.719796
O25   O     O_3   0.125938 0.401723 0.453796 -0.693496
O26   O     O_3   0.875193 0.601915 0.544441 -0.707992
O27   O     O_R   0.348880 0.340350 0.510360 -0.585573
O28   O     O_R   0.389950 0.516450 0.591390 -0.605790
O29   O     O_R   0.610050 0.483550 0.408610 -0.565948
O30   O     O_R   0.610020 0.483630 0.576300 -0.522719
O31   O     O_R   0.389980 0.516370 0.423700 -0.533385
O32   O     O_2   0.209247 0.471587 0.177887 -0.525628
Zn1   Zn    Zn3+2 0.353060 0.521920 0.510080 1.061228
Zn2   Zn    Zn3+2 0.646940 0.478080 0.489920 1.093600

loop_
_geom_bond_atom_site_label_1
_geom_bond_atom_site_label_2
_ccdc_geom_bond_type
N4    Zn1   S    
C38   C40   A    
C3    C42   A    
C27   C29   A    
H10   O24   S    
C42   O16   S    
C16   O32   S    
C35   O15   S    
C39   C41   A    
H12   N3    S    
C10   O22   S    
C17   C26   A    
C3    C36   S    
C19   C21   A    
C24   C26   A    
C17   N2    A    
C32   O8    S    
C18   N1    A    
H18   O6    S    
C2    C41   A    
C30   H15   S    
C35   O14   D    
C25   C30   A    
H5    O16   S    
C7    H17   S    
H2    O10   S    
C8    H16   S    
C11   O26   S    
C22   C25   A    
C12   O12   A    
H11   O25   S    
C16   N1    A    
C9    C10   S    
O27   Zn1   S    
O1    Zn1   S    
C18   O3    S    
C40   C42   A    
C13   O25   S    
C2    O17   S    
C15   O31   A    
C14   O30   A    
O31   Zn1   S    
C13   N4    D    
O23   Zn2   S    
C27   C31   S    
C34   C39   A    
H7    O19   S    
C37   O20   D    
C28   C32   S    
C15   C41   S    
C4    C6    A    
C32   O7    D    
O29   Zn2   S    
C33   O13   S    
C6    C34   A    
C5    N2    S    
C6    N1    S    
C9    O24   S    
C35   C39   S    
H13   O26   S    
H4    O15   S    
C5    C23   A    
C19   N2    A    
C8    C12   S    
H3    O13   S    
H8    O21   S    
C31   O6    S    
C29   H14   S    
C21   C28   A    
C20   C22   A    
O12   Zn2   S    
C36   O19   S    
C22   C24   A    
C12   O27   A    
C16   C25   A    
C7    C9    D    
C17   O2    S    
C1    O23   A    
C1    C7    S    
C37   O21   S    
N3    Zn2   S    
C23   O9    S    
C3    C5    A    
H9    O22   S    
C20   C27   A    
H19   O8    S    
C23   C38   A    
C33   C38   S    
H6    O17   S    
C28   C30   A    
C15   O29   A    
C11   C13   S    
C33   O11   D    
O28   Zn1   S    
C36   O18   D    
H1    N4    S    
C2    C4    A    
O30   Zn2   S    
C31   O5    D    
C1    O1    A    
C18   C20   A    
H20   O9    S    
C14   C40   S    
C4    C37   S    
C26   C29   A    
C8    C10   D    
C21   C24   A    
C19   O4    S    
C14   O28   A    
C11   N3    D    
C34   O10   S    
