data_mof_unit_59544.cif
_audit_creation_date              2012-10-26T20:20:45-0400
_audit_creation_method            fapswitch 2.2
_symmetry_space_group_name_H-M    P1
_symmetry_Int_Tables_number       1
_space_group_crystal_system       triclinic
_cell_length_a                    8.714934
_cell_length_b                    10.75526
_cell_length_c                    9.612452
_cell_angle_alpha                 89.704397
_cell_angle_beta                  96.464829
_cell_angle_gamma                 92.121659
_cell_volume                      894.644986417

loop_
_atom_site_label
_atom_site_type_symbol
_atom_type_description
_atom_site_fract_x
_atom_site_fract_y
_atom_site_fract_z
_atom_type_partial_charge
C1    C     C_R   0.497764 0.262534 0.499868 0.589324
C2    C     C_R   0.599344 0.068702 0.597868 -0.196949
C3    C     C_R   0.503213 0.871460 0.500334 0.034867
C4    C     C_R   0.496788 0.128540 0.499665 0.034866
C5    C     C_R   0.404460 0.419239 0.068046 0.335959
C6    C     C_R   0.595536 0.580765 0.931953 0.335960
C7    C     C_R   0.405490 0.417564 0.918485 0.038095
C8    C     C_R   0.594509 0.582437 0.081515 0.038092
C9    C     C_R   0.308281 0.320951 0.838332 0.055708
C10   C     C_R   0.152508 0.342180 0.793803 -0.089306
C11   C     C_R   0.055970 0.247049 0.730033 -0.114640
C12   C     C_R   0.502236 0.737466 0.500132 0.589327
C13   C     C_R   0.112726 0.128584 0.715388 -0.100970
C14   C     C_R   0.264974 0.104468 0.767452 -0.110911
C15   C     C_R   0.361731 0.199651 0.830934 -0.071607
C16   C     C_R   0.691734 0.679038 0.161673 0.055690
C17   C     C_R   0.638298 0.800342 0.169092 -0.071663
C18   C     C_R   0.735071 0.895514 0.232575 -0.110911
C19   C     C_R   0.887323 0.871386 0.284619 -0.100971
C20   C     C_R   0.944066 0.752919 0.269951 -0.114641
C21   C     C_R   0.847511 0.657798 0.206180 -0.089269
C22   C     C_R   0.204846 0.494347 0.465813 0.572998
C23   C     C_R   0.795154 0.505653 0.534187 0.573001
C24   C     C_2   0.039996 0.472915 0.453338 0.220274
C25   C     C_2   0.960004 0.527083 0.546663 0.220275
C26   C     C_R   0.396014 0.060743 0.401245 0.218646
C27   C     C_R   0.603986 0.939257 0.598754 0.218642
C28   C     C_R   0.400658 0.931298 0.402131 -0.196952
Cu1   Cu    Cu3+1 0.500000 0.500020 0.640660 1.048914
Cu2   Cu    Cu3+1 0.500000 0.499980 0.359340 1.048912
H1    H     H_    0.322923 0.876962 0.327923 0.099191
H2    H     H_    0.936655 0.264747 0.693740 0.119208
H3    H     H_    0.037919 0.054941 0.666225 0.127561
H4    H     H_    0.307863 0.011926 0.759180 0.129880
H5    H     H_    0.478682 0.179347 0.873136 0.113317
H6    H     H_    0.521345 0.820655 0.126903 0.113320
H7    H     H_    0.692192 0.988058 0.240864 0.129882
H8    H     H_    0.962143 0.945021 0.333783 0.127556
H9    H     H_    0.063384 0.735212 0.306228 0.119208
H10   H     H_    0.894336 0.568199 0.189041 0.158328
H11   H     H_    0.677078 0.123038 0.672076 0.099192
H12   H     H_    0.047793 0.352119 0.303885 0.356328
H13   H     H_    0.952207 0.647879 0.696115 0.356340
H14   H     H_    0.230043 0.060652 0.247585 0.313487
H15   H     H_    0.769955 0.939351 0.752411 0.313477
H16   H     H_    0.231244 0.296818 0.071312 0.307791
H17   H     H_    0.768665 0.703271 0.928682 0.307826
H18   H     H_    0.105672 0.431777 0.810925 0.158326
N1    N     N_R   0.500040 0.500030 0.852080 -0.225137
N2    N     N_R   0.499960 0.499970 0.147920 -0.225139
O1    O     O_R   0.499990 0.319660 0.618740 -0.537453
O2    O     O_3   0.031582 0.611589 0.643896 -0.738255
O3    O     O_3   0.291922 0.122342 0.308844 -0.661574
O4    O     O_3   0.708074 0.877658 0.691156 -0.661599
O5    O     O_3   0.309567 0.340638 0.137386 -0.625175
O6    O     O_3   0.690431 0.659362 0.862609 -0.625199
O7    O     O_R   0.500010 0.680340 0.381260 -0.537454
O8    O     O_R   0.499990 0.319630 0.381170 -0.405075
O9    O     O_R   0.500010 0.680370 0.618830 -0.405080
O10   O     O_R   0.274840 0.500010 0.591370 -0.474983
O11   O     O_R   0.725160 0.499990 0.408630 -0.474979
O12   O     O_R   0.274830 0.499980 0.353800 -0.487821
O13   O     O_R   0.725170 0.500020 0.646200 -0.487801
O14   O     O_3   0.968418 0.388409 0.356105 -0.738259

loop_
_geom_bond_atom_site_label_1
_geom_bond_atom_site_label_2
_ccdc_geom_bond_type
H16   O5    S    
C14   H4    S    
C2    C4    A    
Cu1   O13   S    
C16   C21   A    
C13   H3    S    
C2    C27   A    
C17   H6    S    
C8    N2    A    
C22   O12   A    
C11   C13   A    
C9    C10   A    
C4    C26   A    
C19   C20   A    
Cu1   O10   S    
C1    C4    S    
C23   O13   A    
C17   C18   A    
C9    C15   A    
C25   O2    S    
C8    C16   S    
Cu1   N1    S    
C1    O8    A    
C24   C25   D    
C22   O10   A    
C1    O1    A    
Cu1   Cu2   S    
C21   H10   S    
C12   O7    A    
Cu2   O8    S    
C3    C27   A    
C3    C28   A    
C19   H8    S    
C18   H7    S    
H15   O4    S    
C5    C7    A    
C23   C25   S    
Cu2   O12   S    
C10   H18   S    
H13   O2    S    
C22   C24   S    
C5    N2    A    
C27   O4    S    
C10   C11   A    
C2    H11   S    
C26   O3    S    
Cu2   O7    S    
H12   O14   S    
C23   O11   A    
C20   C21   A    
C7    N1    A    
C24   O14   S    
C18   C19   A    
Cu1   O1    S    
Cu2   O11   S    
C15   H5    S    
C7    C9    S    
C20   H9    S    
C14   C15   A    
C16   C17   A    
C6    C8    A    
C3    C12   S    
Cu2   N2    S    
C13   C14   A    
C12   O9    A    
C26   C28   A    
H14   O3    S    
C5    O5    S    
C28   H1    S    
C6    N1    A    
Cu1   O9    S    
C6    O6    S    
H17   O6    S    
C11   H2    S    
