data_mof_unit_57592.cif
_audit_creation_date              2013-03-05T16:03:59-0500
_audit_creation_method            fapswitch 2.2
_symmetry_space_group_name_H-M    P1
_symmetry_Int_Tables_number       1
_space_group_crystal_system       triclinic
_cell_length_a                    13.041875
_cell_length_b                    10.767706
_cell_length_c                    9.639575
_cell_angle_alpha                 90.242796
_cell_angle_beta                  96.822964
_cell_angle_gamma                 93.082011
_cell_volume                      1342.08778718

loop_
_atom_site_label
_atom_site_type_symbol
_atom_site_description
_atom_site_fract_x
_atom_site_fract_y
_atom_site_fract_z
_atom_type_partial_charge
O1    O     O_R   0.499990 0.319660 0.618740 -0.507250
O2    O     O_R   0.500010 0.680340 0.381260 -0.518687
O3    O     O_R   0.499990 0.319630 0.381170 -0.574706
O4    O     O_R   0.500010 0.680370 0.618830 -0.568697
C1    C     C_R   0.501056 0.262713 0.499999 0.848278
C2    C     C_R   0.498794 0.737224 0.499945 0.855950
O5    O     O_R   0.349000 0.499990 0.599490 -0.574338
O6    O     O_R   0.651000 0.500010 0.400510 -0.550065
O7    O     O_R   0.348990 0.499960 0.361920 -0.506184
O8    O     O_R   0.651010 0.500040 0.638080 -0.506081
C3    C     C_R   0.300988 0.509163 0.472675 0.888612
C4    C     C_R   0.699033 0.489968 0.527002 0.886721
Cu1   Cu    Cu3+1 0.500000 0.500020 0.640660 1.066865
Cu2   Cu    Cu3+1 0.500000 0.499980 0.359340 1.068978
C5    C     C_R   0.812112 0.471436 0.543224 -0.194296
C6    C     C_R   0.187155 0.515232 0.453348 -0.164555
C7    C     C_R   0.025426 0.449814 0.314122 0.213718
C8    C     C_R   0.979979 0.490101 0.683794 0.207635
C9    C     C_R   0.129949 0.488894 0.322411 0.210617
C10   C     C_R   0.871916 0.476156 0.675867 0.218091
C11   C     C_R   0.134047 0.538719 0.568385 0.209246
C12   C     C_R   0.862139 0.448722 0.423088 0.206224
C13   C     C_R   0.028268 0.499793 0.561208 -0.085836
C14   C     C_R   0.971501 0.463025 0.431844 -0.050091
C15   C     C_R   0.423775 0.060593 0.415909 -0.186194
C16   C     C_R   0.575800 0.939186 0.583967 -0.184795
H1    H     H_    0.363242 0.107393 0.353742 0.209867
H2    H     H_    0.636197 0.892325 0.646393 0.211681
C17   C     C_R   0.421333 0.931650 0.414768 0.272282
C18   C     C_R   0.578377 0.068061 0.584844 0.265057
C19   C     C_R   0.497821 0.871028 0.499667 -0.127342
C20   C     C_R   0.501858 0.128805 0.500143 -0.126822
C21   C     C_R   0.437416 0.416541 0.063369 0.325290
C22   C     C_R   0.563279 0.582678 0.936717 0.318923
C23   C     C_R   0.437766 0.416074 0.915610 0.267981
C24   C     C_R   0.563760 0.582202 0.084652 0.292805
N1    N     N_R   0.500030 0.500030 0.852080 -0.252641
N2    N     N_R   0.499970 0.499970 0.147920 -0.250235
N3    N     N_2   0.801279 0.419985 0.292795 -0.385423
H3    H     H_    0.811441 0.473398 0.206507 0.311068
C25   C     C_3   0.753870 0.295461 0.271664 -0.506571
H4    H     H_    0.788371 0.246941 0.188334 0.245887
H5    H     H_    0.669998 0.301103 0.237543 0.242558
H6    H     H_    0.763851 0.240052 0.368975 0.214158
N4    N     N_2   0.172830 0.640387 0.659501 -0.420160
H7    H     H_    0.120642 0.707855 0.668510 0.269921
C26   C     C_3   0.236426 0.616814 0.789205 -0.462936
H8    H     H_    0.201779 0.656405 0.878208 0.247114
H9    H     H_    0.314250 0.663376 0.787497 0.233384
H10   H     H_    0.243852 0.516196 0.806708 0.265483
Br1   Br    Br    0.812201 0.449077 0.848650 -0.462889
Br2   Br    Br    0.183738 0.533651 0.150666 -0.504818
N5    N     N_2   0.978287 0.385745 0.191764 -0.418322
H11   H     H_    0.983135 0.433385 0.100507 0.299948
C27   C     C_3   0.004870 0.257417 0.183248 -0.600007
H12   H     H_    0.959400 0.211812 0.090459 0.242773
H13   H     H_    0.986185 0.206447 0.277876 0.240529
H14   H     H_    0.088535 0.252023 0.173342 0.257501
N6    N     N_2   0.041920 0.476279 0.813620 -0.417978
H15   H     H_    0.017912 0.522029 0.896885 0.298641
C28   C     C_3   0.069356 0.349427 0.841547 -0.565267
H16   H     H_    0.124935 0.346446 0.937491 0.275865
H17   H     H_    0.106816 0.311680 0.753881 0.250163
H18   H     H_    0.999437 0.289581 0.855742 0.246963
Br3   Br    Br    0.309557 0.843136 0.301656 -0.419525
Br4   Br    Br    0.690549 0.155990 0.697350 -0.451235
Br5   Br    Br    0.347787 0.295262 0.141932 -0.432968
Br6   Br    Br    0.654575 0.701928 0.858065 -0.378458
Br7   Br    Br    0.348745 0.293245 0.807028 -0.441750
Br8   Br    Br    0.657692 0.699123 0.194334 -0.389653

loop_
_geom_bond_atom_site_label_1
_geom_bond_atom_site_label_2
_geom_bond_distance
_ccdc_geom_bond_type
C28   H18   1.110266 S    
C18   C20   1.404087 A    
C13   C14   1.415921 A    
C6    C11   1.404402 A    
Cu1   Cu2   2.711803 S    
Cu2   N2    2.037952 S    
C22   N1    1.375879 A    
C25   H5    1.109143 S    
C25   H4    1.108260 S    
Cu1   N1    2.037952 S    
C21   N2    1.376175 A    
C4    C5    1.488735 S    
O6    C4    1.310649 A    
O7    Cu2   1.972551 S    
C1    C20   1.442485 S    
C27   H12   1.109854 S    
N4    C26   1.447239 S    
C2    C19   1.441512 S    
N6    H15   1.028535 S    
C17   C19   1.404110 A    
C27   H13   1.111459 S    
C18   Br4   1.917842 S    
N4    H7    1.032104 S    
O5    C3    1.312250 A    
O7    C3    1.306199 A    
C23   Br7   1.930575 S    
O2    C2    1.297595 A    
O3    Cu2   1.954205 S    
O8    C4    1.310025 A    
C15   C20   1.397813 A    
C6    C9    1.407339 A    
O1    C1    1.298109 A    
C12   N3    1.427109 S    
C12   C14   1.418726 A    
C24   N2    1.376237 A    
C16   H2    1.081598 S    
C23   N1    1.376811 A    
C22   C24   1.425327 A    
C24   Br8   1.928402 S    
C16   C18   1.386263 A    
C26   H10   1.104805 S    
C11   N4    1.432646 S    
N5    C27   1.446941 S    
C11   C13   1.413700 A    
C15   C17   1.387040 A    
C28   H16   1.106924 S    
O2    Cu2   1.952626 S    
C25   H6    1.112167 S    
C17   Br3   1.920014 S    
N6    C28   1.448785 S    
C7    C14   1.414786 A    
C15   H1    1.081315 S    
C8    C13   1.405228 A    
C7    N5    1.421364 S    
C8    N6    1.419586 S    
O5    Cu1   1.962134 S    
O1    Cu1   1.952624 S    
C21   Br5   1.923506 S    
C8    C10   1.402208 A    
O4    C2    1.300385 A    
C3    C6    1.479128 S    
C27   H14   1.111132 S    
C22   Br6   1.923452 S    
N3    H3    1.030656 S    
C28   H17   1.111104 S    
C10   Br1   1.937402 S    
C7    C9    1.397802 A    
O6    Cu2   1.962133 S    
C21   C23   1.424869 A    
N5    H11   1.026890 S    
C16   C19   1.396977 A    
C9    Br2   1.926547 S    
C5    C12   1.421586 A    
C26   H9    1.109560 S    
N3    C25   1.449218 S    
C26   H8    1.109835 S    
O4    Cu1   1.954206 S    
C5    C10   1.415628 A    
O3    C1    1.300372 A    
O8    Cu1   1.972551 S    
