data_mof_unit_37568.cif
_audit_creation_date              2013-03-05T15:55:42-0500
_audit_creation_method            fapswitch 2.2
_symmetry_space_group_name_H-M    P1
_symmetry_Int_Tables_number       1
_space_group_crystal_system       triclinic
_cell_length_a                    6.956305
_cell_length_b                    17.747493
_cell_length_c                    19.430823
_cell_angle_alpha                 108.48056
_cell_angle_beta                  89.514037
_cell_angle_gamma                 90.780889
_cell_volume                      2274.93067121

loop_
_atom_site_label
_atom_site_type_symbol
_atom_site_description
_atom_site_fract_x
_atom_site_fract_y
_atom_site_fract_z
_atom_type_partial_charge
O1    O     O_R   0.494330 0.415710 0.413720 -0.575490
O2    O     O_R   0.819360 0.430070 0.560210 -0.561454
O3    O     O_R   0.994320 0.584290 0.586280 -0.560567
C1    C     C_R   0.650822 0.417402 0.583587 1.041706
O4    O     O_R   0.823740 0.406290 0.412670 -0.554786
O5    O     O_R   0.998730 0.560340 0.437690 -0.586164
C2    C     C_R   0.653113 0.382525 0.385048 1.071872
O6    O     O_R   0.489920 0.439660 0.562310 -0.590167
O7    O     O_3   0.662330 0.550570 0.508380 -0.238261
V1    V     V_3+5 0.935370 0.490620 0.498440 1.386418
O8    O     O_R   0.328720 0.569930 0.439790 -0.565208
C3    C     C_R   0.162294 0.584547 0.417663 1.005400
O9    O     O_R   0.324340 0.593710 0.587330 -0.577894
C4    C     C_R   0.153818 0.618500 0.613957 1.045978
V2    V     V_3+5 0.435940 0.509380 0.501560 1.368005
O10   O     O_3   0.159110 0.449430 0.491620 -0.241893
C5    C     C_R   0.296254 0.736624 0.709516 -0.045799
C6    C     C_R   0.284079 0.799728 0.774128 -0.010929
H1    H     H_    0.405634 0.837155 0.792843 0.233727
C7    C     C_R   0.112777 0.818497 0.812770 -0.352839
C8    C     C_R   0.945282 0.777552 0.779974 0.300383
C9    C     C_R   0.955966 0.713525 0.715042 0.308474
C10   C     C_R   0.135786 0.689388 0.680760 -0.339330
C11   C     C_R   0.308125 0.631510 0.317129 0.387692
C12   C     C_R   0.160921 0.635224 0.369142 -0.329746
C13   C     C_R   0.012110 0.689532 0.376382 -0.054157
C14   C     C_R   0.003390 0.739456 0.332675 -0.039600
C15   C     C_R   0.141064 0.731426 0.277051 0.041884
C16   C     C_R   0.294079 0.677462 0.269412 0.012434
C17   C     C_R   0.858855 0.797037 0.343718 0.204611
C18   C     C_R   0.847730 0.845043 0.298378 0.217495
C19   C     C_R   0.981607 0.836088 0.240337 -0.150549
C20   C     C_R   0.128982 0.778573 0.230148 0.026873
C21   C     C_R   0.267016 0.768840 0.173728 0.063114
C22   C     C_R   0.420473 0.715446 0.167033 0.315706
C23   C     C_R   0.433659 0.672045 0.215405 -0.206230
C24   C     C_R   0.976561 0.883591 0.193079 0.424282
C25   C     C_R   0.107722 0.869836 0.134441 -0.298003
C26   C     C_R   0.249110 0.812471 0.125214 -0.087060
C27   C     C_R   0.756016 0.197346 0.882082 0.350066
C28   C     C_R   0.622716 0.134118 0.868952 -0.416575
C29   C     C_R   0.493865 0.118609 0.810333 0.377476
C30   C     C_R   0.489755 0.169210 0.766342 -0.132877
C31   C     C_R   0.629885 0.231386 0.777938 0.037845
C32   C     C_R   0.764965 0.245313 0.835558 -0.107574
C33   C     C_R   0.351008 0.159081 0.710474 0.231357
C34   C     C_R   0.355623 0.207500 0.665768 0.201155
C35   C     C_R   0.497159 0.267242 0.675577 -0.002239
C36   C     C_R   0.635481 0.279405 0.731364 0.074215
C37   C     C_R   0.779165 0.339494 0.740188 -0.131753
C38   C     C_R   0.910065 0.353646 0.798613 0.213463
C39   C     C_R   0.903342 0.307465 0.845283 0.220196
C40   C     C_R   0.500110 0.315736 0.630692 -0.032274
C41   C     C_R   0.644742 0.372267 0.636295 -0.312901
C42   C     C_R   0.787257 0.383510 0.690170 0.385806
C43   C     C_R   0.773000 0.250995 0.299694 0.390344
C44   C     C_R   0.767085 0.191329 0.231851 -0.093866
C45   C     C_R   0.620355 0.187236 0.181865 -0.372678
C46   C     C_R   0.478047 0.246160 0.199269 0.270550
C47   C     C_R   0.482698 0.307869 0.266552 0.291908
C48   C     C_R   0.635486 0.312765 0.316794 -0.478811
O11   O     O_R   0.774940 0.060470 0.937800 -0.563058
O12   O     O_R   0.440880 0.093730 0.087350 -0.586577
O13   O     O_R   0.266130 0.939630 0.062280 -0.594494
C49   C     C_R   0.610095 0.117850 0.114242 1.088311
O14   O     O_R   0.445480 0.069960 0.939820 -0.552949
O15   O     O_R   0.270770 0.915690 0.913690 -0.595257
C50   C     C_R   0.614598 0.084219 0.917765 1.077533
O16   O     O_R   0.770300 0.084410 0.086380 -0.590514
O17   O     O_3   0.602600 0.949510 0.991670 -0.257757
V3    V     V_3+5 0.329470 0.009370 0.001550 1.366348
O18   O     O_R   0.940760 0.906160 0.912560 -0.555414
C51   C     C_R   0.108366 0.884672 0.883524 1.060019
O19   O     O_R   0.936150 0.929930 0.060100 -0.565286
C52   C     C_R   0.103143 0.916930 0.083280 0.974166
V4    V     V_3+5 0.828930 0.990450 0.998310 1.376598
O20   O     O_3   0.105670 0.050490 0.008320 -0.235054
H2    H     H_    0.429328 0.727007 0.680493 0.224069
H3    H     H_    0.344940 0.802285 0.079153 0.187632
N1    N     N_R   0.567913 0.705427 0.112617 0.233911
O21   O     O_R   0.661550 0.766819 0.106270 -0.387192
O22   O     O_R   0.632416 0.634773 0.078790 -0.293037
H4    H     H_    0.557520 0.634610 0.210331 0.214048
N2    N     N_R   0.877701 0.213214 0.944396 0.248019
O23   O     O_R   0.806414 0.246891 0.008804 -0.310171
O24   O     O_R   0.046343 0.180830 0.938000 -0.277824
N3    N     N_R   0.382144 0.046425 0.791674 0.235221
O25   O     O_R   0.450703 0.982013 0.745761 -0.318732
O26   O     O_R   0.218073 0.043628 0.823476 -0.330356
N4    N     N_R   0.200858 0.100374 0.698341 0.281906
O27   O     O_R   0.207099 0.037764 0.641036 -0.229301
O28   O     O_R   0.040663 0.117920 0.734551 -0.334714
N5    N     N_R   0.215879 0.194241 0.609006 0.261789
O29   O     O_R   0.033873 0.203660 0.624808 -0.330202
O30   O     O_R   0.269175 0.166010 0.541418 -0.269775
H5    H     H_    0.392877 0.308281 0.588956 0.189154
N6    N     N_R   0.941801 0.438413 0.692369 0.242145
O31   O     O_R   0.910851 0.514421 0.715307 -0.335265
O32   O     O_R   0.106260 0.412292 0.662602 -0.371033
N7    N     N_R   0.044757 0.418720 0.815201 0.276790
O33   O     O_R   0.227275 0.405116 0.803038 -0.310803
O34   O     O_R   0.989523 0.489146 0.854253 -0.253379
N8    N     N_R   0.038795 0.326545 0.903600 0.278693
O35   O     O_R   0.997566 0.381118 0.964402 -0.229510
O36   O     O_R   0.214962 0.302018 0.890953 -0.309721
N9    N     N_R   0.909383 0.243665 0.352514 0.274461
O37   O     O_R   0.072498 0.208498 0.331352 -0.300323
O38   O     O_R   0.855887 0.256765 0.419610 -0.344169
H6    H     H_    0.873539 0.145045 0.219296 0.212133
N10   N     N_R   0.329035 0.244585 0.148092 0.271899
O39   O     O_R   0.149329 0.239988 0.165538 -0.324290
O40   O     O_R   0.372895 0.248882 0.084189 -0.280515
N11   N     N_R   0.329841 0.364698 0.282754 0.250839
O41   O     O_R   0.201580 0.362375 0.331091 -0.344069
O42   O     O_R   0.285742 0.400098 0.235892 -0.281702
N12   N     N_R   0.761726 0.809003 0.805099 0.224070
O43   O     O_R   0.718062 0.877961 0.799539 -0.386085
O44   O     O_R   0.663718 0.779902 0.848337 -0.363126
N13   N     N_R   0.780718 0.680686 0.679873 0.230096
O45   O     O_R   0.730264 0.695854 0.621296 -0.387337
O46   O     O_R   0.670063 0.637447 0.706974 -0.345530
N14   N     N_R   0.474434 0.583484 0.314261 0.222528
O47   O     O_R   0.607729 0.608850 0.362871 -0.397122
O48   O     O_R   0.512197 0.524605 0.256193 -0.336397
H7    H     H_    0.905085 0.693742 0.418079 0.203765
N15   N     N_R   0.725913 0.809725 0.403234 0.264128
O49   O     O_R   0.541600 0.803975 0.391508 -0.330941
O50   O     O_R   0.788464 0.834797 0.469675 -0.284732
N16   N     N_R   0.702032 0.904418 0.314218 0.286073
O51   O     O_R   0.719934 0.967244 0.370952 -0.217771
O52   O     O_R   0.535855 0.887727 0.282497 -0.328962
N17   N     N_R   0.851228 0.950221 0.207582 0.228378
O53   O     O_R   0.903697 0.018088 0.253418 -0.353554
O54   O     O_R   0.689604 0.944374 0.172935 -0.343483

loop_
_geom_bond_atom_site_label_1
_geom_bond_atom_site_label_2
_geom_bond_distance
_ccdc_geom_bond_type
C31   C36   1.426243 A    
O14   C50   1.297601 A    
N3    O25   1.300483 A    
O12   C49   1.302604 A    
C39   N8    1.432729 S    
N5    O29   1.300711 A    
C43   C48   1.421108 A    
C28   C29   1.410097 A    
C27   N2    1.434085 S    
C22   C23   1.395518 A    
O18   V4    2.012151 S    
C17   N15   1.437275 S    
N6    O31   1.299926 A    
C44   C45   1.400201 A    
C40   C41   1.391331 A    
C43   C44   1.405532 A    
N16   O52   1.300359 A    
C16   C23   1.405201 A    
C13   C14   1.410440 A    
N15   O49   1.301096 A    
O19   V4    2.001507 S    
C14   C15   1.412162 A    
C15   C16   1.416767 A    
N2    O24   1.300998 A    
C6    H1    1.060762 S    
O5    C3    1.309863 A    
C17   C18   1.409542 A    
N9    O37   1.301839 A    
C23   H4    1.079881 S    
V2    O10   2.167460 S    
C22   N1    1.438377 S    
C46   N10   1.436394 S    
N12   O43   1.302387 A    
O16   V4    2.018198 S    
C5    C6    1.395349 A    
C21   C22   1.414738 A    
O13   V3    2.005192 S    
C11   C16   1.420336 A    
C5    H2    1.067015 S    
N10   O39   1.300722 A    
O8    V2    2.001596 S    
C44   H6    1.081260 S    
C34   C35   1.405884 A    
N17   O53   1.300247 A    
O17   V3    2.166775 S    
O15   C51   1.308675 A    
O7    V1    2.166894 S    
C6    C7    1.389887 A    
C1    O6    1.305072 A    
C46   C47   1.414820 A    
N5    O30   1.301095 A    
O9    C4    1.314475 A    
C14   C17   1.409463 A    
O11   V4    2.003550 S    
C47   N11   1.438472 S    
C27   C32   1.425232 A    
C8    N12   1.420002 S    
C11   N14   1.436548 S    
N6    O32   1.300569 A    
C37   C38   1.418301 A    
C28   C50   1.489064 S    
C25   C52   1.488568 S    
N13   O46   1.300738 A    
C9    N13   1.426560 S    
O19   C52   1.299076 A    
C38   C39   1.402032 A    
C11   C12   1.420000 A    
N1    O22   1.301343 A    
O4    C2    1.314693 A    
N16   O51   1.301262 A    
O18   C51   1.299102 A    
C32   C39   1.421612 A    
C45   C46   1.409342 A    
C21   C26   1.403976 A    
C47   C48   1.432321 A    
C13   H7    1.081291 S    
C26   H3    1.081063 S    
C4    C10   1.499891 S    
O2    C1    1.296122 A    
C30   C31   1.426677 A    
C24   C25   1.415040 A    
C45   C49   1.490444 S    
N4    O28   1.300410 A    
O14   V3    2.005965 S    
N13   O45   1.301833 A    
C42   N6    1.432767 S    
N7    O34   1.300970 A    
C20   C21   1.421371 A    
C34   N5    1.436752 S    
N8    O36   1.301253 A    
C5    C10   1.396119 A    
C19   C24   1.430857 A    
N2    O23   1.301062 A    
C43   N9    1.440439 S    
O3    C4    1.293686 A    
O1    V2    2.012359 S    
C35   C36   1.418154 A    
O12   V3    2.007358 S    
C15   C20   1.422828 A    
O6    V2    2.002898 S    
O9    V2    2.012101 S    
O17   V4    1.713534 S    
C29   C30   1.423273 A    
N14   O48   1.299621 A    
O2    V1    2.006051 S    
V3    O20   1.714703 S    
C31   C32   1.426064 A    
N11   O41   1.299714 A    
C38   N7    1.433603 S    
C33   C34   1.402163 A    
C27   C28   1.406512 A    
N15   O50   1.301565 A    
C1    C41   1.486861 S    
O1    C2    1.294813 A    
C18   C19   1.427243 A    
N1    O21   1.300430 A    
O5    V1    2.005239 S    
C41   C42   1.413604 A    
O8    C3    1.296058 A    
C33   N4    1.432090 S    
C35   C40   1.406002 A    
C37   C42   1.427293 A    
C24   N17   1.431975 S    
O11   C50   1.302876 A    
C3    C12   1.495272 S    
C19   C20   1.424457 A    
N3    O26   1.301104 A    
C12   C13   1.399685 A    
O4    V1    2.007344 S    
C18   N16   1.431982 S    
O3    V1    2.009830 S    
V1    O10   1.714772 S    
V4    O20   2.167547 S    
N4    O27   1.300981 A    
C25   C26   1.394475 A    
N9    O38   1.301621 A    
C49   O16   1.300529 A    
N7    O33   1.301251 A    
O13   C52   1.303151 A    
N12   O44   1.301229 A    
C7    C51   1.499003 S    
O15   V3    2.009810 S    
O7    V2    1.715462 S    
C30   C33   1.425349 A    
N10   O40   1.301392 A    
C7    C8    1.409842 A    
N17   O54   1.301323 A    
C36   C37   1.422545 A    
N8    O35   1.300960 A    
C9    C10   1.418274 A    
C29   N3    1.435188 S    
N11   O42   1.300239 A    
N14   O47   1.299419 A    
C8    C9    1.407263 A    
C2    C48   1.504788 S    
C40   H5    1.082198 S    
