data_mof_unit_16369.cif
_audit_creation_date              2012-12-10T16:57:08-0500
_audit_creation_method            fapswitch 2.2
_symmetry_space_group_name_H-M    P1
_symmetry_Int_Tables_number       1
_space_group_crystal_system       triclinic
_cell_length_a                    7.853261
_cell_length_b                    8.650265
_cell_length_c                    16.71538
_cell_angle_alpha                 93.253585
_cell_angle_beta                  79.2196
_cell_angle_gamma                 92.773687
_cell_volume                      1112.85748403

loop_
_atom_site_label
_atom_site_type_symbol
_atom_type_description
_atom_site_fract_x
_atom_site_fract_y
_atom_site_fract_z
_atom_type_partial_charge
C1    C     C_R   0.545316 0.794148 0.497688 0.843917
C2    C     C_R   0.623217 0.388755 0.208659 0.428543
C3    C     C_R   0.491919 0.314983 0.848243 -0.339292
C4    C     C_R   0.635517 0.393904 0.124748 -0.351407
C5    C     C_R   0.390985 0.413732 0.904636 -0.133115
C6    C     C_R   0.570847 0.518621 0.092250 -0.095601
C7    C     C_R   0.311202 0.540892 0.879401 0.386946
C8    C     C_R   0.502368 0.645663 0.141319 0.456299
C9    C     C_R   0.339853 0.569782 0.795992 0.370201
C10   C     C_R   0.492755 0.644424 0.226023 0.247145
C11   C     C_2   0.418628 0.412071 0.988824 0.412704
C12   C     C_R   0.456076 0.206217 0.502152 0.914240
C13   C     C_2   0.550503 0.504688 0.007094 0.502895
C14   C     C_3   0.812634 0.635374 0.961827 -0.207184
C15   C     C_3   0.180845 0.238026 0.020766 -0.272103
C16   C     C_3   0.868328 0.990147 0.458680 -0.159961
C17   C     C_3   0.315132 0.042822 0.652599 -0.297513
C18   C     C_3   0.985184 0.346413 0.353135 -0.095997
C19   C     C_3   0.028326 0.749520 0.606072 -0.064656
C20   C     C_2   0.570265 0.955430 0.486391 0.200025
C21   C     C_2   0.437445 0.047191 0.517837 0.243715
C22   C     C_R   0.474700 0.499675 0.654040 0.959619
C23   C     C_R   0.525284 0.499954 0.346178 0.940070
C24   C     C_R   0.450075 0.474128 0.740381 -0.188926
C25   C     C_R   0.547314 0.511857 0.259098 -0.232313
C26   C     C_R   0.525241 0.345735 0.765851 0.377132
H1    H     H_    0.686683 0.297200 0.084800 0.158152
H2    H     H_    0.090417 0.316367 0.000738 0.140963
H3    H     H_    0.105554 0.172977 0.071920 0.199121
H4    H     H_    0.231393 0.151876 0.971119 0.188513
H5    H     H_    0.192761 0.602803 0.989443 0.346313
H6    H     H_    0.395482 0.846777 0.145992 0.387443
H7    H     H_    0.922268 0.875703 0.437484 0.175158
H8    H     H_    0.853858 0.008935 0.526139 0.150639
H9    H     H_    0.967083 0.075988 0.431064 0.211561
H10   H     H_    0.313934 0.170907 0.662282 0.182303
H11   H     H_    0.435672 0.997144 0.666806 0.186568
H12   H     H_    0.555812 0.221142 0.869524 0.167190
H13   H     H_    0.204279 0.994572 0.696388 0.192170
H14   H     H_    0.975751 0.461549 0.328203 0.163610
H15   H     H_    0.860545 0.278489 0.362812 0.239620
H16   H     H_    0.076789 0.279887 0.306750 0.154847
H17   H     H_    0.058245 0.819705 0.551373 0.167263
H18   H     H_    0.145274 0.731162 0.631599 0.239998
H19   H     H_    0.937263 0.815056 0.653164 0.127901
H20   H     H_    0.672221 0.168042 0.737481 0.330515
H21   H     H_    0.726157 0.186402 0.199024 0.343161
H22   H     H_    0.464328 0.772513 0.327588 0.342063
H23   H     H_    0.190373 0.748171 0.811836 0.368177
H24   H     H_    0.879581 0.527741 0.968817 0.140082
H25   H     H_    0.812795 0.717282 0.015509 0.185196
H26   H     H_    0.887030 0.692693 0.907742 0.210589
N1    N     N_2   0.953500 0.457650 0.478520 0.190718
N2    N     N_2   0.046500 0.542350 0.521480 0.183626
O1    O     O_R   0.388470 0.738640 0.505270 -0.628974
O2    O     O_3   0.675904 0.261805 0.243018 -0.764469
O3    O     O_3   0.428541 0.772010 0.273928 -0.760975
O4    O     O_3   0.269810 0.694478 0.767058 -0.797796
O5    O     O_3   0.642495 0.601742 0.948591 -0.605958
O6    O     O_3   0.317765 0.322865 0.048919 -0.625879
O7    O     O_3   0.218386 0.645269 0.934555 -0.794501
O8    O     O_3   0.442282 0.766080 0.104440 -0.734665
O9    O     O_3   0.712375 0.008599 0.430103 -0.627193
O10   O     O_3   0.293652 0.996377 0.572685 -0.662973
O11   O     O_3   0.052517 0.361399 0.425002 -0.550001
O12   O     O_R   0.611530 0.261360 0.494730 -0.600403
O13   O     O_3   0.947564 0.608565 0.587769 -0.531470
O14   O     O_R   0.679650 0.711510 0.491500 -0.632202
O15   O     O_R   0.320350 0.288490 0.508500 -0.573976
O16   O     O_R   0.337210 0.515200 0.623500 -0.619230
O17   O     O_R   0.662790 0.484800 0.376500 -0.644776
O18   O     O_R   0.628380 0.488060 0.609730 -0.525537
O19   O     O_R   0.371620 0.511940 0.390270 -0.586818
O20   O     O_3   0.631249 0.253019 0.709348 -0.764684
Zn1   Zn    Zn3+2 0.305580 0.518120 0.509190 1.058560
Zn2   Zn    Zn3+2 0.694420 0.481880 0.490810 1.055075

loop_
_geom_bond_atom_site_label_1
_geom_bond_atom_site_label_2
_ccdc_geom_bond_type
C2    C4    A    
C12   O15   A    
C19   H19   S    
C9    C24   A    
C19   O13   S    
C16   H8    S    
C13   O5    S    
C16   O9    S    
C16   H7    S    
O14   Zn2   S    
N1    O11   S    
C15   O6    S    
H5    O7    S    
C14   H25   S    
C5    C11   S    
O18   Zn2   S    
O1    Zn1   S    
C10   O3    S    
C20   O9    S    
C18   H16   S    
C1    O1    A    
H6    O8    S    
H22   O3    S    
C16   H9    S    
C2    O2    S    
N1    N2    D    
C19   H18   S    
C18   O11   S    
C14   O5    S    
C11   C13   D    
C6    C13   S    
C15   H2    S    
C14   H24   S    
C23   O19   A    
C6    C8    A    
C4    H1    S    
C10   C25   A    
C8    C10   A    
C17   H10   S    
C19   H17   S    
C15   H3    S    
C2    C25   A    
C5    C7    A    
C8    O8    S    
C23   C25   S    
C17   O10   S    
O17   Zn2   S    
C22   C24   S    
N1    Zn2   S    
H23   O4    S    
O19   Zn1   S    
O15   Zn1   S    
C11   O6    S    
C23   O17   A    
H20   O20   S    
C1    O14   A    
C20   C21   D    
C15   H4    S    
C4    C6    A    
C9    O4    S    
C17   H13   S    
C18   H15   S    
C22   O18   A    
O16   Zn1   S    
C7    C9    A    
C18   H14   S    
C7    O7    S    
C1    C20   S    
C17   H11   S    
N2    O13   S    
C26   O20   S    
C12   O12   A    
C12   C21   S    
C22   O16   A    
C3    C26   A    
C14   H26   S    
O12   Zn2   S    
N2    Zn1   S    
C3    H12   S    
C24   C26   A    
H21   O2    S    
C3    C5    A    
C21   O10   S    
