data_mof_unit_61734.cif
_audit_creation_date              2012-10-26T18:19:12-0400
_audit_creation_method            fapswitch 2.2
_symmetry_space_group_name_H-M    P1
_symmetry_Int_Tables_number       1
_space_group_crystal_system       triclinic
_cell_length_a                    18.869017
_cell_length_b                    18.717548
_cell_length_c                    18.779659
_cell_angle_alpha                 109.189626
_cell_angle_beta                  109.755245
_cell_angle_gamma                 109.345294
_cell_volume                      5113.47002372

loop_
_atom_site_label
_atom_site_type_symbol
_atom_type_description
_atom_site_fract_x
_atom_site_fract_y
_atom_site_fract_z
_atom_type_partial_charge
Br1   Br    Br    0.799253 0.542918 0.606214 -0.479755
Br2   Br    Br    0.261128 0.029703 0.434798 -0.522249
Br3   Br    Br    0.111317 0.556779 0.295696 -0.487448
Br4   Br    Br    0.795922 0.695775 0.761126 -0.439677
C1    C     C_R   0.381225 0.381378 0.499703 0.584441
C2    C     C_R   0.262088 0.188969 0.513280 0.032784
C3    C     C_3   0.314349 0.145924 0.531602 0.061250
C4    C     C_R   0.622167 0.502974 0.619450 0.596744
C5    C     C_3   0.384551 0.216319 0.530196 -0.236114
C6    C     C_R   0.301858 0.476099 0.232079 0.009691
C7    C     C_R   0.311873 0.498639 0.314343 -0.010172
C8    C     C_R   0.253458 0.522594 0.331842 -0.092857
C9    C     C_R   0.187922 0.522902 0.267323 0.132544
C10   C     C_R   0.181772 0.500936 0.184948 0.033814
C11   C     C_R   0.240865 0.478666 0.171083 -0.016479
C12   C     C_3   0.810188 0.501089 0.809345 -0.012490
C13   C     C_3   0.267903 0.451129 0.105719 -0.277068
C14   C     C_3   0.338196 0.449007 0.175654 -0.253979
C15   C     C_R   0.752249 0.674972 0.490717 0.082992
C16   C     C_R   0.618664 0.619147 0.499930 0.572910
C17   C     C_R   0.687385 0.687343 0.503142 0.026148
C18   C     C_R   0.693409 0.769530 0.525371 -0.143635
C19   C     C_R   0.757105 0.833513 0.524192 -0.146516
C20   C     C_R   0.816652 0.816558 0.503386 0.019446
C21   C     C_R   0.816810 0.739228 0.492330 0.039373
C22   C     C_3   0.816300 0.674379 0.419709 -0.289399
C23   C     C_3   0.821519 0.478934 0.728327 -0.203858
C24   C     C_3   0.745040 0.603811 0.417579 -0.249879
C25   C     C_R   0.998012 0.381338 0.879562 0.542006
C26   C     C_R   0.877995 0.500205 0.877882 0.537156
C27   C     C_R   0.997470 0.618932 0.115875 0.564914
C28   C     C_R   0.380246 0.499594 0.380563 0.560416
C29   C     C_R   0.116197 0.500127 0.116818 0.578826
C30   C     C_R   0.999609 0.118722 0.618254 0.544123
C31   C     C_R   0.118420 0.118790 0.499858 0.574324
C32   C     C_R   0.000414 0.881117 0.381514 0.561231
C33   C     C_R   0.881621 0.881188 0.500137 0.542654
C34   C     C_3   0.820205 0.593250 0.843894 -0.204914
C35   C     C_R   0.924299 0.245743 0.740330 0.018188
C36   C     C_R   0.999942 0.315235 0.815222 0.025535
C37   C     C_R   0.079191 0.319766 0.825518 -0.148818
C38   C     C_R   0.079520 0.254457 0.761314 -0.146613
C39   C     C_R   0.000817 0.185866 0.685067 0.022931
C40   C     C_3   0.647714 0.435205 0.710214 -0.316319
C41   C     C_R   0.924835 0.185069 0.677427 0.020955
C42   C     C_3   0.828737 0.136586 0.620285 -0.263255
C43   C     C_3   0.828280 0.206549 0.691808 -0.270416
C44   C     C_R   0.931728 0.704429 0.163834 0.007303
C45   C     C_R   0.323178 0.249897 0.511197 -0.075652
C46   C     C_R   0.999786 0.686739 0.183095 0.029066
C47   C     C_R   0.074654 0.741793 0.265828 -0.106833
C48   C     C_R   0.075487 0.805903 0.331501 -0.105725
C49   C     C_R   0.002407 0.817030 0.313731 0.016195
C50   C     C_R   0.933204 0.768852 0.227976 0.038607
C51   C     C_3   0.838228 0.715809 0.193652 -0.264869
C52   C     C_3   0.717104 0.433678 0.781636 -0.255063
C53   C     C_3   0.836829 0.645014 0.123130 -0.279893
C54   C     C_3   0.749915 0.476840 0.655385 0.059870
C55   C     C_3   0.748013 0.594383 0.774741 0.061207
C56   C     C_R   0.313372 0.315374 0.498077 0.029040
C57   C     C_3   0.691873 0.504186 0.688212 0.061829
C58   C     C_R   0.235224 0.315758 0.484589 0.364764
C59   C     C_R   0.170201 0.250395 0.484024 -0.113717
C60   C     C_R   0.183850 0.185838 0.499447 -0.036989
Cu1   Cu    Cu3+1 0.500370 0.438220 0.438550 0.974969
Cu2   Cu    Cu3+1 0.499630 0.561780 0.561450 1.029734
Cu3   Cu    Cu3+1 0.935500 0.438280 0.997350 0.980960
Cu4   Cu    Cu3+1 0.059110 0.561800 0.997270 0.974320
Cu5   Cu    Cu3+1 0.062130 0.000020 0.562160 0.987733
Cu6   Cu    Cu3+1 0.937870 0.000080 0.437940 0.958862
F1    F     F_    0.221292 0.377830 0.470671 -0.608834
H1    H     H_    0.606337 0.369333 0.651022 0.116352
H2    H     H_    0.217299 0.385702 0.048265 0.138213
H3    H     H_    0.294513 0.503157 0.090597 0.146056
H4    H     H_    0.328529 0.382409 0.158283 0.155300
H5    H     H_    0.405358 0.500160 0.201233 0.135560
H6    H     H_    0.646510 0.782748 0.539381 0.138272
H7    H     H_    0.758873 0.895184 0.537755 0.118873
H8    H     H_    0.794154 0.680082 0.359952 0.121711
H9    H     H_    0.878042 0.672731 0.441582 0.167529
H10   H     H_    0.681417 0.568766 0.356653 0.135314
H11   H     H_    0.707447 0.448856 0.838977 0.139776
H12   H     H_    0.885221 0.641719 0.860892 0.190025
H13   H     H_    0.765627 0.561205 0.437730 0.195810
H14   H     H_    0.140136 0.372696 0.883107 0.120182
H15   H     H_    0.140807 0.258359 0.770507 0.130328
H16   H     H_    0.808596 0.138804 0.558528 0.153565
H17   H     H_    0.798322 0.070676 0.612932 0.134565
H18   H     H_    0.808533 0.249551 0.671524 0.131337
H19   H     H_    0.797083 0.180941 0.725351 0.151291
H20   H     H_    0.130569 0.732595 0.280597 0.162160
H21   H     H_    0.132110 0.845081 0.396156 0.181996
H22   H     H_    0.824390 0.696772 0.239699 0.127410
H23   H     H_    0.886757 0.528009 0.746422 0.190862
H24   H     H_    0.708600 0.366887 0.756636 0.140952
H25   H     H_    0.801323 0.745570 0.167901 0.151606
H26   H     H_    0.822240 0.584848 0.128243 0.156687
H27   H     H_    0.799283 0.634097 0.056789 0.131583
H28   H     H_    0.708424 0.408340 0.600481 0.140164
H29   H     H_    0.818208 0.414375 0.704282 0.092698
H30   H     H_    0.705307 0.605065 0.800888 0.137039
H31   H     H_    0.816563 0.612632 0.904768 0.093786
H32   H     H_    0.110328 0.251126 0.472988 0.162490
H33   H     H_    0.333774 0.150768 0.596598 0.137059
H34   H     H_    0.444105 0.263127 0.595071 0.097103
H35   H     H_    0.396013 0.191185 0.475161 0.188616
H36   H     H_    0.258166 0.540480 0.394961 0.192037
H37   H     H_    0.604267 0.450069 0.732896 0.116966
O1    O     O_R   0.410140 0.357660 0.448100 -0.516966
O2    O     O_R   0.947040 0.090210 0.537310 -0.512799
O3    O     O_R   0.142640 0.090190 0.552500 -0.499710
O4    O     O_R   0.409510 0.462000 0.551890 -0.476166
O5    O     O_R   0.037710 0.090250 0.447610 -0.505240
O6    O     O_R   0.052960 0.909890 0.462790 -0.500618
O7    O     O_R   0.948020 0.909940 0.357900 -0.504331
O8    O     O_R   0.962290 0.909850 0.552490 -0.494720
O9    O     O_R   0.857360 0.909910 0.447600 -0.521048
O10   O     O_R   0.590970 0.447830 0.538770 -0.504865
O11   O     O_R   0.590340 0.552170 0.642560 -0.502456
O12   O     O_R   0.049970 0.462000 0.907620 -0.513027
O13   O     O_R   0.590490 0.538000 0.448110 -0.509198
O14   O     O_R   0.589860 0.642340 0.551900 -0.495796
O15   O     O_R   0.409660 0.447830 0.357440 -0.512064
O16   O     O_R   0.409030 0.552170 0.461230 -0.507484
O17   O     O_R   0.945590 0.357690 0.907690 -0.512245
O18   O     O_R   0.854460 0.447890 0.906680 -0.523411
O19   O     O_R   0.958840 0.552200 0.906620 -0.512197
O20   O     O_R   0.944630 0.538080 0.087010 -0.494007
O21   O     O_R   0.049020 0.642390 0.086940 -0.502600
O22   O     O_R   0.035760 0.447880 0.088010 -0.471430
O23   O     O_R   0.140150 0.552190 0.087940 -0.514748
O24   O     O_R   0.051980 0.090160 0.642200 -0.514514

loop_
_geom_bond_atom_site_label_1
_geom_bond_atom_site_label_2
_ccdc_geom_bond_type
C29   O22   A    
C52   H24   S    
C26   O18   A    
Cu5   O8    S    
C14   H4    S    
C25   O17   A    
C34   H12   S    
C24   H13   S    
C37   C38   A    
C28   O16   A    
Br2   C3    S    
C51   H22   S    
C32   O6    A    
C10   C29   S    
C4    O10   A    
C44   C53   S    
C33   O8    A    
C49   C50   A    
C44   C50   A    
C45   C56   A    
C17   C18   A    
C15   C17   A    
C6    C11   A    
Cu3   O17   S    
Cu6   O9    S    
C12   C26   S    
Br4   C55   S    
C56   C58   A    
C42   C43   S    
C2    C60   A    
C32   C49   S    
Cu6   O2    S    
C47   H20   S    
C50   C51   S    
Cu1   O10   S    
Cu2   O14   S    
C40   H1    S    
C31   C60   S    
C38   H15   S    
Cu1   O13   S    
C54   C57   S    
C16   O14   A    
Br3   C9    S    
C4    C57   S    
C35   C41   A    
C29   O23   A    
C12   C23   S    
C44   C46   A    
C30   O24   A    
C19   H7    S    
C9    C10   A    
C13   H2    S    
C43   H18   S    
C28   O15   A    
Cu5   Cu6   S    
C27   O20   A    
C13   C14   S    
C42   H17   S    
C40   H37   S    
Cu6   O5    S    
Cu5   O6    S    
C25   O12   A    
C23   H29   S    
C55   C57   S    
C30   C39   S    
C59   C60   A    
Cu3   Cu4   S    
C55   H30   S    
C5    C45   S    
C20   C21   A    
C20   C33   S    
Cu3   O18   S    
C35   C36   A    
C21   C22   S    
C41   C42   S    
C22   H9    S    
C47   C48   A    
Cu4   O23   S    
C12   C52   S    
C58   C59   A    
C40   C52   S    
C19   C20   A    
C53   H26   S    
C46   C47   A    
C8    C9    A    
C15   C24   S    
C39   C41   A    
Cu4   O19   S    
Cu1   O1    S    
C16   O13   A    
C59   H32   S    
C36   C37   A    
C7    C28   S    
C3    H33   S    
C51   C53   S    
C13   H3    S    
C30   O2    A    
C43   H19   S    
Cu2   O16   S    
C48   H21   S    
Cu3   O22   S    
C38   C39   A    
C27   C46   S    
C40   C57   S    
C31   O3    A    
C48   C49   A    
C35   C43   S    
C42   H16   S    
C11   C13   S    
C26   O19   A    
C14   H5    S    
C1    C56   S    
C24   H10   S    
C10   C11   A    
C54   H28   S    
C18   H6    S    
C51   H25   S    
C23   C54   S    
C8    H36   S    
C7    C8    A    
C52   H11   S    
C2    C3    S    
C1    O4    A    
Cu6   O7    S    
C37   H14   S    
C22   C24   S    
C22   H8    S    
Cu2   O11   S    
C5    H35   S    
C34   H31   S    
Br1   C54   S    
Cu4   O12   S    
Cu5   O3    S    
C1    O1    A    
C6    C14   S    
Cu5   O24   S    
C53   H27   S    
C25   C36   S    
C58   F1    S    
C31   O5    A    
Cu1   O15   S    
C2    C45   A    
Cu4   O21   S    
C15   C21   A    
C6    C7    A    
C34   C55   S    
C3    C5    S    
C33   O9    A    
C16   C17   S    
C27   O21   A    
Cu1   Cu2   S    
C18   C19   A    
C23   H23   S    
Cu2   O4    S    
Cu3   O20   S    
C32   O7    A    
C5    H34   S    
C4    O11   A    
C12   C34   S    
