data_mof_unit_13055.cif
_audit_creation_date              2012-10-26T21:00:18-0400
_audit_creation_method            fapswitch 2.2
_symmetry_space_group_name_H-M    P1
_symmetry_Int_Tables_number       1
_space_group_crystal_system       triclinic
_cell_length_a                    19.335206
_cell_length_b                    8.690645
_cell_length_c                    7.44365
_cell_angle_alpha                 102.912533
_cell_angle_beta                  94.512614
_cell_angle_gamma                 92.364933
_cell_volume                      1213.15689019

loop_
_atom_site_label
_atom_site_type_symbol
_atom_type_description
_atom_site_fract_x
_atom_site_fract_y
_atom_site_fract_z
_atom_type_partial_charge
C1    C     C_R   0.497912 0.199700 0.453280 0.552749
C2    C     C_R   0.811835 0.489137 0.330470 -0.116248
C3    C     C_R   0.146317 0.500933 0.503598 0.037035
C4    C     C_R   0.853683 0.499067 0.496402 0.037035
C5    C     C_R   0.177864 0.491178 0.338307 -0.116545
C6    C     C_R   0.822136 0.508822 0.661693 -0.116545
C7    C     C_R   0.249737 0.491069 0.338552 -0.130017
C8    C     C_R   0.750263 0.508931 0.661448 -0.130017
C9    C     C_R   0.291618 0.500783 0.504103 0.015430
C10   C     C_R   0.708382 0.499217 0.495897 0.015430
C11   C     C_R   0.929840 0.499472 0.498019 0.346342
C12   C     C_R   0.502088 0.800300 0.546720 0.552749
C13   C     C_R   0.070160 0.500527 0.501981 0.346342
C14   C     C_2   0.496912 0.031879 0.426924 -0.153089
C15   C     C_2   0.503088 0.968121 0.573076 -0.153089
C16   C     C_R   0.367503 0.500048 0.501834 0.547086
C17   C     C_R   0.632497 0.499952 0.498166 0.547085
C18   C     C_R   0.260296 0.510859 0.669770 -0.134049
C19   C     C_R   0.739704 0.489141 0.330230 -0.134049
C20   C     C_R   0.188165 0.510863 0.669530 -0.116248
Cu1   Cu    Cu3+1 0.507710 0.517380 0.684380 0.956645
Cu2   Cu    Cu3+1 0.492290 0.482620 0.315620 0.956645
H1    H     H_    0.147139 0.483509 0.208183 0.141313
H2    H     H_    0.834683 0.481502 0.200747 0.134855
H3    H     H_    0.491089 0.960413 0.285999 0.135184
H4    H     H_    0.508911 0.039587 0.714001 0.135184
H5    H     H_    0.852861 0.516491 0.791816 0.141313
H6    H     H_    0.272382 0.483425 0.208516 0.129428
H7    H     H_    0.727618 0.516575 0.791484 0.129427
H8    H     H_    0.445072 0.379402 0.948621 0.237929
H9    H     H_    0.554928 0.620598 0.051379 0.237929
H10   H     H_    0.291397 0.518376 0.799331 0.127412
H11   H     H_    0.708603 0.481624 0.200668 0.127412
H12   H     H_    0.165317 0.518498 0.799253 0.134855
N1    N     N_R   0.029924 0.490570 0.341451 -0.219317
N2    N     N_R   0.970076 0.509430 0.658549 -0.219317
N3    N     N_R   0.961110 0.490058 0.339447 -0.222178
N4    N     N_R   0.038889 0.509942 0.660553 -0.222178
N5    N     N_2   0.480680 0.456420 0.038530 -0.258366
N6    N     N_2   0.519320 0.543580 0.961470 -0.258366
O1    O     O_R   0.505010 0.286130 0.619770 -0.503733
O2    O     O_R   0.494990 0.713870 0.380230 -0.503733
O3    O     O_R   0.491990 0.256780 0.308370 -0.495298
O4    O     O_R   0.508010 0.743220 0.691630 -0.495298
O5    O     O_R   0.406650 0.514660 0.655750 -0.507745
O6    O     O_R   0.593350 0.485340 0.344250 -0.507745
O7    O     O_R   0.393640 0.485310 0.344340 -0.504824
O8    O     O_R   0.606360 0.514690 0.655660 -0.504823

loop_
_geom_bond_atom_site_label_1
_geom_bond_atom_site_label_2
_ccdc_geom_bond_type
C16   O5    A    
C2    C4    A    
C17   O8    A    
Cu1   O4    S    
C5    C7    A    
Cu1   O5    S    
Cu2   O3    S    
C3    C13   S    
C12   C15   S    
C10   C19   A    
Cu1   O8    S    
C20   H12   S    
N2    N4    A    
Cu2   O7    S    
C3    C20   A    
C12   O4    A    
Cu1   Cu2   S    
H9    N6    S    
C4    C11   S    
C13   N4    A    
Cu2   O2    S    
Cu1   N6    S    
Cu1   O1    S    
C8    H7    S    
C6    C8    A    
C16   O7    A    
C4    C6    A    
C11   N2    A    
N1    N3    A    
C9    C16   S    
H8    N5    S    
C13   N1    A    
C18   C20   A    
C14   H3    S    
C2    H2    S    
C18   H10   S    
Cu2   N5    S    
C10   C17   S    
C7    C9    A    
C9    C18   A    
C17   O6    A    
C8    C10   A    
C19   H11   S    
C1    O1    A    
N5    N6    D    
C11   N3    A    
C14   C15   D    
C15   H4    S    
C12   O2    A    
C1    C14   S    
Cu2   O6    S    
C2    C19   A    
C1    O3    A    
C7    H6    S    
C6    H5    S    
C3    C5    A    
C5    H1    S    
