data_mof_unit_35026.cif
_audit_creation_date              2012-10-26T20:03:21-0400
_audit_creation_method            fapswitch 2.2
_symmetry_space_group_name_H-M    P1
_symmetry_Int_Tables_number       1
_space_group_crystal_system       triclinic
_cell_length_a                    10.59691
_cell_length_b                    12.355203
_cell_length_c                    13.12664
_cell_angle_alpha                 116.817287
_cell_angle_beta                  77.363392
_cell_angle_gamma                 100.081552
_cell_volume                      1490.87535489

loop_
_atom_site_label
_atom_site_type_symbol
_atom_type_description
_atom_site_fract_x
_atom_site_fract_y
_atom_site_fract_z
_atom_type_partial_charge
C1    C     C_R   0.513297 0.855083 0.286315 0.525567
C2    C     C_R   0.503547 0.566488 0.008478 -0.022965
C3    C     C_R   0.461089 0.654012 0.121716 -0.059198
C4    C     C_R   0.739773 0.997294 0.497922 0.581141
C5    C     C_R   0.454000 0.442673 0.975784 -0.032561
C6    C     C_R   0.353529 0.410618 0.051387 -0.006266
C7    C     C_R   0.302199 0.501177 0.156873 0.363192
C8    C     C_R   0.354617 0.621046 0.191031 -0.060161
C9    C     C_R   0.502439 0.349314 0.870401 -0.179229
C10   C     C_R   0.349671 0.198341 0.911568 0.363287
C11   C     C_R   0.525615 0.772890 0.162345 -0.055687
C12   C     C_3   0.026769 0.058180 0.598561 0.173162
C13   C     C_R   0.707551 0.341927 0.324895 -0.129666
C14   C     C_R   0.340665 0.771814 0.659967 0.115055
C15   C     C_R   0.335708 0.697373 0.714941 0.341145
C16   C     C_R   0.478782 0.145162 0.713725 0.570215
C17   C     C_R   0.410993 0.598645 0.663275 -0.095520
C18   C     C_R   0.483431 0.567532 0.551795 -0.052720
C19   C     C_R   0.500889 0.656362 0.508077 0.160958
C20   C     C_R   0.543628 0.455050 0.484620 -0.029375
C21   C     C_R   0.641651 0.447006 0.389499 -0.061257
C22   C     C_R   0.672427 0.543620 0.358546 -0.146943
C23   C     C_3   0.933025 0.942920 0.561697 0.247473
C24   C     C_R   0.601596 0.644933 0.414904 -0.050476
C25   C     C_R   0.505914 0.346944 0.502419 0.354880
C26   C     C_R   0.673697 0.242804 0.351505 0.478494
C27   C     C_R   0.260876 0.997359 0.494837 0.598035
C28   C     C_3   0.971607 0.925764 0.385292 0.235055
C29   C     C_3   0.029252 0.876726 0.452440 0.299590
C30   C     C_3   0.124645 0.993315 0.489411 -0.001204
C31   C     C_3   0.065893 0.041128 0.421554 0.183319
C32   C     C_3   0.970368 0.109869 0.531872 -0.214196
C33   C     C_3   0.283434 0.341974 0.552726 -0.015998
C34   C     C_3   0.875842 0.992679 0.494864 -0.030983
C35   C     C_3   0.177612 0.374004 0.658295 -0.372806
C36   C     C_3   0.029530 0.793196 0.194056 -0.004891
C37   C     C_3   0.992268 0.743294 0.074440 -0.340240
C38   C     C_3   0.063007 0.122966 0.293518 0.003622
C39   C     C_3   0.086523 0.259648 0.330546 -0.354459
C40   C     C_3   0.960578 0.183036 0.790361 -0.012359
C41   C     C_3   0.001825 0.248214 0.909170 -0.347073
C42   C     C_3   0.925762 0.840207 0.674475 0.060485
C43   C     C_3   0.882962 0.704646 0.630836 -0.304619
C44   C     C_R   0.304121 0.288481 0.019313 -0.082740
C45   C     C_R   0.447375 0.229395 0.835723 0.020080
C46   C     C_R   0.615588 0.808731 0.085223 -0.059285
C47   C     C_R   0.646519 0.726862 0.970540 0.369954
C48   C     C_R   0.593267 0.606615 0.932438 -0.076539
Cu1   Cu    Cu3+1 0.529830 0.098270 0.475420 1.083749
Cu2   Cu    Cu3+1 0.470170 0.901730 0.524580 1.027309
F1    F     F_    0.063709 0.759864 0.412726 -0.647193
F2    F     F_    0.733058 0.763012 0.896727 -0.660888
F3    F     F_    0.737774 0.141334 0.288492 -0.644886
F4    F     F_    0.261536 0.723325 0.820053 -0.646249
F5    F     F_    0.293130 0.082832 0.879465 -0.621009
F6    F     F_    0.201385 0.473916 0.227888 -0.652651
H1    H     H_    0.582360 0.367327 0.811904 0.124495
H2    H     H_    0.939243 0.202021 0.562407 0.116225
H3    H     H_    0.227200 0.262977 0.076034 0.176436
H4    H     H_    0.256188 0.251638 0.486678 0.225625
H5    H     H_    0.285921 0.406929 0.515102 0.117544
H6    H     H_    0.197392 0.467643 0.724450 0.178883
H7    H     H_    0.082710 0.368897 0.633337 0.093773
H8    H     H_    0.173340 0.310691 0.697539 0.214734
H9    H     H_    0.042454 0.714880 0.209731 0.201634
H10   H     H_    0.123341 0.850500 0.194842 0.173109
H11   H     H_    0.980162 0.819491 0.055383 0.202913
H12   H     H_    0.665142 0.899465 0.114474 0.201415
H13   H     H_    0.069507 0.688638 0.008283 0.159184
H14   H     H_    0.899622 0.684328 0.070139 0.155389
H15   H     H_    0.956933 0.099330 0.313314 0.218406
H16   H     H_    0.090735 0.075910 0.198158 0.179657
H17   H     H_    0.191294 0.285295 0.308899 0.187111
H18   H     H_    0.030054 0.286529 0.284900 0.169352
H19   H     H_    0.054889 0.309139 0.425087 0.135943
H20   H     H_    0.874241 0.118593 0.794782 0.179726
H21   H     H_    0.933453 0.252512 0.768914 0.114853
H22   H     H_    0.087054 0.314619 0.908148 0.160058
H23   H     H_    0.622212 0.548231 0.842418 0.126076
H24   H     H_    0.920817 0.297741 0.974326 0.103020
H25   H     H_    0.027974 0.181143 0.934020 0.198682
H26   H     H_    0.905372 0.882762 0.770439 0.202589
H27   H     H_    0.033144 0.852748 0.649802 0.168047
H28   H     H_    0.903147 0.659196 0.534950 0.203834
H29   H     H_    0.936471 0.662426 0.665593 0.129397
H30   H     H_    0.777151 0.690727 0.659431 0.198075
H31   H     H_    0.308643 0.688068 0.271676 0.203230
H32   H     H_    0.749398 0.539276 0.287440 0.137653
H33   H     H_    0.784350 0.336126 0.253312 0.134393
H34   H     H_    0.285727 0.850844 0.702000 0.198165
H35   H     H_    0.413105 0.548449 0.712037 0.184328
H36   H     H_    0.632290 0.713773 0.384856 0.190691
N1    N     N_R   0.575030 0.246270 0.438190 -0.212440
N2    N     N_R   0.425760 0.754330 0.561190 -0.285915
O1    O     O_R   0.537510 0.972500 0.318130 -0.445320
O2    O     O_3   0.929385 0.860421 0.276906 -0.563437
O3    O     O_3   0.142324 0.087040 0.344773 -0.580816
O4    O     O_3   0.064708 0.121088 0.708798 -0.552394
O5    O     O_3   0.852325 0.894109 0.634543 -0.550700
O6    O     O_R   0.487140 0.806530 0.359650 -0.545346
O7    O     O_R   0.708330 0.082950 0.479220 -0.479148
O8    O     O_R   0.657960 0.916980 0.520740 -0.489403
O9    O     O_R   0.512860 0.193470 0.640350 -0.486996
O10   O     O_R   0.462490 0.027500 0.681870 -0.452946
O11   O     O_R   0.342040 0.083020 0.479260 -0.471051
O12   O     O_R   0.291670 0.917050 0.520780 -0.486220
O13   O     O_3   0.402227 0.341205 0.585302 -0.545991

loop_
_geom_bond_atom_site_label_1
_geom_bond_atom_site_label_2
_ccdc_geom_bond_type
C23   O5    S    
C9    C45   A    
C37   H13   S    
C33   O13   S    
C32   H2    S    
C41   H24   S    
C7    C8    A    
C25   N1    A    
C42   H26   S    
C12   C23   S    
C23   C29   S    
C48   H23   S    
C28   C29   S    
C40   O4    S    
C38   C39   S    
C36   H10   S    
C20   C25   A    
C27   O11   A    
C44   H3    S    
C18   C19   A    
C39   H18   S    
C14   H34   S    
C46   H12   S    
C46   C47   A    
C16   O10   A    
C31   C32   S    
C17   H35   S    
C35   H8    S    
C39   H19   S    
C12   O4    S    
C13   H33   S    
C26   N1    A    
C31   O3    S    
C28   C34   S    
C6    C44   A    
C37   H14   S    
C12   C32   S    
C27   C30   S    
C43   H28   S    
C7    F6    S    
C38   O3    S    
C24   H36   S    
C1    O6    A    
C4    C34   S    
C38   H16   S    
C10   C44   A    
C43   H29   S    
C15   F4    S    
C9    H1    S    
C3    C8    A    
C41   H22   S    
C36   H9    S    
Cu2   N2    S    
Cu1   O11   S    
C27   O12   A    
C2    C48   A    
C40   H20   S    
C4    O8    A    
C32   C34   S    
C5    C9    A    
C29   C30   S    
C36   O2    S    
C16   O9    A    
C47   C48   A    
C30   C31   S    
C1    O1    A    
C23   C34   S    
C41   H25   S    
C4    O7    A    
C10   C45   A    
C17   C18   A    
C13   C21   A    
Cu1   O1    S    
C10   F5    S    
C6    C7    A    
C19   N2    A    
C40   C41   S    
Cu2   O8    S    
C33   H4    S    
C22   H32   S    
C22   C24   A    
C13   C26   A    
C2    C5    A    
C42   C43   S    
C26   F3    S    
C25   O13   S    
C29   F1    S    
C15   C17   A    
C38   H15   S    
C36   C37   S    
C12   C30   S    
C14   C15   A    
C43   H30   S    
C28   C31   S    
C42   H27   S    
C16   C45   S    
Cu1   O9    S    
C47   F2    S    
Cu2   O6    S    
C28   O2    S    
C8    H31   S    
C2    C3    A    
C42   O5    S    
Cu1   O7    S    
C5    C6    A    
C37   H11   S    
C33   C35   S    
C19   C24   A    
C35   H6    S    
C18   C20   A    
C39   H17   S    
C3    C11   A    
C20   C21   A    
C33   H5    S    
Cu1   Cu2   S    
Cu2   O12   S    
C40   H21   S    
C11   C46   A    
C35   H7    S    
C1    C11   S    
Cu1   N1    S    
C21   C22   A    
C14   N2    A    
Cu2   O10   S    
