data_mof_unit_30512.cif
_audit_creation_date              2012-12-10T17:11:30-0500
_audit_creation_method            fapswitch 2.2
_symmetry_space_group_name_H-M    P1
_symmetry_Int_Tables_number       1
_space_group_crystal_system       triclinic
_cell_length_a                    15.06931
_cell_length_b                    12.964055
_cell_length_c                    11.65651
_cell_angle_alpha                 99.729241
_cell_angle_beta                  93.721774
_cell_angle_gamma                 92.205023
_cell_volume                      2236.89053558

loop_
_atom_site_label
_atom_site_type_symbol
_atom_type_description
_atom_site_fract_x
_atom_site_fract_y
_atom_site_fract_z
_atom_type_partial_charge
C1    C     C_R   0.500486 0.299186 0.478711 0.815102
C2    C     C_R   0.498200 0.700702 0.521231 0.818086
C3    C     C_R   0.029914 0.308023 0.437428 -0.090567
C4    C     C_R   0.971594 0.693717 0.575681 -0.108114
C5    C     C_R   0.492454 0.813544 0.532578 -0.043776
C6    C     C_R   0.502487 0.186015 0.466842 -0.049561
C7    C     C_R   0.512901 0.016227 0.346807 -0.236745
C8    C     C_R   0.478386 0.983059 0.651716 -0.222697
C9    C     C_R   0.514450 0.124636 0.358220 -0.190243
C10   C     C_R   0.479985 0.874801 0.641092 -0.191621
C11   C     C_R   0.490365 0.138742 0.564496 -0.263593
C12   C     C_R   0.501175 0.860658 0.434059 -0.279433
C13   C     C_R   0.489688 0.030503 0.554054 0.171547
C14   C     C_R   0.500857 0.968796 0.444271 0.162818
C15   C     C_R   0.416654 0.396327 0.021961 -0.101732
C16   C     C_R   0.583969 0.603157 0.977985 -0.102443
C17   C     C_R   0.425549 0.407072 0.144509 0.039648
C18   C     C_R   0.575673 0.591540 0.855329 0.037924
C19   C     C_R   0.535448 0.544737 0.157684 0.026995
C20   C     C_R   0.464601 0.455302 0.842381 0.029093
C21   C     C_R   0.529584 0.538555 0.034576 0.001594
C22   C     C_R   0.469018 0.463203 0.965683 -0.000810
C23   C     C_R   0.328865 0.495025 0.499901 0.807630
C24   C     C_R   0.671086 0.505798 0.500268 0.817945
C25   C     C_R   0.819922 0.601766 0.546421 -0.053978
C26   C     C_R   0.178979 0.402010 0.452839 -0.054178
C27   C     C_R   0.767659 0.510226 0.499577 -0.098682
C28   C     C_R   0.232402 0.491776 0.501995 -0.101710
C29   C     C_R   0.806583 0.418662 0.454735 -0.197665
C30   C     C_R   0.194578 0.581840 0.554450 -0.208848
C31   C     C_R   0.898894 0.411843 0.462655 0.029789
C32   C     C_R   0.102107 0.588626 0.552359 0.032817
C33   C     C_R   0.953519 0.503716 0.504934 0.040041
C34   C     C_R   0.046971 0.497876 0.507819 0.037500
C35   C     C_R   0.914504 0.601371 0.542346 0.003390
C36   C     C_R   0.085660 0.401337 0.465825 -0.004028
C37   C     C_R   0.936836 0.313990 0.431534 -0.077379
C38   C     C_R   0.064538 0.685838 0.588015 -0.080067
Cu1   Cu    Cu3+1 0.506660 0.507730 0.615930 0.951545
Cu2   Cu    Cu3+1 0.493340 0.492270 0.384070 0.947769
H1    H     H_    0.763000 0.350999 0.418388 0.155467
H2    H     H_    0.238950 0.649061 0.589494 0.159970
H3    H     H_    0.510980 0.813632 0.350062 0.152981
H4    H     H_    0.480590 0.185915 0.648460 0.158948
H5    H     H_    0.472493 0.839207 0.717775 0.163545
H6    H     H_    0.523715 0.160274 0.281955 0.160094
H7    H     H_    0.520875 0.969689 0.262083 0.132908
H8    H     H_    0.469560 0.029615 0.736218 0.141525
H9    H     H_    0.420059 0.397788 0.786877 0.139162
H10   H     H_    0.582016 0.599953 0.212985 0.141314
H11   H     H_    0.616570 0.640733 0.811486 0.138770
H12   H     H_    0.386070 0.356163 0.188125 0.145092
N1    N     N_R   0.516670 0.519360 0.790130 -0.189243
N2    N     N_R   0.483330 0.480640 0.209870 -0.191418
O1    O     O_R   0.504720 0.354460 0.582000 -0.590391
O2    O     O_R   0.495280 0.645540 0.418000 -0.593475
O3    O     O_R   0.493480 0.341410 0.386200 -0.590502
O4    O     O_R   0.506520 0.658590 0.613800 -0.587912
O5    O     O_R   0.375880 0.506510 0.597910 -0.583543
O6    O     O_R   0.624120 0.493490 0.402090 -0.584355
O7    O     O_R   0.364640 0.493450 0.402110 -0.573986
O8    O     O_R   0.635360 0.506550 0.597890 -0.573397
C39   C     C_R   0.774970 0.693191 0.606622 0.081652
C40   C     C_R   0.731879 0.761205 0.542052 -0.145366
C41   C     C_R   0.700595 0.854777 0.599539 -0.118874
C42   C     C_R   0.706374 0.877403 0.721383 -0.070641
C43   C     C_R   0.745440 0.807549 0.786149 -0.117009
C44   C     C_R   0.780397 0.715974 0.729090 -0.117921
H13   H     H_    0.727245 0.744685 0.447534 0.150417
H14   H     H_    0.672285 0.910136 0.549609 0.154636
H15   H     H_    0.680982 0.949320 0.765531 0.135472
H16   H     H_    0.750156 0.825473 0.880460 0.151258
H17   H     H_    0.813173 0.663950 0.779921 0.128543
C45   C     C_R   0.218826 0.315974 0.375467 0.083782
C46   C     C_R   0.198278 0.302076 0.254403 -0.109987
C47   C     C_R   0.227422 0.215139 0.181309 -0.106722
C48   C     C_R   0.276362 0.141070 0.228630 -0.114775
C49   C     C_R   0.296779 0.154457 0.349053 -0.125540
C50   C     C_R   0.270566 0.243224 0.422232 -0.117389
H18   H     H_    0.158164 0.357417 0.217162 0.138569
H19   H     H_    0.210423 0.204174 0.088341 0.164072
H20   H     H_    0.297475 0.072688 0.172218 0.137437
H21   H     H_    0.331582 0.095028 0.385929 0.158052
H22   H     H_    0.286115 0.252258 0.515552 0.137291
C51   C     C_R   0.354586 0.312996 0.955362 0.085360
C52   C     C_R   0.373274 0.207210 0.951332 -0.175806
C53   C     C_R   0.316578 0.128372 0.884657 -0.173686
C54   C     C_R   0.240859 0.154645 0.822139 -0.073206
C55   C     C_R   0.221419 0.259781 0.826704 -0.118585
C56   C     C_R   0.277847 0.338836 0.893431 -0.183618
H23   H     H_    0.432104 0.185985 0.998724 0.129710
H24   H     H_    0.331439 0.046932 0.881249 0.146925
H25   H     H_    0.197184 0.093568 0.770344 0.165170
H26   H     H_    0.162785 0.280037 0.778252 0.172807
H27   H     H_    0.262467 0.420071 0.895813 0.146501
C57   C     C_R   0.652043 0.680037 0.043510 0.088780
C58   C     C_R   0.742803 0.663679 0.031725 -0.172541
C59   C     C_R   0.807584 0.734197 0.096053 -0.117682
C60   C     C_R   0.782205 0.821431 0.172329 -0.070601
C61   C     C_R   0.691995 0.838673 0.183828 -0.165683
C62   C     C_R   0.626933 0.768595 0.119235 -0.176920
H28   H     H_    0.763275 0.595868 0.973642 0.135378
H29   H     H_    0.877462 0.721020 0.087034 0.150511
H30   H     H_    0.832422 0.875655 0.222522 0.158812
H31   H     H_    0.672686 0.906200 0.243114 0.138133
H32   H     H_    0.557204 0.782517 0.129038 0.123445
C63   C     C_2   0.879438 0.215884 0.400484 0.846042
O9    O     O_2   0.834640 0.186418 0.473718 -0.600511
O10   O     O_R   0.876845 0.157977 0.287656 -0.716012
H33   H     H_    0.835546 0.092939 0.277228 0.325411
C64   C     C_2   0.122640 0.781794 0.631870 0.854604
O11   O     O_2   0.165596 0.790300 0.725949 -0.596687
O12   O     O_R   0.127644 0.861841 0.565473 -0.735806
H34   H     H_    0.169319 0.922790 0.604333 0.335342
C65   C     C_2   0.066682 0.203031 0.433974 0.880660
O13   O     O_2   0.102458 0.180178 0.522843 -0.611508
O14   O     O_R   0.059174 0.130293 0.330231 -0.709403
H35   H     H_    0.086815 0.061810 0.339350 0.347318
C66   C     C_2   0.937961 0.800576 0.584964 0.918969
O15   O     O_2   0.941360 0.858539 0.679689 -0.567875
O16   O     O_R   0.907025 0.836280 0.483749 -0.752588
H36   H     H_    0.887629 0.911047 0.500237 0.346965

loop_
_geom_bond_atom_site_label_1
_geom_bond_atom_site_label_2
_ccdc_geom_bond_type
C53   C54   A    
C8    C13   A    
Cu2   O6    S    
C27   C29   A    
C64   O11   D    
C24   C27   S    
C6    C9    A    
C58   C59   A    
C56   H27   S    
C15   C22   A    
C48   C49   A    
C23   O5    A    
C61   H31   S    
C16   C21   A    
C3    C36   A    
C19   C21   A    
C37   C63   S    
C12   H3    S    
C52   H23   S    
C50   H22   S    
C41   H14   S    
C15   C17   A    
C43   H16   S    
C25   C39   S    
C55   H26   S    
C18   N1    A    
C33   C35   A    
C54   H25   S    
C49   H21   S    
C7    C14   A    
Cu1   O1    S    
C42   H15   S    
C65   O14   S    
C59   H29   S    
C63   O9    D    
C31   C33   A    
C4    C66   S    
C32   C38   A    
C46   H18   S    
C58   H28   S    
C15   C51   S    
C42   C43   A    
C4    C35   A    
C9    H6    S    
C13   C14   A    
C63   O10   S    
C17   H12   S    
C18   H11   S    
C66   O16   S    
C51   C56   A    
C16   C57   S    
C45   C46   A    
C43   C44   A    
C57   C62   A    
C47   C48   A    
C5    C12   A    
Cu1   Cu2   S    
C49   C50   A    
Cu2   O2    S    
C44   H17   S    
C51   C52   A    
Cu1   O4    S    
Cu2   O7    S    
C31   C37   A    
C7    H7    S    
C46   C47   A    
C8    H8    S    
C20   H9    S    
C1    O3    A    
C60   C61   A    
C24   O6    A    
Cu1   O5    S    
C57   C58   A    
C10   H5    S    
C33   C34   A    
C11   H4    S    
C64   O12   S    
C40   H13   S    
O16   H36   S    
C25   C35   A    
C19   N2    A    
C26   C36   A    
C12   C14   A    
C59   C60   A    
Cu2   N2    S    
C45   C50   A    
C2    C5    S    
C23   C28   S    
C55   C56   A    
C6    C11   A    
C53   H24   S    
O12   H34   S    
C62   H32   S    
C7    C9    A    
Cu1   O8    S    
C39   C44   A    
C24   O8    A    
Cu2   O3    S    
C29   H1    S    
C52   C53   A    
C8    C10   A    
C20   C22   A    
C20   N1    A    
C47   H19   S    
C66   O15   D    
C2    O4    A    
C25   C27   A    
C26   C28   A    
C40   C41   A    
C28   C30   A    
C1    O1    A    
C5    C10   A    
C29   C31   A    
C3    C65   S    
O14   H35   S    
C30   C32   A    
C11   C13   A    
C19   H10   S    
Cu1   N1    S    
C48   H20   S    
C61   C62   A    
C26   C45   S    
C60   H30   S    
C34   C36   A    
C39   C40   A    
C23   O7    A    
C54   C55   A    
C3    C37   A    
C16   C18   A    
C41   C42   A    
O10   H33   S    
C1    C6    S    
C30   H2    S    
C4    C38   A    
C2    O2    A    
C38   C64   S    
C21   C22   A    
C17   N2    A    
C65   O13   D    
C32   C34   A    
