data_mof_unit_14725.cif
_audit_creation_date              2013-03-05T15:40:18-0500
_audit_creation_method            fapswitch 2.2
_symmetry_space_group_name_H-M    P1
_symmetry_Int_Tables_number       1
_space_group_crystal_system       triclinic
_cell_length_a                    7.753112
_cell_length_b                    8.578232
_cell_length_c                    12.835455
_cell_angle_alpha                 90.282929
_cell_angle_beta                  87.415797
_cell_angle_gamma                 93.508822
_cell_volume                      851.191530494

loop_
_atom_site_label
_atom_site_type_symbol
_atom_site_description
_atom_site_fract_x
_atom_site_fract_y
_atom_site_fract_z
_atom_type_partial_charge
O1    O     O_R   0.609680 0.261530 0.506880 -0.621750
O2    O     O_R   0.390320 0.738470 0.493120 -0.621748
O3    O     O_R   0.323330 0.288220 0.488910 -0.613445
O4    O     O_R   0.676670 0.711780 0.511090 -0.613460
C1    C     C_R   0.454718 0.205266 0.497297 0.978573
C2    C     C_R   0.545282 0.794734 0.502704 0.978530
O5    O     O_R   0.619510 0.488830 0.661140 -0.575093
O6    O     O_R   0.380490 0.511170 0.338860 -0.575110
O7    O     O_R   0.333160 0.515520 0.643180 -0.628722
O8    O     O_R   0.666840 0.484480 0.356820 -0.628730
C3    C     C_R   0.465829 0.507597 0.699552 0.924931
C4    C     C_R   0.534171 0.492404 0.300448 0.924986
Zn1   Zn    Zn3+2 0.691200 0.482180 0.511990 1.019786
Zn2   Zn    Zn3+2 0.308800 0.517820 0.488010 1.019781
N1    N     N_2   0.054030 0.541640 0.471970 -0.147045
N2    N     N_2   0.945970 0.458360 0.528030 -0.147032
C5    C     C_R   0.557550 0.489490 0.189316 -0.147232
C6    C     C_R   0.442450 0.510497 0.810684 -0.147238
C7    C     C_R   0.292677 0.397846 0.962158 -0.121358
C8    C     C_R   0.707329 0.602120 0.037839 -0.121347
C9    C     C_R   0.299396 0.426597 0.856535 -0.212695
C10   C     C_R   0.700606 0.573382 0.143464 -0.212719
C11   C     C_R   0.576110 0.575927 0.870239 0.271028
C12   C     C_R   0.423894 0.424047 0.129764 0.271039
C13   C     C_R   0.571586 0.545140 0.976824 0.006457
C14   C     C_R   0.428413 0.454831 0.023178 0.006445
H1    H     H_    0.802414 0.624582 0.190346 0.187832
H2    H     H_    0.197590 0.375397 0.809650 0.187844
H3    H     H_    0.182897 0.327313 0.994462 0.205889
H4    H     H_    0.817116 0.672640 0.005529 0.205866
H5    H     H_    0.998798 0.615174 0.421708 0.199354
H6    H     H_    0.001202 0.384826 0.578292 0.199367
C15   C     C_2   0.430883 0.041839 0.495614 -0.326919
C16   C     C_2   0.569116 0.958161 0.504387 -0.326940
H7    H     H_    0.300286 0.990899 0.487125 0.189641
H8    H     H_    0.699714 0.009100 0.512876 0.189642
N3    N     N_R   0.283694 0.328872 0.178309 0.200246
O9    O     O_R   0.315926 0.203942 0.229310 -0.394975
O10   O     O_R   0.128254 0.378726 0.184237 -0.394478
N4    N     N_R   0.716344 0.671073 0.821696 0.200223
O11   O     O_R   0.684157 0.796103 0.770768 -0.394960
O12   O     O_R   0.871754 0.621125 0.815711 -0.394462

loop_
_geom_bond_atom_site_label_1
_geom_bond_atom_site_label_2
_geom_bond_distance
_ccdc_geom_bond_type
C4    C5    1.430054 S    
O7    Zn2   2.009379 S    
C3    C6    1.430057 S    
N1    H5    1.029301 S    
N3    O9    1.301516 A    
N2    H6    1.029299 S    
C6    C9    1.393587 A    
C5    C10   1.393574 A    
O6    C4    1.287793 A    
N4    O12   1.302241 A    
C15   C16   1.335061 D    
N3    O10   1.302134 A    
C8    H4    1.081702 S    
O5    C3    1.287792 A    
O7    C3    1.289317 A    
O2    C2    1.278005 A    
O3    Zn2   1.979774 S    
O8    C4    1.289312 A    
O1    C1    1.278005 A    
N1    N2    1.267866 D    
N4    O11   1.301652 A    
C15   H7    1.087827 S    
C9    H2    1.084364 S    
C8    C10   1.377266 A    
C12   N3    1.439328 S    
C16   H8    1.087828 S    
C10   H1    1.084359 S    
C11   C13   1.393083 A    
O2    Zn2   1.960227 S    
C5    C12   1.403296 A    
O1    Zn1   1.960228 S    
C8    C13   1.402658 A    
C11   N4    1.439374 S    
C7    H3    1.081693 S    
C2    C16   1.402969 S    
O5    Zn1   1.970786 S    
O4    C2    1.286474 A    
Zn1   N2    2.017991 S    
O4    Zn1   1.979772 S    
C7    C14   1.402666 A    
Zn2   N1    2.017989 S    
O6    Zn2   1.970786 S    
C7    C9    1.377276 A    
C13   C14   1.423397 A    
C6    C11   1.403292 A    
C12   C14   1.393097 A    
O3    C1    1.286473 A    
O8    Zn1   2.009378 S    
C1    C15   1.402969 S    
