data_mof_unit_58415.cif
_audit_creation_date              2012-10-26T19:51:23-0400
_audit_creation_method            fapswitch 2.2
_symmetry_space_group_name_H-M    P1
_symmetry_Int_Tables_number       1
_space_group_crystal_system       triclinic
_cell_length_a                    19.474008
_cell_length_b                    18.188837
_cell_length_c                    9.07733
_cell_angle_alpha                 89.998709
_cell_angle_beta                  90.029717
_cell_angle_gamma                 90.00121
_cell_volume                      3215.2766063

loop_
_atom_site_label
_atom_site_type_symbol
_atom_type_description
_atom_site_fract_x
_atom_site_fract_y
_atom_site_fract_z
_atom_type_partial_charge
C1    C     C_R   0.367887 0.500006 0.499958 0.495963
C2    C     C_R   0.544623 0.201826 0.408089 -0.112591
C3    C     C_R   0.500002 0.838578 0.499997 0.021428
C4    C     C_R   0.500002 0.162099 0.500002 0.018084
C5    C     C_R   0.519061 0.961590 0.627865 -0.024028
C6    C     C_R   0.480740 0.039579 0.372378 -0.023083
C7    C     C_R   0.480945 0.961592 0.372132 -0.024004
C8    C     C_R   0.519266 0.039576 0.627621 -0.023079
C9    C     C_R   0.500003 0.079261 0.500000 -0.026499
C10   C     C_R   0.500003 0.921678 0.499998 -0.023844
C11   C     C_R   0.500004 0.499999 0.220476 0.544690
C12   C     C_R   0.632118 0.500008 0.500026 0.496025
C13   C     C_R   0.499997 0.499997 0.779523 0.544693
C14   C     C_1   0.500001 0.499993 0.065504 -0.040893
C15   C     C_1   0.499998 0.499992 0.934496 -0.040899
C16   C     C_R   0.743846 0.459522 0.608363 0.002085
C17   C     C_R   0.256267 0.540331 0.608684 -0.000535
C18   C     C_R   0.256174 0.459886 0.391070 0.002161
C19   C     C_R   0.743759 0.540677 0.391807 -0.000611
C20   C     C_R   0.815714 0.459014 0.604754 -0.077291
C21   C     C_R   0.184398 0.540917 0.605106 -0.077441
C22   C     C_R   0.184305 0.459375 0.394664 -0.077152
C23   C     C_R   0.441648 0.721400 0.464393 0.066833
C24   C     C_R   0.815627 0.541264 0.395432 -0.077555
C25   C     C_R   0.851888 0.500150 0.500080 -0.025281
C26   C     C_R   0.148135 0.500152 0.499910 -0.025295
C27   C     C_R   0.707445 0.500051 0.500044 -0.047533
C28   C     C_R   0.292570 0.500048 0.499933 -0.047462
C29   C     C_R   0.964324 0.500301 0.633478 -0.097163
C30   C     C_R   0.035700 0.500778 0.366521 -0.097171
C31   C     C_R   0.035800 0.499576 0.633429 -0.096956
C32   C     C_R   0.964225 0.500050 0.366560 -0.096958
C33   C     C_R   0.072243 0.500173 0.499953 0.029663
C34   C     C_R   0.456216 0.279051 0.590289 0.068895
C35   C     C_R   0.927781 0.500171 0.500041 0.029718
C36   C     C_2   0.708020 0.419799 0.729536 0.248068
C37   C     C_2   0.292207 0.579767 0.730157 0.241028
C38   C     C_2   0.292016 0.420558 0.269400 0.248181
C39   C     C_2   0.707844 0.580449 0.270738 0.240659
C40   C     C_1   0.537417 0.922515 0.761472 0.221195
C41   C     C_1   0.459140 0.079093 0.241479 0.225233
C42   C     C_1   0.462588 0.922520 0.238523 0.221222
C43   C     C_1   0.540867 0.079089 0.758520 0.225322
C44   C     C_R   0.558353 0.721401 0.535604 0.066869
C45   C     C_R   0.543786 0.279056 0.409714 0.068980
C46   C     C_R   0.440389 0.798629 0.465458 -0.111119
C47   C     C_R   0.455381 0.201821 0.591916 -0.112692
C48   C     C_R   0.559614 0.798630 0.534537 -0.111030
Cu1   Cu    Cu3+1 0.500000 0.573360 0.500000 0.959078
Cu2   Cu    Cu3+1 0.500000 0.426640 0.500000 0.955209
H1    H     H_    0.843796 0.426638 0.684771 0.165589
H2    H     H_    0.421692 0.309199 0.661410 0.139204
H3    H     H_    0.604598 0.692159 0.565101 0.142635
H4    H     H_    0.578310 0.309208 0.338595 0.139182
H5    H     H_    0.393062 0.827012 0.439192 0.120951
H6    H     H_    0.420039 0.173240 0.664014 0.125697
H7    H     H_    0.606943 0.827013 0.560802 0.121033
H8    H     H_    0.579966 0.173249 0.335992 0.125751
H9    H     H_    0.653707 0.427983 0.749548 0.135531
H10   H     H_    0.346570 0.571667 0.749778 0.135360
H11   H     H_    0.346405 0.428524 0.249986 0.135472
H12   H     H_    0.156385 0.573078 0.685517 0.165563
H13   H     H_    0.653517 0.572279 0.250770 0.135523
H14   H     H_    0.156219 0.427267 0.314223 0.165629
H15   H     H_    0.843644 0.573689 0.315451 0.165555
H16   H     H_    0.937741 0.501519 0.738174 0.116961
H17   H     H_    0.062286 0.502370 0.261846 0.117096
H18   H     H_    0.062464 0.497984 0.738071 0.117314
H19   H     H_    0.937565 0.498829 0.261895 0.117190
H20   H     H_    0.395404 0.692158 0.434894 0.142624
N1    N     N_R   0.500000 0.683620 0.500000 -0.224870
N2    N     N_R   0.500000 0.316380 0.500000 -0.226389
N3    N     N_1   0.552278 0.891312 0.867915 -0.241455
N4    N     N_1   0.441864 0.110626 0.137106 -0.249859
N5    N     N_1   0.447727 0.891320 0.132080 -0.241512
N6    N     N_1   0.558144 0.110620 0.862894 -0.249684
O1    O     O_R   0.400190 0.561980 0.499980 -0.520633
O2    O     O_2   0.261134 0.621498 0.811786 -0.497503
O3    O     O_2   0.260832 0.379096 0.187341 -0.496714
O4    O     O_2   0.738903 0.622537 0.189814 -0.497559
O5    O     O_R   0.599810 0.438020 0.500020 -0.507804
O6    O     O_R   0.599810 0.561980 0.500020 -0.520719
O7    O     O_R   0.400190 0.438020 0.499980 -0.507806
O8    O     O_R   0.500000 0.561940 0.288400 -0.486762
O9    O     O_R   0.500000 0.438060 0.711600 -0.500175
O10   O     O_R   0.500000 0.561940 0.711600 -0.486752
O11   O     O_R   0.500000 0.438060 0.288400 -0.500197
O12   O     O_2   0.739137 0.377746 0.810495 -0.496586

loop_
_geom_bond_atom_site_label_1
_geom_bond_atom_site_label_2
_ccdc_geom_bond_type
C7    C10   A    
C21   C26   A    
C1    O1    A    
C8    C43   S    
C36   H9    S    
C6    C9    A    
C48   H7    S    
C36   O12   D    
C42   N5    T    
Cu1   O8    S    
C20   H1    S    
C11   C14   S    
C20   C25   A    
C3    C48   A    
C40   N3    T    
C44   N1    A    
C7    C42   S    
Cu2   N2    S    
Cu2   O9    S    
C41   N4    T    
C44   H3    S    
C11   O11   A    
C8    C9    A    
C6    C41   S    
C13   O10   A    
C1    C28   S    
C31   C33   A    
C19   C27   A    
C30   H17   S    
C38   H11   S    
C16   C27   A    
C23   C46   A    
C45   N2    A    
C23   H20   S    
Cu2   O7    S    
C2    C45   A    
C31   H18   S    
C12   C27   S    
C32   C35   A    
C23   N1    A    
C18   C28   A    
C24   C25   A    
C17   C21   A    
Cu1   O6    S    
C46   H5    S    
C2    C4    A    
C38   O3    D    
C26   C33   S    
C16   C20   A    
C12   O6    A    
C17   C37   S    
C21   H12   S    
C32   H19   S    
C19   C39   S    
C24   H15   S    
C25   C35   S    
Cu2   O11   S    
C45   H4    S    
C13   C15   S    
C22   C26   A    
C34   N2    A    
C43   N6    T    
C30   C33   A    
C18   C22   A    
C17   C28   A    
Cu1   O10   S    
C5    C8    A    
C2    H8    S    
C6    C7    A    
C11   O8    A    
C1    O7    A    
C39   H13   S    
C37   O2    D    
C29   C35   A    
C3    C46   A    
C34   H2    S    
C39   O4    D    
C19   C24   A    
C18   C38   S    
C5    C10   A    
C29   C31   A    
C3    C10   S    
C16   C36   S    
C30   C32   A    
Cu1   O1    S    
C12   O5    A    
C37   H10   S    
C22   H14   S    
C29   H16   S    
Cu1   Cu2   S    
Cu1   N1    S    
C5    C40   S    
C13   O9    A    
C14   C15   T    
C34   C47   A    
C4    C9    S    
C44   C48   A    
Cu2   O5    S    
C47   H6    S    
C4    C47   A    
