data_mof_unit_59358.cif
_audit_creation_date              2012-12-11T14:31:10-0500
_audit_creation_method            fapswitch 2.2
_symmetry_space_group_name_H-M    P1
_symmetry_Int_Tables_number       1
_space_group_crystal_system       triclinic
_cell_length_a                    6.897929
_cell_length_b                    14.281312
_cell_length_c                    16.402546
_cell_angle_alpha                 89.999926
_cell_angle_beta                  89.999887
_cell_angle_gamma                 90.000032
_cell_volume                      1615.83901994

loop_
_atom_site_label
_atom_site_type_symbol
_atom_type_description
_atom_site_fract_x
_atom_site_fract_y
_atom_site_fract_z
_atom_type_partial_charge
O1    O     O_R   0.469910 0.836130 0.163900 -0.539953
O2    O     O_R   0.530090 0.163870 0.836100 -0.539953
O3    O     O_R   0.530090 0.163870 0.663900 -0.539953
O4    O     O_R   0.469910 0.836130 0.336100 -0.539953
O5    O     O_R   0.969910 0.663870 0.336100 -0.539953
O6    O     O_R   0.030090 0.336130 0.663900 -0.539953
O7    O     O_R   0.030090 0.336130 0.836100 -0.539953
O8    O     O_R   0.969910 0.663870 0.163900 -0.539953
O9    O     O_R   0.140100 0.847470 0.335520 -0.547440
O10   O     O_R   0.859900 0.152530 0.664480 -0.547440
O11   O     O_R   0.859900 0.152530 0.835520 -0.547440
O12   O     O_R   0.140100 0.847470 0.164480 -0.547440
O13   O     O_R   0.640100 0.652530 0.164480 -0.547440
O14   O     O_R   0.359900 0.347470 0.835520 -0.547440
O15   O     O_R   0.359900 0.347470 0.664480 -0.547440
O16   O     O_R   0.640100 0.652530 0.335520 -0.547440
C1    C     C_R   0.309919 0.867867 0.365172 0.820204
C2    C     C_R   0.690081 0.132133 0.634828 0.820204
C3    C     C_R   0.690081 0.132133 0.865172 0.820204
C4    C     C_R   0.309919 0.867867 0.134828 0.820205
C5    C     C_R   0.809919 0.632133 0.134828 0.820202
C6    C     C_R   0.190081 0.367867 0.865172 0.820202
C7    C     C_R   0.190081 0.367867 0.634828 0.820202
C8    C     C_R   0.809919 0.632133 0.365172 0.820202
O17   O     O_3   0.303300 0.689750 0.250000 -0.387211
O18   O     O_3   0.696700 0.310250 0.750000 -0.387211
O19   O     O_3   0.803300 0.810250 0.250000 -0.387211
O20   O     O_3   0.196700 0.189750 0.750000 -0.387211
V1    V     V_3+5 0.028490 0.761170 0.250000 1.491162
V2    V     V_3+5 0.971510 0.238830 0.750000 1.491162
V3    V     V_3+5 0.528490 0.738830 0.250000 1.491163
V4    V     V_3+5 0.471510 0.261170 0.750000 1.491163
C9    C     C_2   0.825603 0.558706 0.428670 -0.306825
C10   C     C_2   0.174397 0.441293 0.571330 -0.306825
C11   C     C_2   0.174396 0.441293 0.928670 -0.306825
C12   C     C_2   0.825604 0.558706 0.071330 -0.306825
C13   C     C_2   0.325603 0.941293 0.071330 -0.306823
C14   C     C_2   0.674397 0.058707 0.928670 -0.306823
C15   C     C_2   0.674397 0.058707 0.571330 -0.306823
C16   C     C_2   0.325603 0.941293 0.428670 -0.306823
C17   C     C_2   0.987237 0.544483 0.475550 -0.067337
C18   C     C_2   0.012763 0.455517 0.524450 -0.067337
C19   C     C_2   0.012763 0.455517 0.975549 -0.067337
C20   C     C_2   0.987237 0.544483 0.024451 -0.067337
C21   C     C_2   0.487236 0.955517 0.024450 -0.067337
C22   C     C_2   0.512764 0.044483 0.975550 -0.067337
C23   C     C_2   0.512764 0.044483 0.524450 -0.067338
C24   C     C_2   0.487236 0.955517 0.475550 -0.067338
H1    H     H_    0.295316 0.489525 0.569023 0.093720
H2    H     H_    0.704684 0.510475 0.430977 0.093720
H3    H     H_    0.704684 0.510475 0.069023 0.093721
H4    H     H_    0.295316 0.489525 0.930977 0.093721
H5    H     H_    0.795315 0.010475 0.930976 0.093719
H6    H     H_    0.204685 0.989525 0.069024 0.093719
H7    H     H_    0.204685 0.989525 0.430976 0.093719
H8    H     H_    0.795315 0.010475 0.569024 0.093719
C25   C     C_2   0.859856 0.381898 0.519463 0.476660
H9    H     H_    0.707988 0.400135 0.525821 0.035056
O21   O     O_2   0.903367 0.300224 0.507048 -0.516060
C26   C     C_2   0.140144 0.618102 0.480537 0.476660
H10   H     H_    0.292012 0.599864 0.474179 0.035056
O22   O     O_2   0.096633 0.699775 0.492952 -0.516060
C27   C     C_2   0.140145 0.618101 0.019463 0.476660
H11   H     H_    0.292013 0.599864 0.025821 0.035056
O23   O     O_2   0.096635 0.699775 0.007048 -0.516060
C28   C     C_2   0.859855 0.381899 0.980537 0.476660
H12   H     H_    0.707987 0.400136 0.974179 0.035056
O24   O     O_2   0.903365 0.300225 0.992952 -0.516060
C29   C     C_2   0.359860 0.118103 0.980540 0.476657
H13   H     H_    0.207990 0.099867 0.974183 0.035057
O25   O     O_2   0.403374 0.199777 0.992953 -0.516060
C30   C     C_2   0.640140 0.881897 0.019460 0.476657
H14   H     H_    0.792010 0.900133 0.025816 0.035057
O26   O     O_2   0.596626 0.800223 0.007047 -0.516060
C31   C     C_2   0.640141 0.881897 0.480539 0.476658
H15   H     H_    0.792010 0.900133 0.474183 0.035057
O27   O     O_2   0.596627 0.800223 0.492953 -0.516060
C32   C     C_2   0.359859 0.118103 0.519461 0.476658
H16   H     H_    0.207990 0.099867 0.525817 0.035057
O28   O     O_2   0.403373 0.199777 0.507047 -0.516060

loop_
_geom_bond_atom_site_label_1
_geom_bond_atom_site_label_2
_ccdc_geom_bond_type
O17   V3    S    
C28   O24   D    
C27   O23   D    
O18   V4    S    
O12   V1    S    
O19   V1    S    
C17   C18   S    
C10   C18   D    
C31   H15   S    
O15   V4    S    
C5    C12   S    
C21   C22   S    
O16   V3    S    
C6    C11   S    
C14   H5    S    
O11   C3    A    
O8    V1    S    
O2    V4    S    
C32   O28   D    
C25   O21   D    
O1    V3    S    
O3    C2    A    
C26   O22   D    
C29   O25   D    
C2    C15   S    
C22   C29   S    
C15   H8    S    
O11   V2    S    
C10   H1    S    
C11   C19   D    
O9    V1    S    
C7    C10   S    
O15   C7    A    
C28   H12   S    
O16   C8    A    
O7    V2    S    
C21   C30   S    
C24   C31   S    
C29   H13   S    
C18   C25   S    
O5    V1    S    
C20   C27   S    
O17   V1    S    
O19   V3    S    
O20   V4    S    
C30   O26   D    
C32   H16   S    
C9    H2    S    
C26   H10   S    
C1    C16   S    
C19   C20   S    
C3    C14   S    
O10   V2    S    
C23   C24   S    
C16   H7    S    
O12   C4    A    
O8    C5    A    
O13   C5    A    
C31   O27   D    
C12   H3    S    
C13   H6    S    
O9    C1    A    
O6    V2    S    
O18   V2    S    
C12   C20   D    
O4    C1    A    
C13   C21   D    
C15   C23   D    
C16   C24   D    
O1    C4    A    
O2    C3    A    
O13   V3    S    
C17   C26   S    
O14   V4    S    
C30   H14   S    
O7    C6    A    
C8    C9    S    
C9    C17   D    
O14   C6    A    
O20   V2    S    
C4    C13   S    
C25   H9    S    
O5    C8    A    
O10   C2    A    
C19   C28   S    
O6    C7    A    
O3    V4    S    
C14   C22   D    
O4    V3    S    
C27   H11   S    
C11   H4    S    
C23   C32   S    
