data_mof_unit_18002.cif
_audit_creation_date              2012-12-11T14:49:50-0500
_audit_creation_method            fapswitch 2.2
_symmetry_space_group_name_H-M    P1
_symmetry_Int_Tables_number       1
_space_group_crystal_system       triclinic
_cell_length_a                    16.911187
_cell_length_b                    16.744601
_cell_length_c                    19.46348
_cell_angle_alpha                 117.805445
_cell_angle_beta                  62.359242
_cell_angle_gamma                 100.899661
_cell_volume                      4316.11471317

loop_
_atom_site_label
_atom_site_type_symbol
_atom_type_description
_atom_site_fract_x
_atom_site_fract_y
_atom_site_fract_z
_atom_type_partial_charge
C1    C     C_R   0.056320 0.753837 0.995885 -0.143692
C2    C     C_R   0.251400 0.523819 0.829514 -0.131812
C3    C     C_R   0.184631 0.492841 0.088479 0.036503
C4    C     C_R   0.764057 0.418986 0.166365 0.027756
C5    C     C_R   0.989781 0.339929 0.758608 -0.148253
C6    C     C_R   0.257564 0.546459 0.067317 0.009859
C7    C     C_R   0.942452 0.262662 0.757404 0.084913
C8    C     C_R   0.260215 0.464243 0.747419 0.074679
C9    C     C_R   0.009810 0.223507 0.019257 0.060968
C10   C     C_R   0.856522 0.129344 0.702792 -0.262615
C11   C     C_R   0.907319 0.203730 0.694244 0.115727
C12   C     C_R   0.770139 0.436695 0.241453 0.028682
C13   C     C_R   0.930006 0.217786 0.621560 -0.262650
C14   C     C_R   0.913771 0.152091 0.552682 0.143402
C15   C     C_R   0.872199 0.072447 0.557606 0.027213
C16   C     C_R   0.808924 0.562881 0.959984 -0.124358
C17   C     C_R   0.839488 0.063036 0.634489 0.143751
C18   C     C_R   0.946228 0.160942 0.476004 -0.208176
C19   C     C_R   0.946393 0.087393 0.401782 -0.203999
C20   C     C_R   0.914031 0.004753 0.403992 0.141974
C21   C     C_R   0.872054 0.998660 0.483098 0.026511
C22   C     C_R   0.838961 0.915908 0.485927 0.141013
C23   C     C_R   0.727078 0.553173 0.019414 0.049926
C24   C     C_R   0.797494 0.910286 0.564742 -0.205913
C25   C     C_R   0.797938 0.983647 0.638840 -0.209289
C26   C     C_R   0.932259 0.926143 0.327658 -0.257427
C27   C     C_R   0.911987 0.841926 0.329985 0.114347
C28   C     C_R   0.950945 0.673113 0.247912 -0.150880
C29   C     C_R   0.857247 0.838140 0.409026 -0.256769
C30   C     C_R   0.349669 0.360422 0.592014 -0.262348
C31   C     C_R   0.345999 0.425354 0.672237 0.115501
C32   C     C_R   0.425712 0.460371 0.679317 -0.256498
C33   C     C_R   0.505801 0.443366 0.606364 0.140209
C34   C     C_R   0.958035 0.759275 0.252835 0.083448
C35   C     C_R   0.507830 0.385723 0.524965 0.027134
C36   C     C_R   0.430863 0.339877 0.517855 0.142593
C37   C     C_R   0.581646 0.490448 0.613360 -0.204442
C38   C     C_R   0.655989 0.488509 0.539859 -0.210917
C39   C     C_R   0.655595 0.437511 0.459022 0.141972
C40   C     C_R   0.738729 0.488055 0.039535 -0.125050
C41   C     C_R   0.584160 0.381037 0.450810 0.029996
C42   C     C_R   0.585689 0.326601 0.369057 0.132666
C43   C     C_R   0.512864 0.272750 0.361935 -0.200816
C44   C     C_R   0.435146 0.280494 0.436109 -0.208897
C45   C     C_R   0.248199 0.572928 0.014135 -0.164197
C46   C     C_R   0.720265 0.449806 0.388012 -0.257294
C47   C     C_R   0.716265 0.404006 0.308157 0.114905
C48   C     C_R   0.656011 0.333821 0.297048 -0.264417
C49   C     C_R   0.643326 0.597440 0.048589 0.130498
C50   C     C_R   0.327537 0.579788 0.098667 0.131997
C51   C     C_R   0.403776 0.578167 0.177354 -0.228760
C52   C     C_R   0.019943 0.752485 0.171940 -0.125340
C53   C     C_R   0.325837 0.569173 0.166976 -0.180486
C54   C     C_R   0.402351 0.617931 0.053590 -0.272106
C55   C     C_R   0.479555 0.628168 0.064139 0.186614
C56   C     C_R   0.922860 0.260605 0.834116 -0.137432
C57   C     C_R   0.482518 0.601079 0.121488 0.190972
C58   C     C_R   0.565108 0.587839 0.114814 -0.279040
C59   C     C_R   0.638666 0.638177 0.001615 -0.158214
C60   C     C_R   0.556773 0.653996 0.009808 -0.230293
C61   C     C_R   0.178385 0.076281 0.814291 0.111716
C62   C     C_R   0.034919 0.839370 0.924663 0.053828
C63   C     C_R   0.989607 0.934848 0.884138 -0.285946
C64   C     C_R   0.845325 0.486664 0.239149 -0.166974
C65   C     C_R   0.969561 0.868855 0.914434 0.069564
C66   C     C_R   0.118718 0.879463 0.906723 -0.300231
C67   C     C_R   0.174333 0.452761 0.751041 -0.134223
C68   C     C_R   0.138594 0.945803 0.876815 0.192044
C69   C     C_R   0.073841 0.972914 0.864434 0.166340
C70   C     C_R   0.094600 0.037799 0.832546 -0.253306
C71   C     C_R   0.242111 0.050206 0.827263 -0.166374
C72   C     C_R   0.222620 0.985015 0.858169 -0.221984
C73   C     C_R   0.977968 0.685014 0.920201 -0.129535
C74   C     C_R   0.018059 0.765654 0.951519 0.076064
C75   C     C_R   0.158693 0.456787 0.151650 0.083154
C76   C     C_R   0.212389 0.389017 0.134418 -0.184857
C77   C     C_R   0.187618 0.353608 0.193723 -0.120810
C78   C     C_R   0.038867 0.307515 0.061868 -0.124666
C79   C     C_R   0.109144 0.385261 0.270185 -0.084961
C80   C     C_R   0.055507 0.452624 0.287624 -0.125191
C81   C     C_R   0.080217 0.488458 0.228655 -0.164951
C82   C     C_R   0.697512 0.362861 0.136634 0.079562
C83   C     C_R   0.605887 0.386125 0.188708 -0.194513
C84   C     C_R   0.542629 0.336077 0.159368 -0.116993
C85   C     C_R   0.570237 0.263214 0.077645 -0.081368
C86   C     C_R   0.661135 0.240495 0.025098 -0.118863
C87   C     C_R   0.724514 0.290343 0.054349 -0.145437
C88   C     C_1   0.880372 0.834870 0.937219 0.020563
C89   C     C_R   0.963082 0.239652 0.983998 -0.134028
H1    H     H_    0.104900 0.796770 0.016638 0.089872
H2    H     H_    0.976909 0.222533 0.471959 0.126653
H3    H     H_    0.977448 0.093310 0.341626 0.129869
H4    H     H_    0.970030 0.930573 0.267049 0.119550
H5    H     H_    0.836353 0.774182 0.411853 0.118043
H6    H     H_    0.770574 0.847344 0.567873 0.128541
H7    H     H_    0.771095 0.976221 0.697995 0.127320
H8    H     H_    0.289188 0.330129 0.586290 0.121650
H9    H     H_    0.425707 0.508148 0.740329 0.115414
H10   H     H_    0.580978 0.534057 0.675861 0.127499
H11   H     H_    0.711445 0.530776 0.546657 0.126643
H12   H     H_    0.876776 0.217123 0.860482 0.079484
H13   H     H_    0.768504 0.501261 0.397867 0.115242
H14   H     H_    0.825155 0.606811 0.929270 0.096859
H15   H     H_    0.659041 0.289064 0.234210 0.149927
H16   H     H_    0.513433 0.230027 0.299352 0.136573
H17   H     H_    0.377202 0.243479 0.429488 0.131293
H18   H     H_    0.567997 0.561196 0.154759 0.123790
H19   H     H_    0.697520 0.650027 0.952417 0.123059
H20   H     H_    0.403758 0.561627 0.224966 0.131058
H21   H     H_    0.554719 0.677713 0.967455 0.126433
H22   H     H_    0.266536 0.551006 0.210689 0.150313
H23   H     H_    0.156149 0.410157 0.698886 0.097267
H24   H     H_    0.405511 0.630648 0.002843 0.115013
H25   H     H_    0.046217 0.059013 0.821963 0.123284
H26   H     H_    0.908811 0.652091 0.297924 0.096049
H27   H     H_    0.306811 0.080434 0.812987 0.124744
H28   H     H_    0.939281 0.956758 0.876138 0.133331
H29   H     H_    0.273083 0.965234 0.867367 0.125598
H30   H     H_    0.169568 0.857484 0.913918 0.129523
H31   H     H_    0.687154 0.464670 0.083327 0.127098
H32   H     H_    0.042304 0.806303 0.152386 0.093324
H33   H     H_    0.878962 0.499850 0.278723 0.097735
H34   H     H_    0.070556 0.319526 0.102173 0.136233
H35   H     H_    0.957150 0.664177 0.869638 0.095387
H36   H     H_    0.281978 0.626896 0.996886 0.098140
H37   H     H_    0.273085 0.363724 0.075165 0.125440
H38   H     H_    0.229109 0.301475 0.180296 0.109216
H39   H     H_    0.089931 0.357637 0.315935 0.099658
H40   H     H_    0.994814 0.477165 0.346887 0.105986
H41   H     H_    0.038655 0.541050 0.243372 0.115741
H42   H     H_    0.583734 0.443346 0.251623 0.127640
H43   H     H_    0.472278 0.354148 0.199760 0.110605
H44   H     H_    0.521244 0.224695 0.054850 0.098953
H45   H     H_    0.927401 0.190182 0.949603 0.088197
H46   H     H_    0.682565 0.184550 0.961489 0.102312
H47   H     H_    0.794291 0.272799 0.012840 0.107321
H48   H     H_    0.302470 0.547136 0.852139 0.095322
H49   H     H_    0.004799 0.371041 0.716433 0.088180
H50   H     H_    0.835785 0.118852 0.759467 0.114444
H51   H     H_    0.966467 0.276074 0.614775 0.116193
N1    N     N_R   0.036080 0.671900 0.995420 -0.037940
N2    N     N_R   0.867430 0.509300 0.948100 -0.040083
N3    N     N_R   0.003360 0.617250 0.167070 -0.046224
N4    N     N_R   0.825450 0.461270 0.995400 -0.041618
N5    N     N_R   0.045340 0.665280 0.119770 -0.039656
N6    N     N_R   0.883740 0.497640 0.167070 -0.044436
N7    N     N_R   0.987050 0.628910 0.948110 -0.040457
N8    N     N_R   0.174550 0.538730 0.004600 -0.045324
N9    N     N_1   0.808836 0.807799 0.955551 -0.100869
N10   N     N_R   0.954660 0.334720 0.880230 -0.040213
N11   N     N_R   0.116260 0.502360 0.832930 -0.040794
N12   N     N_R   0.012950 0.371090 0.051890 -0.041391
N13   N     N_R   0.963920 0.328100 0.004580 -0.044999
N14   N     N_R   0.165290 0.545350 0.880240 -0.040372
N15   N     N_R   0.132570 0.490700 0.051900 -0.057025
N16   N     N_R   0.996640 0.382750 0.832930 -0.038575
N17   N     N_R   0.834710 0.454650 0.119760 -0.058437
Ni1   Ni    Ni4+2 0.104370 0.604370 0.000010 0.207257
Ni2   Ni    Ni4+2 0.895630 0.395630 0.999990 0.213451
Ni3   Ni    Ni4+2 0.991920 0.505780 0.891500 0.211902
Ni4   Ni    Ni4+2 0.008080 0.494220 0.108500 0.211813

loop_
_geom_bond_atom_site_label_1
_geom_bond_atom_site_label_2
_ccdc_geom_bond_type
C61   C70   A    
C66   C68   A    
C79   H39   S    
C63   C65   A    
C1    H1    S    
C6    C45   A    
C27   C29   A    
C45   N8    A    
C76   H37   S    
C41   C42   A    
C14   C18   A    
C35   C36   A    
C75   C76   A    
C3    C6    A    
C57   C58   A    
C78   N12   A    
C5    H49   S    
C39   C41   A    
N6    N17   A    
C85   C86   A    
C70   H25   S    
C7    C11   S    
C46   H13   S    
C30   H8    S    
C26   C27   A    
C50   C54   A    
C73   N7    A    
C83   C84   A    
C1    C74   A    
C22   C29   A    
C56   H12   S    
N14   Ni1   S    
C30   C31   A    
C12   C64   A    
C64   H33   S    
C23   C49   S    
C10   C17   A    
C23   C40   A    
C48   H15   S    
C54   H24   S    
C15   C17   A    
C58   H18   S    
C43   H16   S    
N11   N14   A    
C19   H3    S    
C46   C47   A    
C63   C69   A    
C45   H36   S    
C68   C69   A    
C51   C57   A    
N8    N15   A    
C4    C12   A    
C3    C75   S    
N12   Ni4   S    
C77   H38   S    
C55   C60   A    
C53   H22   S    
C26   H4    S    
C28   C34   A    
C59   C60   A    
N17   Ni2   S    
N10   N16   A    
C13   C14   A    
C2    H48   S    
C7    C56   A    
C12   C47   S    
C35   C41   A    
N7    Ni3   S    
C76   C77   A    
C77   C79   A    
C27   C34   S    
N6    Ni4   S    
C2    C8    A    
C50   C53   A    
N10   Ni2   S    
C62   C66   A    
C67   N11   A    
C13   H51   S    
N16   Ni3   S    
C60   H21   S    
C24   C25   A    
C38   H11   S    
C24   H6    S    
C9    C89   A    
C5    C7    A    
C52   N5    A    
C86   C87   A    
C18   C19   A    
N8    Ni1   S    
C84   H43   S    
C88   N9    T    
N15   Ni4   S    
C49   C58   A    
C51   C53   A    
N13   Ni2   S    
C16   N2    A    
C43   C44   A    
C83   H42   S    
C37   C38   A    
C28   H26   S    
C52   H32   S    
C67   H23   S    
C16   H14   S    
C89   N13   A    
C47   C48   A    
C68   C72   A    
C73   H35   S    
C3    N15   A    
C28   N3    A    
C42   C48   A    
C84   C85   A    
N4    Ni2   S    
C78   H34   S    
C25   H7    S    
C39   C46   A    
C40   H31   S    
C16   C23   A    
C66   H30   S    
C40   N4    A    
C29   H5    S    
C22   C24   A    
C36   C44   A    
C42   C43   A    
C18   H2    S    
C56   N10   A    
C73   C74   A    
C37   H10   S    
C65   C88   S    
N3    N5    A    
C54   C55   A    
C89   H45   S    
C6    C50   S    
C62   C65   A    
C64   N6    A    
C8    C31   S    
C87   H47   S    
C31   C32   A    
C75   C81   A    
N2    Ni3   S    
C80   C81   A    
C44   H17   S    
C5    N16   A    
C34   C52   A    
C59   H19   S    
C49   C59   A    
C30   C36   A    
C17   C25   A    
C32   C33   A    
C19   C20   A    
C55   C57   A    
C51   H20   S    
C71   C72   A    
N11   Ni3   S    
N5    Ni1   S    
C11   C13   A    
C61   C71   A    
C81   H41   S    
C38   C39   A    
C20   C26   A    
C63   H28   S    
C33   C35   A    
C32   H9    S    
C71   H27   S    
C4    N17   A    
N2    N4    A    
C9    C78   A    
C69   C70   A    
C80   H40   S    
C33   C37   A    
C1    N1    A    
C10   C11   A    
N1    N7    A    
C79   C80   A    
N1    Ni1   S    
C15   C21   A    
C4    C82   S    
C20   C21   A    
C8    C67   A    
C2    N14   A    
C82   C83   A    
C10   H50   S    
C72   H29   S    
C14   C15   A    
C62   C74   S    
N12   N13   A    
C21   C22   A    
C86   H46   S    
N3    Ni4   S    
C82   C87   A    
C85   H44   S    
