data_mof_unit_50373.cif
_audit_creation_date              2012-12-10T19:48:42-0500
_audit_creation_method            fapswitch 2.2
_symmetry_space_group_name_H-M    P1
_symmetry_Int_Tables_number       1
_space_group_crystal_system       triclinic
_cell_length_a                    13.08255
_cell_length_b                    14.181212
_cell_length_c                    15.007827
_cell_angle_alpha                 89.755875
_cell_angle_beta                  90.150578
_cell_angle_gamma                 70.428333
_cell_volume                      2623.42954512

loop_
_atom_site_label
_atom_site_type_symbol
_atom_type_description
_atom_site_fract_x
_atom_site_fract_y
_atom_site_fract_z
_atom_type_partial_charge
C1    C     C_R   0.500762 0.499652 0.672249 0.864131
C2    C     C_R   0.818649 0.413572 0.464530 -0.172879
C3    C     C_R   0.550079 0.405575 0.905246 -0.193901
C4    C     C_R   0.703342 0.445709 0.489427 0.878732
C5    C     C_R   0.543261 0.406756 0.813432 -0.189440
C6    C     C_R   0.505365 0.498330 0.768036 -0.030151
C7    C     C_R   0.474071 0.588796 0.814517 -0.218868
C8    C     C_R   0.478967 0.587592 0.906422 -0.180607
C9    C     C_R   0.516806 0.495962 0.951921 0.122970
C10   C     C_R   0.551635 0.563419 0.095417 -0.183093
C11   C     C_R   0.545477 0.565816 0.187290 -0.198365
C12   C     C_R   0.980965 0.459053 0.444131 0.073675
C13   C     C_R   0.506122 0.498394 0.232088 -0.021050
C14   C     C_R   0.473759 0.428150 0.185142 -0.209028
C15   C     C_R   0.477864 0.427070 0.093314 -0.179563
C16   C     C_R   0.500946 0.499861 0.327774 0.832001
C17   C     C_R   0.516739 0.494741 0.048283 0.117821
C18   C     C_R   0.580662 0.870575 0.541671 -0.404822
C19   C     C_R   0.578173 0.771644 0.545754 0.638466
C20   C     C_R   0.420902 0.819144 0.454578 -0.100024
C21   C     C_R   0.416701 0.919519 0.454454 -0.287107
C22   C     C_R   0.497663 0.947295 0.498265 0.118153
C23   C     C_R   0.867369 0.484965 0.438329 0.077014
C24   C     C_R   0.445179 0.123555 0.431397 -0.299829
C25   C     C_R   0.446596 0.222201 0.433973 -0.064369
C26   C     C_R   0.554319 0.186900 0.564795 0.621259
C27   C     C_R   0.549799 0.088756 0.566995 -0.399492
C28   C     C_R   0.295066 0.555472 0.498459 0.892895
C29   C     C_R   0.497078 0.054320 0.498757 0.118697
C30   C     C_R   0.995579 0.711553 0.481531 -0.230058
C31   C     C_R   0.177430 0.589461 0.483713 -0.239693
C32   C     C_R   0.883128 0.312945 0.475103 -0.230941
C33   C     C_R   0.996045 0.284315 0.470832 0.210972
C34   C     C_R   0.025070 0.537707 0.444762 -0.027478
C35   C     C_R   0.044460 0.357872 0.460192 -0.199478
C36   C     C_3   0.137506 0.762412 0.559326 -0.364526
C37   C     C_3   0.136010 0.851143 0.500833 -0.872188
C38   C     C_3   0.679495 0.719330 0.675806 0.094346
C39   C     C_3   0.796118 0.717661 0.684656 -0.865943
C40   C     C_3   0.720464 0.164361 0.627203 0.077775
C41   C     C_3   0.782534 0.217723 0.681746 -0.828361
C42   C     C_3   0.198649 0.467978 0.303259 0.117923
C43   C     C_3   0.210437 0.376550 0.246172 -0.864578
C44   C     C_3   0.064922 0.176063 0.483730 -0.422753
C45   C     C_R   0.955543 0.637771 0.450833 0.045288
C46   C     C_3   0.060934 0.115251 0.401003 -0.877182
C47   C     C_R   0.847298 0.661201 0.426633 -0.168621
C48   C     C_R   0.806060 0.584183 0.412626 -0.139377
C49   C     C_R   0.136080 0.520645 0.442697 0.375468
C50   C     C_R   0.104952 0.685998 0.506769 0.113683
H1    H     H_    0.568449 0.336386 0.778132 0.201677
H2    H     H_    0.794532 0.738294 0.420022 0.143006
H3    H     H_    0.350022 0.974408 0.420290 0.149956
H4    H     H_    0.404539 0.102145 0.376213 0.148817
H5    H     H_    0.405837 0.274671 0.382411 0.177693
H6    H     H_    0.586447 0.040877 0.622816 0.143785
H7    H     H_    0.940101 0.786846 0.492373 0.150330
H8    H     H_    0.846180 0.257087 0.490468 0.162337
H9    H     H_    0.131235 0.334885 0.468704 0.196905
H10   H     H_    0.724041 0.604450 0.387409 0.162555
H11   H     H_    0.580853 0.334323 0.939782 0.132201
H12   H     H_    0.444207 0.660144 0.780012 0.146747
H13   H     H_    0.179690 0.824789 0.437604 0.258240
H14   H     H_    0.051172 0.897844 0.484771 0.248401
H15   H     H_    0.175421 0.898250 0.536648 0.249244
H16   H     H_    0.079306 0.790155 0.614934 0.189427
H17   H     H_    0.217711 0.730002 0.591865 0.217008
H18   H     H_    0.669183 0.660414 0.720333 0.174133
H19   H     H_    0.622685 0.791963 0.700691 0.103531
H20   H     H_    0.809714 0.775864 0.641251 0.239379
H21   H     H_    0.813046 0.732264 0.754837 0.210492
H22   H     H_    0.853095 0.643266 0.664798 0.272335
H23   H     H_    0.451185 0.657929 0.941915 0.128300
H24   H     H_    0.751714 0.157161 0.557607 0.123877
H25   H     H_    0.737009 0.088403 0.656258 0.130374
H26   H     H_    0.759201 0.219597 0.752965 0.243256
H27   H     H_    0.871080 0.177440 0.675985 0.200485
H28   H     H_    0.764330 0.295603 0.657108 0.264105
H29   H     H_    0.266432 0.496217 0.288581 0.144785
H30   H     H_    0.121205 0.527006 0.282833 0.128409
H31   H     H_    0.142495 0.348158 0.259790 0.261098
H32   H     H_    0.208747 0.397068 0.174558 0.212531
H33   H     H_    0.288250 0.316359 0.260771 0.238618
H34   H     H_    0.583384 0.615036 0.061205 0.127931
H35   H     H_    0.977569 0.113460 0.390235 0.256647
H36   H     H_    0.086533 0.148275 0.341395 0.264330
H37   H     H_    0.117152 0.037410 0.409587 0.249297
H38   H     H_    0.150952 0.168820 0.496798 0.207439
H39   H     H_    0.035901 0.144409 0.542493 0.200792
H40   H     H_    0.572568 0.619312 0.223199 0.147464
H41   H     H_    0.443770 0.375308 0.219242 0.152912
H42   H     H_    0.448936 0.374715 0.057526 0.131604
H43   H     H_    0.648545 0.886206 0.571276 0.148116
H44   H     H_    0.360700 0.798207 0.418088 0.152886
N1    N     N_R   0.500000 0.747530 0.500020 -0.129470
N2    N     N_R   0.499940 0.252470 0.500020 -0.123677
O1    O     O_R   0.499990 0.420530 0.630930 -0.568457
O2    O     O_3   0.608393 0.219686 0.630554 -0.604571
O3    O     O_3   0.203082 0.440737 0.394453 -0.617355
O4    O     O_R   0.499990 0.579480 0.630940 -0.615348
O5    O     O_R   0.653620 0.381060 0.499970 -0.605932
O6    O     O_R   0.653620 0.540010 0.499980 -0.563600
O7    O     O_R   0.500010 0.420520 0.369060 -0.627578
O8    O     O_R   0.500010 0.579470 0.369070 -0.639098
O9    O     O_R   0.346380 0.459990 0.500020 -0.560492
O10   O     O_R   0.346380 0.618940 0.500030 -0.627238
O11   O     O_3   0.660328 0.695531 0.587198 -0.584980
Zn1   Zn    Zn3+2 0.500000 0.393860 0.499990 0.991743
Zn2   Zn    Zn3+2 0.500000 0.606140 0.500010 0.955091

loop_
_geom_bond_atom_site_label_1
_geom_bond_atom_site_label_2
_ccdc_geom_bond_type
C21   H3    S    
C42   H30   S    
C22   C29   S    
C27   C29   A    
C43   H33   S    
C30   C45   A    
C32   H8    S    
C36   H17   S    
C19   N1    A    
C7    C8    A    
C12   C23   A    
C26   C27   A    
C2    C32   A    
C36   C37   S    
C40   O2    S    
O8    Zn2   S    
C36   H16   S    
C10   C17   A    
C24   H4    S    
C30   H7    S    
C35   H9    S    
C18   C19   A    
C38   O11   S    
C24   C29   A    
C15   H42   S    
O1    Zn1   S    
C16   O8    A    
C28   O10   A    
C8    C9    A    
C37   H15   S    
C39   H22   S    
O7    Zn1   S    
C46   H35   S    
O5    Zn1   S    
C3    H11   S    
N2    Zn1   S    
C38   H19   S    
C42   H29   S    
C13   C14   A    
C31   C49   A    
C1    O4    A    
C37   H13   S    
C44   C46   S    
C48   H10   S    
C45   C47   A    
C26   N2    A    
C38   C39   S    
O9    Zn1   S    
C1    C6    S    
C24   C25   A    
N1    Zn2   S    
C1    O1    A    
C41   H28   S    
C27   H6    S    
C4    O6    A    
C2    C4    S    
C7    H12   S    
C3    C9    A    
C49   O3    S    
C16   O7    A    
C47   C48   A    
C28   O9    A    
C4    O5    A    
C34   C45   A    
C12   C35   A    
C47   H2    S    
C26   O2    S    
C9    C17   S    
C40   C41   S    
C20   N1    A    
C38   H18   S    
C43   H31   S    
C42   C43   S    
C31   C50   A    
C12   C34   A    
C37   H14   S    
C36   C50   S    
C46   H37   S    
C15   C17   A    
C20   H44   S    
C34   C49   A    
C23   C48   A    
C18   C22   A    
C33   C44   S    
C28   C31   S    
C25   H5    S    
C3    C5    A    
C6    C7    A    
C21   C22   A    
C40   H25   S    
C32   C33   A    
C42   O3    S    
C41   H26   S    
C41   H27   S    
C11   C13   A    
C11   H40   S    
C5    C6    A    
C10   H34   S    
C8    H23   S    
C33   C35   A    
C39   H20   S    
C40   H24   S    
C30   C50   A    
C14   H41   S    
C10   C11   A    
O4    Zn2   S    
C20   C21   A    
C25   N2    A    
C13   C16   S    
C2    C23   A    
C18   H43   S    
C39   H21   S    
C14   C15   A    
C5    H1    S    
O6    Zn2   S    
C44   H38   S    
C44   H39   S    
C43   H32   S    
C46   H36   S    
O10   Zn2   S    
C19   O11   S    
