data_mof_unit_15567.cif
_audit_creation_date              2013-03-05T15:42:50-0500
_audit_creation_method            fapswitch 2.2
_symmetry_space_group_name_H-M    P1
_symmetry_Int_Tables_number       1
_space_group_crystal_system       triclinic
_cell_length_a                    14.87699
_cell_length_b                    15.355003
_cell_length_c                    10.155749
_cell_angle_alpha                 87.013473
_cell_angle_beta                  89.980245
_cell_angle_gamma                 90.114399
_cell_volume                      2316.78521089

loop_
_atom_site_label
_atom_site_type_symbol
_atom_site_description
_atom_site_fract_x
_atom_site_fract_y
_atom_site_fract_z
_atom_type_partial_charge
O1    O     O_R   0.409520 0.909540 0.613040 -0.616046
O2    O     O_R   0.409520 0.090460 0.613040 -0.595491
O3    O     O_R   0.909520 0.409540 0.613040 -0.616036
O4    O     O_R   0.909520 0.590460 0.613040 -0.595448
O5    O     O_R   0.409560 0.909540 0.386900 -0.674226
O6    O     O_R   0.409560 0.090460 0.386900 -0.630056
O7    O     O_R   0.909560 0.409540 0.386900 -0.674233
O8    O     O_R   0.909560 0.590460 0.386900 -0.630086
C1    C     C_R   0.387413 0.876161 0.502923 0.887839
C2    C     C_R   0.384166 0.120881 0.496774 0.876086
C3    C     C_R   0.887411 0.376163 0.502922 0.887860
C4    C     C_R   0.884168 0.620885 0.496775 0.876101
Zn1   Zn    Zn3+2 0.499970 1.000000 0.650990 0.920518
Zn2   Zn    Zn3+2 0.999970 0.500000 0.650990 0.920545
Zn3   Zn    Zn3+2 0.500030 0.000000 0.349010 0.979082
Zn4   Zn    Zn3+2 0.000030 0.500000 0.349010 0.979078
O9    O     O_R   0.590440 0.090460 0.613100 -0.641159
O10   O     O_R   0.590440 0.909540 0.613100 -0.651255
O11   O     O_R   0.090440 0.590460 0.613100 -0.641167
O12   O     O_R   0.090440 0.409540 0.613100 -0.651219
O13   O     O_R   0.590480 0.090460 0.386960 -0.613359
O14   O     O_R   0.590480 0.909540 0.386960 -0.574089
O15   O     O_R   0.090480 0.590460 0.386960 -0.613362
O16   O     O_R   0.090480 0.409540 0.386960 -0.574100
C5    C     C_R   0.614448 0.122565 0.497656 0.763489
C6    C     C_R   0.613585 0.876456 0.503367 0.751193
C7    C     C_R   0.114450 0.622563 0.497656 0.763474
C8    C     C_R   0.113591 0.376462 0.503368 0.751240
C9    C     C_2   0.694302 0.764700 0.399180 -0.263972
C10   C     C_2   0.745199 0.191123 0.411344 -0.283624
C11   C     C_2   0.194272 0.264668 0.399218 -0.263989
C12   C     C_2   0.245216 0.691104 0.411364 -0.283631
C13   C     C_2   0.662672 0.794620 0.511386 0.326758
C14   C     C_2   0.673710 0.197032 0.489697 0.352586
C15   C     C_2   0.162681 0.294632 0.511412 0.326777
C16   C     C_2   0.173720 0.697025 0.489697 0.352609
H1    H     H_    0.682361 0.796691 0.302924 0.188083
H2    H     H_    0.760437 0.132947 0.361119 0.125595
H3    H     H_    0.182306 0.296628 0.302948 0.188047
H4    H     H_    0.260452 0.632923 0.361154 0.125592
C17   C     C_2   0.257162 0.193553 0.407541 -0.103456
C18   C     C_2   0.309252 0.761246 0.402006 -0.120889
C19   C     C_2   0.757197 0.693590 0.407479 -0.103507
C20   C     C_2   0.809229 0.261267 0.401990 -0.120889
C21   C     C_2   0.330574 0.197527 0.483839 0.129799
C22   C     C_2   0.344416 0.792002 0.511788 0.119852
C23   C     C_2   0.830580 0.697535 0.483849 0.129855
C24   C     C_2   0.844409 0.292006 0.511778 0.119840
H5    H     H_    0.239577 0.134594 0.358393 0.119496
H6    H     H_    0.317411 0.794648 0.305772 0.131149
H7    H     H_    0.739637 0.634654 0.358250 0.119526
H8    H     H_    0.817373 0.294684 0.305761 0.131144
C25   C     C_2   0.573872 0.005415 0.924957 0.241508
C26   C     C_2   0.073872 0.505420 0.924957 0.241514
N1    N     N_2   0.501330 1.000000 0.852150 -0.038733
N2    N     N_2   0.001330 0.500000 0.852150 -0.038738
C27   C     C_2   0.573555 0.991625 0.076385 0.561213
C28   C     C_2   0.073556 0.491629 0.076385 0.561216
N3    N     N_2   0.501360 1.000000 0.147810 0.007943
N4    N     N_2   0.001360 0.500000 0.147810 0.007947
O17   O     O_3   0.666565 0.739992 0.626217 -0.594466
C29   C     C_3   0.689669 0.784439 0.739910 0.136051
H9    H     H_    0.627985 0.808596 0.787489 0.177165
H10   H     H_    0.737413 0.839338 0.718200 0.131768
C30   C     C_3   0.732973 0.720661 0.839587 -0.846758
H11   H     H_    0.793074 0.690161 0.796688 0.278089
H12   H     H_    0.753413 0.755339 0.928140 0.217425
H13   H     H_    0.683755 0.668810 0.869254 0.261207
O18   O     O_3   0.652403 0.277034 0.541794 -0.607964
C31   C     C_3   0.611538 0.267186 0.667166 0.110249
H14   H     H_    0.651371 0.222968 0.735018 0.152883
H15   H     H_    0.541972 0.241878 0.658873 0.167355
C32   C     C_3   0.606513 0.355827 0.726909 -0.840703
H16   H     H_    0.565584 0.401200 0.662869 0.265368
H17   H     H_    0.574813 0.348967 0.825928 0.210650
H18   H     H_    0.675110 0.383413 0.736974 0.256968
O19   O     O_3   0.166597 0.240050 0.626285 -0.594456
C33   C     C_3   0.189829 0.284531 0.739880 0.135959
H19   H     H_    0.128208 0.308742 0.787547 0.177250
H20   H     H_    0.237573 0.339404 0.718034 0.131696
C34   C     C_3   0.233185 0.220767 0.839524 -0.846702
H21   H     H_    0.293165 0.190144 0.796492 0.278171
H22   H     H_    0.253818 0.255482 0.927941 0.217439
H23   H     H_    0.183929 0.169009 0.869432 0.261146
O20   O     O_3   0.152410 0.777032 0.541771 -0.607967
C35   C     C_3   0.111551 0.767196 0.667147 0.110208
H24   H     H_    0.151387 0.722988 0.735006 0.152877
H25   H     H_    0.041986 0.741880 0.658871 0.167353
C36   C     C_3   0.106521 0.855844 0.726864 -0.840683
H26   H     H_    0.065585 0.901205 0.662816 0.265362
H27   H     H_    0.074826 0.848994 0.825886 0.210656
H28   H     H_    0.175116 0.883438 0.736912 0.256970
C37   C     C_3   0.370616 0.280763 0.532729 -0.912062
H29   H     H_    0.438169 0.290922 0.487971 0.236284
H30   H     H_    0.331334 0.340082 0.505024 0.235204
H31   H     H_    0.378484 0.275302 0.641297 0.239698
C38   C     C_3   0.347162 0.740349 0.643720 -0.864655
H32   H     H_    0.417995 0.734853 0.677634 0.228590
H33   H     H_    0.308386 0.774894 0.718290 0.241566
H34   H     H_    0.321131 0.672834 0.639432 0.234770
C39   C     C_3   0.870587 0.780751 0.532884 -0.911939
H35   H     H_    0.938156 0.790947 0.488188 0.236230
H36   H     H_    0.831307 0.840078 0.505218 0.235182
H37   H     H_    0.878411 0.775232 0.641462 0.239710
C40   C     C_3   0.847168 0.240339 0.643699 -0.864631
H38   H     H_    0.918005 0.234838 0.677597 0.228613
H39   H     H_    0.808398 0.274876 0.718288 0.241565
H40   H     H_    0.821136 0.172824 0.639397 0.234767
C41   C     C_3   0.664683 0.012336 0.859414 -0.948008
H41   H     H_    0.693594 0.078223 0.870468 0.209258
H42   H     H_    0.710006 0.960941 0.901728 0.227535
H43   H     H_    0.663917 0.998626 0.755396 0.297056
C42   C     C_3   0.164683 0.512341 0.859414 -0.948061
H44   H     H_    0.193595 0.578228 0.870469 0.209272
H45   H     H_    0.210006 0.460945 0.901728 0.227521
H46   H     H_    0.163917 0.498630 0.755396 0.297044
C43   C     C_3   0.448346 0.921573 0.883982 -0.539601
H47   H     H_    0.472188 0.868656 0.822754 0.207294
H48   H     H_    0.455797 0.893011 0.985466 0.133642
H49   H     H_    0.376489 0.934293 0.862001 0.208355
C44   C     C_3   0.948361 0.421563 0.883974 -0.539577
H50   H     H_    0.972222 0.368650 0.822752 0.207337
H51   H     H_    0.955805 0.393005 0.985462 0.133651
H52   H     H_    0.876504 0.434267 0.861978 0.208357
O21   O     O_3   0.648012 0.952469 0.136792 -0.633382
C45   C     C_3   0.714979 0.015182 0.160804 0.108823
H53   H     H_    0.686186 0.076176 0.196272 0.149570
H54   H     H_    0.754107 0.033113 0.071061 0.135147
C46   C     C_3   0.782365 0.976113 0.260247 -0.830645
H55   H     H_    0.804735 0.911076 0.230247 0.262871
H56   H     H_    0.842353 0.019015 0.264686 0.201169
H57   H     H_    0.751996 0.969392 0.359883 0.240295
O22   O     O_3   0.148010 0.452470 0.136790 -0.633360
C47   C     C_3   0.214982 0.515178 0.160804 0.108827
H58   H     H_    0.186196 0.576173 0.196273 0.149566
H59   H     H_    0.254113 0.533105 0.071062 0.135147
C48   C     C_3   0.282364 0.476101 0.260246 -0.830670
H60   H     H_    0.304719 0.411059 0.230252 0.262891
H61   H     H_    0.342359 0.518993 0.264678 0.201174
H62   H     H_    0.251996 0.469389 0.359882 0.240276
O23   O     O_3   0.433801 0.045166 0.087280 -0.571862
C49   C     C_3   0.351498 0.006705 0.129605 0.243632
H63   H     H_    0.337530 0.015722 0.233830 0.194097
H64   H     H_    0.349723 0.935511 0.115646 0.099973
C50   C     C_3   0.274594 0.049396 0.052612 -0.942637
H65   H     H_    0.285572 0.044743 0.945193 0.272835
H66   H     H_    0.210289 0.016454 0.080347 0.216698
H67   H     H_    0.269977 0.118978 0.076422 0.267263
O24   O     O_3   0.933793 0.545153 0.087279 -0.571869
C51   C     C_3   0.851498 0.506681 0.129612 0.243629
H68   H     H_    0.837526 0.515714 0.233832 0.194097
H69   H     H_    0.849740 0.435483 0.115678 0.099989
C52   C     C_3   0.774585 0.549343 0.052602 -0.942688
H70   H     H_    0.785576 0.544694 0.945186 0.272853
H71   H     H_    0.710290 0.516379 0.080324 0.216709
H72   H     H_    0.769940 0.618923 0.076411 0.267253

loop_
_geom_bond_atom_site_label_1
_geom_bond_atom_site_label_2
_geom_bond_distance
_ccdc_geom_bond_type
Zn2   N2    2.043037 S    
C37   H29   1.110237 S    
C23   C39   1.516053 S    
C32   H16   1.110797 S    
C40   H38   1.110778 S    
O10   C6    1.295378 A    
C21   C37   1.515980 S    
C34   H23   1.110500 S    
C47   C48   1.524714 S    
C50   H65   1.109016 S    
O20   C35   1.411609 S    
O7    C3    1.302205 A    
C40   H39   1.109274 S    
C45   H53   1.107708 S    
Zn1   O10   1.987899 S    
C12   C16   1.334093 D    
C46   H55   1.110779 S    
C41   H42   1.108644 S    
C27   O21   1.389065 S    
C33   H20   1.114313 S    
C27   N3    1.306143 D    
C28   N4    1.306142 D    
C26   C42   1.506975 S    
C9    C13   1.336438 D    
C10   H2    1.075988 S    
Zn4   N4    2.043426 S    
O2    Zn1   1.959754 S    
C44   H52   1.107797 S    
C29   H10   1.114386 S    
C38   H33   1.109252 S    
O6    Zn3   1.987898 S    
Zn3   O14   1.959758 S    
C8    C15   1.453214 S    
C30   H12   1.110949 S    
C51   C52   1.516674 S    
C31   H14   1.113607 S    
O15   C7    1.300498 A    
C52   H71   1.110593 S    
O11   C7    1.297670 A    
O4    C4    1.303154 A    
C5    C14   1.441394 S    
C42   H46   1.087913 S    
C20   H8    1.086483 S    
O8    Zn4   1.987898 S    
C1    C22   1.439362 S    
Zn4   O16   1.959758 S    
C9    C19   1.438542 S    
C32   H17   1.110491 S    
C49   C50   1.516674 S    
C10   C20   1.435860 S    
C3    C24   1.439352 S    
O18   C31   1.411615 S    
C2    C21   1.423273 S    
C4    C23   1.423302 S    
C17   H5    1.087848 S    
C34   H22   1.110887 S    
C38   H32   1.110763 S    
C25   N1    1.313369 D    
C28   O22   1.389062 S    
C48   H62   1.107820 S    
C26   N2    1.313372 D    
C44   H51   1.104555 S    
C10   C14   1.334112 D    
C39   H35   1.110265 S    
Zn2   O12   1.987899 S    
O1    C1    1.296455 A    
C41   H41   1.109626 S    
C43   H49   1.107805 S    
C25   C27   1.541413 S    
C35   H24   1.113594 S    
C47   H59   1.103703 S    
O12   C8    1.295344 A    
C45   C46   1.524734 S    
O19   C33   1.413606 S    
C15   O19   1.401850 S    
C34   H21   1.109573 S    
C52   H72   1.109923 S    
O5    C1    1.302217 A    
C29   H9    1.110370 S    
C48   H61   1.110491 S    
C6    C13   1.453268 S    
C24   C40   1.521667 S    
O8    C4    1.288732 A    
C30   H13   1.110558 S    
C31   C32   1.520756 S    
C26   C28   1.541416 S    
C40   H40   1.108934 S    
C36   H28   1.110937 S    
C14   O18   1.399504 S    
C44   H50   1.107403 S    
O3    Zn2   1.984259 S    
C18   H6    1.086457 S    
C13   O17   1.401885 S    
O7    Zn4   1.955868 S    
C22   C38   1.521648 S    
C37   H31   1.107668 S    
C18   C22   1.339415 D    
O21   C45   1.414256 S    
C16   O20   1.399485 S    
C32   H18   1.110932 S    
C51   H69   1.109910 S    
C41   H43   1.087911 S    
C36   H27   1.110487 S    
O2    C2    1.303158 A    
C38   H34   1.108930 S    
C50   H67   1.109932 S    
C42   H44   1.109626 S    
N1    C43   1.459963 S    
C25   C41   1.506975 S    
O13   C5    1.300500 A    
C45   H54   1.103711 S    
C11   C17   1.438542 S    
C29   C30   1.516085 S    
C33   H19   1.110296 S    
Zn3   N3    2.043426 S    
Zn2   O11   1.955867 S    
O16   C8    1.308522 A    
C35   C36   1.520743 S    
O6    C2    1.288714 A    
C47   H58   1.107700 S    
C7    C16   1.441390 S    
Zn4   O15   1.984260 S    
C48   H60   1.110761 S    
C43   H47   1.107400 S    
C39   H36   1.107187 S    
Zn1   O9    1.955867 S    
O9    C5    1.297668 A    
N2    C44   1.459962 S    
C46   H57   1.107835 S    
C43   H48   1.104560 S    
C52   H70   1.109007 S    
C17   C21   1.342453 D    
O23   C49   1.415277 S    
C33   C34   1.516074 S    
C19   H7    1.087880 S    
O22   C47   1.414255 S    
C50   H66   1.110600 S    
C11   C15   1.336395 D    
C46   H56   1.110501 S    
C11   H3    1.085760 S    
C35   H25   1.109530 S    
N4    O24   1.351969 S    
C12   H4    1.075978 S    
O4    Zn2   1.959754 S    
O17   C29   1.413707 S    
O5    Zn3   1.955868 S    
O3    C3    1.296462 A    
Zn3   O13   1.984260 S    
O1    Zn1   1.984259 S    
N3    O23   1.351971 S    
C37   H30   1.107187 S    
C30   H11   1.109621 S    
O14   C6    1.308512 A    
C9    H1    1.085772 S    
C49   H63   1.094516 S    
C12   C18   1.435885 S    
C51   H68   1.094524 S    
C31   H15   1.109528 S    
C39   H37   1.107724 S    
Zn1   N1    2.043037 S    
C36   H26   1.110791 S    
O24   C51   1.415274 S    
C19   C23   1.342486 D    
C49   H64   1.109902 S    
C20   C24   1.339449 D    
C42   H45   1.108643 S    
