data_mof_unit_25789.cif
_audit_creation_date              2012-12-10T17:45:22-0500
_audit_creation_method            fapswitch 2.2
_symmetry_space_group_name_H-M    P1
_symmetry_Int_Tables_number       1
_space_group_crystal_system       triclinic
_cell_length_a                    15.099274
_cell_length_b                    13.952592
_cell_length_c                    23.694043
_cell_angle_alpha                 90.001371
_cell_angle_beta                  83.336858
_cell_angle_gamma                 89.997914
_cell_volume                      4958.00245912

loop_
_atom_site_label
_atom_site_type_symbol
_atom_type_description
_atom_site_fract_x
_atom_site_fract_y
_atom_site_fract_z
_atom_type_partial_charge
C1    C     C_R   0.329336 0.499299 0.497735 0.900755
C2    C     C_R   0.670665 0.499296 0.502252 0.900876
C3    C     C_R   0.540131 0.426853 0.238183 -0.166228
C4    C     C_R   0.459664 0.426864 0.761825 -0.185661
C5    C     C_R   0.558319 0.451312 0.292274 0.346705
C6    C     C_R   0.441579 0.451403 0.707726 0.351077
C7    C     C_R   0.496169 0.506683 0.327062 -0.276781
C8    C     C_R   0.503837 0.506667 0.672948 -0.279053
C9    C     C_R   0.443585 0.573315 0.298253 0.330508
C10   C     C_R   0.556594 0.573116 0.701770 0.312908
C11   C     C_R   0.450614 0.570577 0.237281 0.293050
C12   C     C_R   0.549701 0.570200 0.762744 0.358519
C13   C     C_R   0.491225 0.489890 0.208442 0.105504
C14   C     C_R   0.508855 0.489619 0.791547 0.119392
C15   C     C_R   0.821303 0.516982 0.452378 -0.159620
C16   C     C_R   0.178687 0.517051 0.547581 -0.159795
C17   C     C_R   0.767689 0.497198 0.503258 -0.172985
C18   C     C_R   0.232311 0.497205 0.496714 -0.172909
C19   C     C_R   0.808152 0.476206 0.552892 0.403376
C20   C     C_R   0.191855 0.476159 0.447081 0.402934
C21   C     C_R   0.899323 0.498281 0.552681 -0.067056
C22   C     C_R   0.100678 0.498221 0.447281 -0.067089
C23   C     C_R   0.497262 0.501363 0.390778 0.938887
C24   C     C_R   0.502746 0.501364 0.609224 0.940702
C25   C     C_R   0.953328 0.509911 0.500480 -0.004485
C26   C     C_R   0.046670 0.509913 0.499477 -0.004319
C27   C     C_R   0.914459 0.516261 0.449273 -0.007300
C28   C     C_R   0.085535 0.516332 0.550682 -0.007243
C29   C     C_R   0.938127 0.507331 0.603385 -0.130141
C30   C     C_R   0.061870 0.507208 0.396573 -0.130343
C31   C     C_R   0.029701 0.521453 0.602982 0.396050
C32   C     C_R   0.970290 0.521320 0.396971 0.396442
C33   C     C_R   0.466403 0.796856 0.548182 0.411048
C34   C     C_R   0.529830 0.201664 0.451512 0.446515
C35   C     C_R   0.533615 0.796847 0.451820 0.413434
C36   C     C_R   0.470181 0.201667 0.548489 0.446331
C37   C     C_R   0.514609 0.896740 0.449261 -0.092541
C38   C     C_R   0.488025 0.101138 0.550656 -0.088102
C39   C     C_R   0.485416 0.896746 0.550740 -0.093075
C40   C     C_R   0.511998 0.101133 0.449345 -0.087904
C41   C     C_R   0.500012 0.947852 0.500000 0.023878
C42   C     C_R   0.500012 0.050025 0.500000 0.042967
C43   C     C_R   0.516581 0.948327 0.398005 -0.027216
C44   C     C_R   0.485929 0.048800 0.601918 -0.066768
C45   C     C_R   0.483454 0.948337 0.601995 -0.027117
C46   C     C_R   0.514103 0.048790 0.398082 -0.066817
C47   C     C_R   0.584160 0.466439 0.876056 0.634431
C48   C     C_R   0.415772 0.467381 0.123934 0.659374
C49   C     C_R   0.425392 0.479377 0.885945 0.634475
C50   C     C_R   0.574632 0.478828 0.114036 0.576066
C51   C     C_R   0.421289 0.471178 0.945190 -0.038131
C52   C     C_R   0.578672 0.470544 0.054798 -0.026790
C53   C     C_R   0.501199 0.467337 0.970109 -0.006738
C54   C     C_R   0.498738 0.467393 0.029881 0.001960
C55   C     C_R   0.583548 0.465163 0.935427 -0.042890
C56   C     C_R   0.416376 0.466007 0.064564 -0.030409
C57   C     C_R   0.339309 0.469387 0.980069 -0.117338
C58   C     C_R   0.660636 0.467996 0.019920 -0.124867
C59   C     C_R   0.336897 0.465353 0.039107 -0.107515
C60   C     C_R   0.663019 0.463867 0.960886 -0.117560
Cu1   Cu    Cu3+1 0.500000 0.597420 0.500000 1.124615
Cu2   Cu    Cu3+1 0.500000 0.402580 0.500000 1.111409
N1    N     N_R   0.506122 0.477773 0.852386 -0.428472
N2    N     N_R   0.493887 0.478071 0.147599 -0.433548
N3    N     N_R   0.500000 0.743810 0.500000 -0.296976
N4    N     N_R   0.500000 0.256190 0.500000 -0.274502
O1    O     O_R   0.370260 0.582280 0.500010 -0.541684
O2    O     O_R   0.629740 0.417720 0.499990 -0.525231
O3    O     O_R   0.629740 0.582280 0.499990 -0.541659
O4    O     O_R   0.370260 0.417720 0.500010 -0.525257
O5    O     O_R   0.499980 0.582290 0.417880 -0.504397
O6    O     O_R   0.500020 0.417710 0.582120 -0.567560
O7    O     O_R   0.500020 0.582290 0.582120 -0.504539
O8    O     O_R   0.499980 0.417710 0.417880 -0.567277
O9    O     O_2   0.662052 0.457641 0.842289 -0.462274
O10   O     O_2   0.337818 0.459225 0.157703 -0.462510
O11   O     O_2   0.349164 0.491269 0.862315 -0.461850
O12   O     O_2   0.650961 0.490024 0.137648 -0.477185
H1    H     H_    0.276742 0.471357 0.961898 0.202170
H2    H     H_    0.723216 0.469443 0.038089 0.203172
S1    S     S_3+6 0.070507 0.537736 0.669345 0.057672
O13   O     O_2   0.116448 0.447127 0.683776 -0.216063
O14   O     O_2   0.135137 0.620039 0.666206 -0.210806
O15   O     O_3   0.986270 0.560481 0.720514 -0.480647
H3    H     H_    0.014583 0.563825 0.756141 0.393458
S2    S     S_3+6 0.929473 0.537539 0.330607 0.057240
O16   O     O_2   0.883467 0.446946 0.316222 -0.215389
O17   O     O_2   0.864890 0.619890 0.333720 -0.212267
O18   O     O_3   0.013706 0.560164 0.279417 -0.480796
H4    H     H_    0.985379 0.563496 0.243794 0.393118
S3    S     S_3+6 0.375321 0.758401 0.599070 0.109940
O19   O     O_2   0.407605 0.701671 0.646332 -0.175615
O20   O     O_2   0.326985 0.844321 0.625773 -0.243869
O21   O     O_3   0.298054 0.695634 0.569880 -0.472098
H5    H     H_    0.274262 0.740424 0.542894 0.346476
S4    S     S_3+6 0.611895 0.240270 0.396207 0.087406
O22   O     O_2   0.667940 0.156475 0.373705 -0.200377
O23   O     O_2   0.564957 0.277628 0.348377 -0.330156
O24   O     O_3   0.684373 0.319465 0.416897 -0.438669
H6    H     H_    0.666583 0.381076 0.401754 0.381505
S5    S     S_3+6 0.624709 0.758377 0.400938 0.107249
O25   O     O_2   0.592441 0.701640 0.353673 -0.181447
O26   O     O_2   0.673043 0.844291 0.374235 -0.246415
O27   O     O_3   0.701977 0.695615 0.430133 -0.471736
H7    H     H_    0.725852 0.740450 0.457061 0.346562
S6    S     S_3+6 0.388094 0.240267 0.603785 0.087607
O28   O     O_2   0.332082 0.156463 0.626301 -0.199712
O29   O     O_2   0.435003 0.277687 0.651612 -0.329927
O30   O     O_3   0.315586 0.319407 0.583068 -0.438685
H8    H     H_    0.333333 0.381037 0.598204 0.381390
H9    H     H_    0.521466 0.911274 0.357627 0.219362
H10   H     H_    0.483441 0.085341 0.642367 0.201601
H11   H     H_    0.478577 0.911285 0.642373 0.220311
H12   H     H_    0.516594 0.085326 0.357632 0.201453
H13   H     H_    0.272632 0.464403 0.064706 0.204835
H14   H     H_    0.727274 0.462325 0.935288 0.206425
H15   H     H_    0.580928 0.372945 0.214745 0.218946
H16   H     H_    0.418650 0.373157 0.785287 0.217409
S7    S     S_3+6 0.672826 0.468211 0.296385 0.092368
O31   O     O_2   0.686545 0.524790 0.348332 -0.290888
O32   O     O_2   0.719155 0.372912 0.296259 -0.175031
O33   O     O_3   0.716311 0.530905 0.239204 -0.432561
H17   H     H_    0.781428 0.531538 0.241215 0.411941
S8    S     S_3+6 0.327101 0.468312 0.703523 0.096292
O34   O     O_2   0.313487 0.524862 0.651550 -0.291337
O35   O     O_2   0.280770 0.373017 0.703636 -0.176876
O36   O     O_3   0.283529 0.531039 0.760673 -0.419899
H18   H     H_    0.218406 0.531511 0.758685 0.411507
S9    S     S_3+6 0.371024 0.659834 0.335401 0.112875
O37   O     O_2   0.420751 0.751674 0.341605 -0.253456
O38   O     O_2   0.292904 0.679659 0.303225 -0.169529
O39   O     O_3   0.329705 0.622483 0.399901 -0.550458
H19   H     H_    0.289230 0.674479 0.415352 0.363422
S10   S     S_3+6 0.629054 0.659744 0.664634 0.113688
O40   O     O_2   0.579262 0.751602 0.658609 -0.251694
O41   O     O_2   0.707314 0.679491 0.696694 -0.169571
O42   O     O_3   0.670181 0.622590 0.600055 -0.550209
H20   H     H_    0.710338 0.674798 0.584529 0.363251
S11   S     S_3+6 0.419809 0.670177 0.195980 0.134471
O43   O     O_2   0.323737 0.660463 0.186043 -0.146515
O44   O     O_2   0.431898 0.763641 0.225613 -0.184910
O45   O     O_3   0.482238 0.674545 0.132461 -0.513717
H21   H     H_    0.543437 0.688661 0.141295 0.369520
S12   S     S_3+6 0.581124 0.669358 0.804140 0.125273
O46   O     O_2   0.677416 0.659071 0.813568 -0.200267
O47   O     O_2   0.568424 0.762858 0.774719 -0.173148
O48   O     O_3   0.518504 0.673051 0.867641 -0.526131
H22   H     H_    0.550896 0.716258 0.891315 0.384467
H23   H     H_    0.789525 0.527155 0.414816 0.261247
H24   H     H_    0.210453 0.527270 0.585141 0.261172
S13   S     S_3+6 0.755619 0.404647 0.610053 0.044059
O49   O     O_2   0.822541 0.332658 0.625992 -0.226238
O50   O     O_2   0.728553 0.466433 0.660937 -0.265919
O51   O     O_3   0.666601 0.343492 0.593447 -0.501016
H25   H     H_    0.641856 0.311620 0.629197 0.380734
S14   S     S_3+6 0.244430 0.404606 0.389926 0.044357
O52   O     O_2   0.177525 0.332635 0.373948 -0.226078
O53   O     O_2   0.271556 0.466404 0.339056 -0.265000
O54   O     O_3   0.333417 0.343426 0.406564 -0.500905
H26   H     H_    0.358195 0.311559 0.370818 0.380878
H27   H     H_    0.896684 0.505915 0.643717 0.256400
H28   H     H_    0.103313 0.505755 0.356241 0.256315

loop_
_geom_bond_atom_site_label_1
_geom_bond_atom_site_label_2
_ccdc_geom_bond_type
C16   C28   A    
S5    O25   D    
C49   N1    A    
C50   N2    A    
C41   C42   A    
C48   O10   S    
O48   H22   S    
C6    S8    S    
C34   N4    A    
S10   O42   S    
S1    O13   D    
C33   N3    A    
C39   C41   A    
C53   C54   A    
C40   C46   A    
C1    C18   S    
C33   C39   A    
C5    S7    S    
C34   C40   A    
S8    O35   D    
S14   O52   D    
C35   C37   A    
C34   S4    S    
C38   C42   A    
C2    O2    A    
C33   S3    S    
C47   N1    A    
S11   O45   S    
S2    O17   D    
C24   O7    A    
C48   N2    A    
S6    O28   D    
C35   N3    A    
C58   C60   A    
S4    O24   S    
C11   C13   A    
Cu2   O4    S    
C48   C56   A    
S13   O51   S    
C57   H1    S    
C11   S11   S    
C3    H15   S    
C17   C19   A    
O54   H26   S    
O39   H19   S    
C49   C51   A    
S4    O23   D    
C50   C52   A    
S13   O49   D    
C51   C57   A    
C40   C42   A    
C2    O3    A    
C20   S14   S    
C18   C20   A    
C3    C13   A    
C58   H2    S    
C39   C45   A    
S9    O39   S    
Cu1   O5    S    
S7    O32   D    
S5    O26   D    
C55   C60   A    
C2    C17   S    
C4    C14   A    
C4    H16   S    
O21   H5    S    
C43   H9    S    
S12   O48   S    
C50   O12   S    
O27   H7    S    
S1    O14   D    
C52   C54   A    
C10   C12   A    
C53   C55   A    
C54   C56   A    
Cu2   N4    S    
C36   S6    S    
C23   O5    A    
O15   H3    S    
S12   O47   D    
S3    O19   D    
C5    C7    A    
C46   H12   S    
S2    O16   D    
C6    C8    A    
Cu1   O7    S    
C25   C26   A    
C21   C29   A    
C12   S12   S    
C51   C53   A    
C37   C43   A    
C38   C44   A    
Cu1   N3    S    
S3    O20   D    
Cu1   O1    S    
C15   C27   A    
O24   H6    S    
S11   O43   D    
C32   S2    S    
S4    O22   D    
Cu2   O6    S    
C16   C18   A    
C9    C11   A    
O51   H25   S    
C52   C58   A    
S8    O36   S    
C44   H10   S    
C59   H13   S    
C12   C14   A    
S5    O27   S    
C28   C31   A    
C60   H14   S    
C4    C6    A    
C30   H28   S    
C23   O8    A    
O36   H18   S    
C3    C5    A    
C15   H23   S    
S1    O15   S    
C44   C45   A    
C24   O6    A    
C47   C55   A    
S9    O37   D    
S7    O33   S    
Cu1   O3    S    
C7    C9    A    
C21   C25   A    
C22   C30   A    
C19   C21   A    
C27   C32   A    
C19   S13   S    
S14   O54   S    
C10   S10   S    
C20   C22   A    
S12   O46   D    
C35   S5    S    
S2    O18   S    
S10   O41   D    
S7    O31   D    
C15   C17   A    
S10   O40   D    
C9    S9    S    
C25   C27   A    
O42   H20   S    
C26   C28   A    
C1    O4    A    
C31   S1    S    
C56   C59   A    
Cu2   O2    S    
C36   C38   A    
O18   H4    S    
C47   O9    S    
C29   C31   A    
O30   H8    S    
S3    O21   S    
C30   C32   A    
S11   O44   D    
C13   N2    S    
S6    O29   D    
C7    C23   S    
C14   N1    S    
S14   O53   D    
C1    O1    A    
C49   O11   S    
C36   N4    A    
S13   O50   D    
C37   C41   A    
Cu1   Cu2   S    
C43   C46   A    
C57   C59   A    
C45   H11   S    
C8    C24   S    
C8    C10   A    
C22   C26   A    
O45   H21   S    
Cu2   O8    S    
C16   H24   S    
C29   H27   S    
O33   H17   S    
S8    O34   D    
S9    O38   D    
S6    O30   S    
