data_mof_unit_55565.cif
_audit_creation_date              2012-12-11T14:06:50-0500
_audit_creation_method            fapswitch 2.2
_symmetry_space_group_name_H-M    P1
_symmetry_Int_Tables_number       1
_space_group_crystal_system       triclinic
_cell_length_a                    6.915222
_cell_length_b                    17.313591
_cell_length_c                    24.138088
_cell_angle_alpha                 104.506064
_cell_angle_beta                  90.486837
_cell_angle_gamma                 89.827004
_cell_volume                      2797.75697389

loop_
_atom_site_label
_atom_site_type_symbol
_atom_type_description
_atom_site_fract_x
_atom_site_fract_y
_atom_site_fract_z
_atom_type_partial_charge
O1    O     O_R   0.494290 0.391990 0.999150 -0.512001
O2    O     O_R   0.827170 0.534410 0.082350 -0.514450
O3    O     O_R   0.994360 0.608010 0.000850 -0.546828
C1    C     C_R   0.658416 0.550149 0.106207 0.773051
O4    O     O_R   0.824210 0.388010 0.004470 -0.529686
O5    O     O_R   0.991370 0.460560 0.922410 -0.515844
C2    C     C_R   0.653743 0.354642 0.000746 0.849323
O6    O     O_R   0.497270 0.539440 0.077590 -0.519721
O7    O     O_3   0.659770 0.523970 0.973170 -0.381060
V1    V     V_3+5 0.935840 0.495550 0.004980 1.630690
O8    O     O_R   0.320910 0.465590 0.917650 -0.528774
C3    C     C_R   0.151955 0.448976 0.894016 0.844919
O9    O     O_R   0.323870 0.611990 0.995530 -0.551527
C4    C     C_R   0.154231 0.645071 0.998398 0.774218
V2    V     V_3+5 0.435470 0.504450 0.995020 1.601817
O10   O     O_3   0.161670 0.476030 0.026830 -0.334929
C5    C     C_2   0.142729 0.730136 0.998003 -0.307346
H1    H     H_    0.277349 0.760766 0.994611 0.151633
C6    C     C_2   0.972796 0.769859 0.002012 -0.336697
H2    H     H_    0.838178 0.739224 0.005400 0.144512
C7    C     C_R   0.964877 0.278231 0.624924 0.753513
N1    N     N_R   0.107247 0.331425 0.647735 -0.544064
C8    C     C_R   0.239533 0.355086 0.613427 0.676672
C9    C     C_R   0.228392 0.326753 0.552913 -0.127765
C10   C     C_R   0.080705 0.272037 0.528640 -0.104701
C11   C     C_R   0.947421 0.247231 0.564953 -0.160787
C12   C     C_R   0.361590 0.351088 0.516313 0.422578
C13   C     C_R   0.354323 0.317980 0.456704 0.247068
C14   C     C_R   0.202603 0.265006 0.431658 -0.096934
C15   C     C_R   0.067225 0.241409 0.468186 -0.057745
C16   C     C_R   0.918478 0.186734 0.444298 -0.111139
C17   C     C_R   0.777166 0.167560 0.480866 0.218711
C18   C     C_R   0.798755 0.193107 0.540514 0.431586
C19   C     C_R   0.179869 0.234486 0.371433 0.690281
N2    N     N_R   0.041670 0.178504 0.349558 -0.515575
C20   C     C_R   0.917872 0.152326 0.384595 0.737032
O11   O     O_2   0.841655 0.255304 0.660624 -0.432905
O12   O     O_2   0.381347 0.405696 0.638133 -0.469760
O13   O     O_2   0.292403 0.260569 0.334669 -0.492090
O14   O     O_2   0.799256 0.091195 0.361437 -0.521888
C21   C     C_R   0.123324 0.076068 0.260859 0.327795
C22   C     C_R   0.097617 0.042548 0.201480 0.327226
C23   C     C_R   0.978189 0.080873 0.168890 -0.236259
C24   C     C_R   0.876592 0.149781 0.196599 -0.379573
H3    H     H_    0.779556 0.177815 0.172031 0.165444
C25   C     C_R   0.901760 0.183724 0.255757 0.427933
C26   C     C_R   0.023924 0.146335 0.288175 0.155670
C27   C     C_R   0.985323 0.419195 0.738827 0.390203
C28   C     C_R   0.997047 0.447461 0.798843 0.341787
C29   C     C_R   0.142173 0.418888 0.830405 -0.332672
C30   C     C_R   0.274398 0.360650 0.800749 0.179426
C31   C     C_R   0.259889 0.331559 0.740811 0.296683
C32   C     C_R   0.119782 0.362062 0.709377 0.070573
C33   C     C_R   0.419372 0.859445 0.613560 0.658559
N3    N     N_R   0.524017 0.826534 0.650121 -0.549396
C34   C     C_R   0.646449 0.763475 0.630107 0.712818
C35   C     C_R   0.671859 0.731551 0.570316 -0.146551
C36   C     C_R   0.561421 0.764821 0.532298 -0.062249
C37   C     C_R   0.435045 0.829129 0.554122 -0.067072
C38   C     C_R   0.803362 0.668649 0.546907 0.195136
C39   C     C_R   0.813044 0.636742 0.487239 0.449641
C40   C     C_R   0.691302 0.666401 0.449880 -0.169445
C41   C     C_R   0.575659 0.733698 0.472281 -0.145775
C42   C     C_R   0.473318 0.769702 0.434512 -0.086000
C43   C     C_R   0.345280 0.833585 0.456883 0.434041
C44   C     C_R   0.324934 0.861427 0.516300 -0.224341
C45   C     C_R   0.683058 0.630905 0.390359 0.625383
N4    N     N_R   0.600763 0.670724 0.353334 -0.546589
C46   C     C_R   0.505716 0.741755 0.375163 0.622077
O15   O     O_2   0.301225 0.921825 0.634756 -0.484664
O16   O     O_2   0.739997 0.731762 0.668330 -0.476541
O17   O     O_2   0.752070 0.556295 0.370212 -0.485228
O18   O     O_2   0.448297 0.787046 0.340017 -0.496759
H4    H     H_    0.220077 0.907954 0.532700 0.178494
C47   C     C_R   0.461091 0.646079 0.254789 -0.091817
H5    H     H_    0.325523 0.672200 0.272281 0.189025
C48   C     C_R   0.480593 0.623996 0.195333 0.231889
C49   C     C_R   0.646119 0.580891 0.169884 -0.176769
C50   C     C_R   0.795743 0.567126 0.206944 0.214686
C51   C     C_R   0.784608 0.600453 0.266113 -0.119446
H6    H     H_    0.908699 0.594762 0.292390 0.181021
C52   C     C_R   0.615265 0.638529 0.291371 0.237157
C53   C     C_R   0.342671 0.838706 0.739244 -0.104444
H7    H     H_    0.233517 0.799443 0.714853 0.201408
C54   C     C_R   0.322352 0.867631 0.798601 0.246152
C55   C     C_R   0.466325 0.917941 0.830872 -0.166123
C56   C     C_R   0.627521 0.937917 0.802038 -0.202637
H8    H     H_    0.739183 0.976631 0.825608 0.190562
C57   C     C_R   0.646444 0.909087 0.742777 0.341391
C58   C     C_R   0.504222 0.858679 0.711046 0.243572
C59   C     C_2   0.637245 0.269900 0.001814 -0.357371
H9    H     H_    0.769089 0.241132 0.011153 0.148786
C60   C     C_2   0.468262 0.227906 0.993234 0.103870
O19   O     O_R   0.618210 0.960470 0.922400 -0.539760
O20   O     O_R   0.291310 0.111960 0.995450 -0.523798
O21   O     O_R   0.124210 0.039530 0.077580 -0.526092
C61   C     C_R   0.460550 0.144571 0.997400 0.718457
O22   O     O_R   0.288310 0.965490 0.917650 -0.513552
O23   O     O_R   0.121180 0.892010 0.999220 -0.530883
C62   C     C_R   0.456301 0.948666 0.894115 0.776998
O24   O     O_R   0.621230 0.107990 0.000760 -0.555683
O25   O     O_3   0.455770 0.976060 0.026840 -0.374019
V3    V     V_3+5 0.179680 0.004440 0.995020 1.559339
O26   O     O_R   0.791670 0.888040 0.004570 -0.551607
C63   C     C_R   0.961287 0.854924 0.001604 0.800235
O27   O     O_R   0.794680 0.034510 0.082370 -0.551008
C64   C     C_R   0.964259 0.050364 0.105836 0.778876
V4    V     V_3+5 0.680070 0.995560 0.005010 1.475520
O28   O     O_3   0.953840 0.023940 0.973160 -0.360202
O29   O     O_3   0.796046 0.249935 0.283477 -0.520810
C65   C     C_3   0.858793 0.317063 0.265380 -0.030065
H10   H     H_    0.792082 0.371181 0.293283 0.212714
H11   H     H_    0.810926 0.313725 0.220777 0.112839
H12   H     H_    0.018604 0.324717 0.269463 0.151944
O30   O     O_3   0.828323 0.442333 0.710753 -0.505018
C66   C     C_3   0.889351 0.490763 0.675092 -0.021979
H13   H     H_    0.904312 0.454266 0.630469 0.156968
H14   H     H_    0.775104 0.535773 0.674783 0.201650
H15   H     H_    0.026324 0.523931 0.689496 0.109325
O31   O     O_3   0.858614 0.500725 0.826747 -0.517402
C67   C     C_3   0.928710 0.579002 0.833480 -0.114538
H16   H     H_    0.950323 0.592758 0.791375 0.151395
H17   H     H_    0.065252 0.589237 0.858997 0.079816
H18   H     H_    0.819580 0.621511 0.857133 0.160656
Br1   Br    Br    0.468309 0.315563 0.841527 -0.379134
Br2   Br    Br    0.417856 0.243577 0.701427 -0.288710
Br3   Br    Br    0.984459 0.625367 0.592596 -0.563305
O32   O     O_3   0.945297 0.576668 0.465778 -0.502493
C68   C     C_3   0.115350 0.611553 0.450865 -0.100121
H19   H     H_    0.182408 0.653434 0.488716 0.132563
H20   H     H_    0.087358 0.642918 0.416596 0.119668
H21   H     H_    0.221833 0.563543 0.434061 0.165485
O33   O     O_3   0.219449 0.860588 0.420879 -0.544239
C69   C     C_3   0.266992 0.939767 0.421160 -0.054021
H22   H     H_    0.177028 0.958126 0.388375 0.203793
H23   H     H_    0.421171 0.944733 0.409598 0.181309
H24   H     H_    0.234547 0.981576 0.463114 0.125975
Br4   Br    Br    0.280685 0.662764 0.153085 -0.538424
Br5   Br    Br    0.013031 0.498113 0.181501 -0.527388
Br6   Br    Br    0.101630 0.831331 0.832813 -0.548573
Br7   Br    Br    0.866969 0.940553 0.706194 -0.435762
Br8   Br    Br    0.224099 0.268761 0.972312 -0.477003
O34   O     O_3   0.509531 0.403599 0.538831 -0.516850
C70   C     C_3   0.448223 0.481732 0.539570 -0.048866
H25   H     H_    0.563272 0.524129 0.559975 0.174709
H26   H     H_    0.314511 0.498312 0.565158 0.154679
H27   H     H_    0.424749 0.489004 0.495535 0.137546
Br9   Br    Br    0.569312 0.343424 0.413562 -0.389612
Br10  Br    Br    0.536290 0.115362 0.453055 -0.565126
O35   O     O_3   0.664009 0.168879 0.574734 -0.502642
C71   C     C_3   0.722452 0.094250 0.582933 0.003493
H28   H     H_    0.617073 0.075578 0.611452 0.201823
H29   H     H_    0.867130 0.097963 0.604027 0.144219
H30   H     H_    0.723782 0.047352 0.541901 0.107728
O36   O     O_3   0.228987 0.035558 0.293437 -0.550260
C72   C     C_3   0.427138 0.049857 0.287443 -0.065406
H31   H     H_    0.463501 0.113269 0.307451 0.197606
H32   H     H_    0.473988 0.033387 0.242008 0.141395
H33   H     H_    0.510265 0.011906 0.309931 0.208047
O37   O     O_3   0.193523 0.972950 0.175204 -0.550084
C73   C     C_3   0.072819 0.907702 0.175863 -0.136416
H34   H     H_    0.149168 0.851902 0.154455 0.185009
H35   H     H_    0.935782 0.909807 0.151743 0.094543
H36   H     H_    0.041151 0.904757 0.220427 0.180447

loop_
_geom_bond_atom_site_label_1
_geom_bond_atom_site_label_2
_ccdc_geom_bond_type
C50   Br5   S    
C56   H8    S    
C47   H5    S    
C21   C22   A    
O23   V3    S    
N2    C20   A    
C9    C12   A    
C1    O6    A    
N2    C26   S    
O32   C68   S    
C69   H24   S    
C73   H34   S    
C35   C36   A    
C48   C49   A    
C24   H3    S    
C68   H20   S    
O19   V4    S    
C14   C15   A    
C40   C45   A    
C72   H31   S    
C19   N2    A    
N3    C58   S    
C18   O35   S    
C37   C44   A    
O5    C3    A    
C15   C16   A    
C28   O31   S    
O27   C64   A    
O22   V3    S    
C44   H4    S    
C10   C15   A    
V4    O28   S    
C45   O17   S    
C71   H30   S    
O29   C65   S    
C67   H18   S    
C33   N3    A    
O8    V2    S    
C17   Br10  S    
C16   C17   A    
O20   V3    S    
N4    C46   A    
C12   O34   S    
C71   H28   S    
C46   O18   S    
O1    V2    S    
C65   H12   S    
C55   C62   S    
O7    V1    S    
C68   H21   S    
O24   V4    S    
O9    C4    A    
C4    C5    S    
O25   V3    S    
C70   H27   S    
N1    C8    A    
O26   C63   A    
C73   H35   S    
C7    C11   A    
C24   C25   A    
C5    H1    S    
N1    C32   S    
C33   C37   A    
C72   H33   S    
C27   C32   A    
O23   C63   A    
C13   Br9   S    
C41   C42   A    
C45   N4    A    
C30   Br1   S    
C20   O14   S    
C9    C10   A    
C70   H26   S    
C59   H9    S    
O4    C2    A    
C31   Br2   S    
C49   C50   A    
C51   H6    S    
C35   C38   A    
C69   H23   S    
C10   C11   A    
C54   C55   A    
C14   C19   A    
C19   O13   S    
C38   C39   A    
O2    C1    A    
C23   C24   A    
C1    C49   S    
C40   C41   A    
C59   C60   D    
C11   C18   A    
C53   H7    S    
C33   O15   S    
O19   C62   A    
C8    C9    A    
C34   O16   S    
C2    C59   S    
N3    C34   A    
C29   C30   A    
C21   C26   A    
C65   H11   S    
C23   C64   S    
C42   C46   A    
C48   Br4   S    
O25   V4    S    
C47   C48   A    
C54   Br6   S    
C67   H16   S    
O3    C4    A    
C27   O30   S    
C6    C63   S    
C51   C52   A    
C27   C28   A    
C53   C54   A    
O21   C64   A    
C28   C29   A    
O6    V2    S    
O22   C62   A    
O9    V2    S    
O33   C69   S    
C34   C35   A    
O2    V1    S    
C60   C61   S    
O26   V4    S    
C73   H36   S    
O31   C67   S    
C55   C56   A    
C68   H19   S    
C36   C41   A    
C53   C58   A    
C25   C26   A    
C13   C14   A    
C65   H10   S    
O1    C2    A    
C38   Br3   S    
C22   O37   S    
C70   H25   S    
O5    V1    S    
C3    C29   S    
O8    C3    A    
O20   C61   A    
C47   C52   A    
C69   H22   S    
C8    O12   S    
O35   C71   S    
C66   H15   S    
V3    O28   S    
N4    C52   S    
C17   C18   A    
C6    H2    S    
C56   C57   A    
O34   C70   S    
C36   C37   A    
C30   C31   A    
O3    V1    S    
V1    O10   S    
O37   C73   S    
O30   C66   S    
O27   V4    S    
C57   Br7   S    
C42   C43   A    
C72   H32   S    
C5    C6    D    
C66   H14   S    
C66   H13   S    
C39   O32   S    
C71   H29   S    
O7    V2    S    
C39   C40   A    
C61   O24   A    
C67   H17   S    
C50   C51   A    
O4    V1    S    
C7    O11   S    
C43   C44   A    
C22   C23   A    
O21   V3    S    
O36   C72   S    
C16   C20   A    
C25   O29   S    
C21   O36   S    
C57   C58   A    
C7    N1    A    
C43   O33   S    
C60   Br8   S    
V2    O10   S    
C31   C32   A    
C12   C13   A    
