data_mof_unit_6684.cif
_audit_creation_date              2013-03-05T16:04:56-0500
_audit_creation_method            fapswitch 2.2
_symmetry_space_group_name_H-M    P1
_symmetry_Int_Tables_number       1
_space_group_crystal_system       triclinic
_cell_length_a                    23.1363
_cell_length_b                    20.179075
_cell_length_c                    14.805811
_cell_angle_alpha                 89.897605
_cell_angle_beta                  100.511182
_cell_angle_gamma                 90.161799
_cell_volume                      6796.34900792

loop_
_atom_site_label
_atom_site_type_symbol
_atom_site_description
_atom_site_fract_x
_atom_site_fract_y
_atom_site_fract_z
_atom_type_partial_charge
O1    O     O_R   0.541320 0.066090 0.608930 -0.597647
O2    O     O_R   0.458680 0.933910 0.391070 -0.603632
O3    O     O_R   0.458680 0.066090 0.391070 -0.601268
O4    O     O_R   0.541320 0.933910 0.608930 -0.605857
O5    O     O_R   0.041320 0.566090 0.608930 -0.603323
O6    O     O_R   0.958680 0.433910 0.391070 -0.605344
O7    O     O_R   0.958680 0.566090 0.391070 -0.601840
O8    O     O_R   0.041320 0.433910 0.608930 -0.603424
O9    O     O_R   0.572880 0.066110 0.470280 -0.616408
O10   O     O_R   0.427120 0.933890 0.529720 -0.620092
O11   O     O_R   0.427120 0.066110 0.529720 -0.614277
O12   O     O_R   0.572880 0.933890 0.470280 -0.613123
O13   O     O_R   0.072880 0.566110 0.470280 -0.613406
O14   O     O_R   0.927120 0.433890 0.529720 -0.612934
O15   O     O_R   0.927120 0.566110 0.529720 -0.620586
O16   O     O_R   0.072880 0.433890 0.470280 -0.615626
C1    C     C_R   0.576524 0.086128 0.555540 0.893773
C2    C     C_R   0.425813 0.910355 0.447026 0.856974
C3    C     C_R   0.422533 0.084753 0.443484 0.895358
C4    C     C_R   0.572954 0.908946 0.552024 0.861676
C5    C     C_R   0.072854 0.591216 0.551808 0.865925
C6    C     C_R   0.922138 0.415205 0.443341 0.895300
C7    C     C_R   0.925889 0.589682 0.446966 0.860299
C8    C     C_R   0.076339 0.413468 0.555678 0.899094
Zn1   Zn    Zn3+2 0.478910 0.000000 0.592580 0.924698
Zn2   Zn    Zn3+2 0.521090 0.000000 0.407420 0.922570
Zn3   Zn    Zn3+2 0.978910 0.500000 0.592580 0.922228
Zn4   Zn    Zn3+2 0.021090 0.500000 0.407420 0.921272
C9    C     C_R   0.603324 0.844503 0.572139 -0.129081
C10   C     C_R   0.372981 0.126420 0.402995 -0.133326
C11   C     C_R   0.383644 0.857080 0.414522 -0.122508
C12   C     C_R   0.620578 0.135646 0.591306 -0.127575
C13   C     C_R   0.122099 0.365719 0.592738 -0.135622
C14   C     C_R   0.884173 0.643375 0.414743 -0.123235
C15   C     C_R   0.869547 0.377141 0.401861 -0.137874
C16   C     C_R   0.102910 0.656016 0.571389 -0.131296
C17   C     C_R   0.609079 0.729297 0.625191 0.218926
C18   C     C_R   0.302310 0.173651 0.276724 0.213845
C19   C     C_R   0.349623 0.762969 0.315537 0.213358
C20   C     C_R   0.687697 0.193290 0.711779 0.214129
C21   C     C_R   0.196750 0.316531 0.712515 0.216530
C22   C     C_R   0.851084 0.738437 0.316909 0.213799
C23   C     C_R   0.789724 0.344402 0.276550 0.215092
C24   C     C_R   0.108559 0.771146 0.624477 0.219312
C25   C     C_R   0.580562 0.791930 0.619220 0.170586
C26   C     C_R   0.347623 0.127235 0.307955 0.197623
C27   C     C_R   0.395591 0.806585 0.354568 0.194094
C28   C     C_R   0.649530 0.138940 0.684262 0.202027
C29   C     C_R   0.149685 0.361973 0.686750 0.187108
C30   C     C_R   0.896539 0.694070 0.355032 0.194105
C31   C     C_R   0.844150 0.377848 0.306431 0.186813
C32   C     C_R   0.080172 0.708260 0.618660 0.170197
C33   C     C_R   0.648826 0.831258 0.524522 -0.297113
C34   C     C_R   0.347096 0.161725 0.464481 -0.309041
C35   C     C_R   0.330495 0.857260 0.446162 -0.313191
C36   C     C_R   0.634790 0.179911 0.527622 -0.310141
C37   C     C_R   0.141854 0.327080 0.527903 -0.308512
C38   C     C_R   0.831212 0.643727 0.447050 -0.312136
C39   C     C_R   0.839567 0.347365 0.463843 -0.307246
C40   C     C_R   0.147993 0.669901 0.523085 -0.297082
C41   C     C_R   0.665679 0.766242 0.509424 0.045778
C42   C     C_R   0.292949 0.191129 0.437012 0.050123
C43   C     C_R   0.285451 0.812298 0.413634 0.048343
C44   C     C_R   0.684389 0.219029 0.548652 0.050720
C45   C     C_R   0.193463 0.291852 0.549347 0.048648
C46   C     C_R   0.786639 0.689279 0.415217 0.048415
C47   C     C_R   0.783470 0.322106 0.436820 0.049253
C48   C     C_R   0.164541 0.735122 0.507885 0.045439
C49   C     C_R   0.649286 0.715439 0.565542 0.055967
C50   C     C_R   0.274532 0.205547 0.342885 0.054880
C51   C     C_R   0.295578 0.763942 0.348715 0.057916
C52   C     C_R   0.705957 0.232918 0.642495 0.051950
C53   C     C_R   0.215372 0.277886 0.642959 0.058659
C54   C     C_R   0.797201 0.737874 0.350629 0.057753
C55   C     C_R   0.762862 0.311029 0.342602 0.060895
C56   C     C_R   0.148490 0.785567 0.564455 0.056160
C57   C     C_R   0.701863 0.751664 0.443953 0.034027
C58   C     C_R   0.260853 0.213160 0.503213 0.030135
C59   C     C_R   0.233002 0.809857 0.451562 0.037635
C60   C     C_R   0.710839 0.247173 0.478469 0.026990
C61   C     C_R   0.220885 0.265731 0.479276 0.026898
C62   C     C_R   0.734211 0.691846 0.453269 0.037363
C63   C     C_R   0.751430 0.299418 0.503177 0.029591
C64   C     C_R   0.200285 0.750187 0.441960 0.034305
C65   C     C_R   0.268165 0.185332 0.593316 0.193658
C66   C     C_R   0.706333 0.793252 0.367918 0.168821
C67   C     C_R   0.701268 0.223168 0.385695 0.191116
C68   C     C_R   0.211983 0.862911 0.500160 0.191616
C69   C     C_R   0.712682 0.638551 0.501283 0.190869
C70   C     C_R   0.211520 0.290858 0.387039 0.193143
C71   C     C_R   0.204180 0.709063 0.365494 0.168016
C72   C     C_R   0.760622 0.324971 0.594520 0.196525
C73   C     C_R   0.250243 0.221430 0.663297 -0.230806
C74   C     C_R   0.754043 0.786216 0.323135 -0.234384
C75   C     C_R   0.721477 0.260513 0.318170 -0.230699
C76   C     C_R   0.170719 0.849787 0.556419 -0.235825
C77   C     C_R   0.671387 0.651359 0.557405 -0.235447
C78   C     C_R   0.232360 0.255095 0.318993 -0.231144
C79   C     C_R   0.251860 0.716126 0.320586 -0.234340
C80   C     C_R   0.742744 0.287882 0.663882 -0.232827
N1    N     N_R   0.549130 0.000000 0.284090 -0.096113
N2    N     N_R   0.450870 0.000000 0.715910 -0.099657
N3    N     N_R   0.049130 0.500000 0.284090 -0.096689
N4    N     N_R   0.950870 0.500000 0.715910 -0.100537
C81   C     C_R   0.629998 0.992013 0.206520 -0.314382
C82   C     C_R   0.371604 0.974721 0.791991 -0.303310
C83   C     C_R   0.130123 0.509371 0.206816 -0.314172
C84   C     C_R   0.871768 0.525815 0.791803 -0.303179
C85   C     C_R   0.607863 0.002645 0.286171 0.020189
C86   C     C_R   0.392475 0.990680 0.712672 0.022093
C87   C     C_R   0.107899 0.498589 0.286459 0.015777
C88   C     C_R   0.892581 0.509789 0.712563 0.022100
C89   C     C_R   0.510110 0.988748 0.206106 -0.057870
C90   C     C_R   0.490669 0.994057 0.794332 -0.059082
C91   C     C_R   0.010210 0.511094 0.205921 -0.058514
C92   C     C_R   0.990715 0.506398 0.794274 -0.065947
C93   C     C_R   0.529790 0.972642 0.124553 0.000099
C94   C     C_R   0.472954 0.972054 0.875206 -0.001292
C95   C     C_R   0.029953 0.527610 0.124450 0.001510
C96   C     C_R   0.973096 0.528377 0.875081 0.001588
C97   C     C_R   0.591074 0.976662 0.125404 0.133285
C98   C     C_R   0.411808 0.965285 0.873740 0.128630
C99   C     C_R   0.091235 0.524133 0.125451 0.133802
C100  C     C_R   0.911983 0.535076 0.873595 0.128733
C101  C     C_R   0.490781 0.957519 0.041359 0.012996
C102  C     C_R   0.513319 0.960627 0.958160 0.015420
C103  C     C_R   0.990986 0.542720 0.041214 0.012704
C104  C     C_R   0.013512 0.539838 0.958030 0.015339
C105  C     C_R   0.575108 0.953019 0.962795 0.182870
C106  C     C_R   0.430289 0.940583 0.036349 0.179084
C107  C     C_R   0.075315 0.547770 0.962725 0.184204
C108  C     C_R   0.930573 0.559602 0.036180 0.179295
C109  C     C_R   0.613075 0.963504 0.046038 -0.226290
C110  C     C_R   0.391517 0.946760 0.952897 -0.219870
C111  C     C_R   0.113261 0.537485 0.046061 -0.227744
C112  C     C_R   0.891769 0.553504 0.952729 -0.221300
H1    H     H_    0.660219 0.960506 0.049002 0.151682
H2    H     H_    0.345172 0.936063 0.949563 0.152151
H3    H     H_    0.160406 0.540869 0.049097 0.151497
H4    H     H_    0.845475 0.564206 0.949374 0.152255
H5    H     H_    0.535686 0.005578 0.791334 0.152167
H6    H     H_    0.464314 0.992698 0.209734 0.152327
H7    H     H_    0.035741 0.495434 0.791323 0.152735
H8    H     H_    0.964421 0.506966 0.209253 0.151558
H9    H     H_    0.362462 0.993315 0.647587 0.137594
H10   H     H_    0.637523 0.010876 0.350575 0.136525
H11   H     H_    0.862648 0.507594 0.647402 0.138840
H12   H     H_    0.137495 0.491424 0.351141 0.139246
H13   H     H_    0.677061 0.994078 0.208833 0.142812
H14   H     H_    0.324806 0.967822 0.788879 0.143246
H15   H     H_    0.177222 0.508072 0.209385 0.143005
H16   H     H_    0.825018 0.532922 0.788578 0.143573
H17   H     H_    0.258496 0.200563 0.731758 0.166507
H18   H     H_    0.757562 0.820664 0.268312 0.168501
H19   H     H_    0.711698 0.242649 0.248176 0.166618
H20   H     H_    0.155101 0.891008 0.591950 0.170728
H21   H     H_    0.655523 0.609931 0.592616 0.171050
H22   H     H_    0.220014 0.271568 0.248540 0.169690
H23   H     H_    0.255002 0.681987 0.265433 0.168502
H24   H     H_    0.755323 0.304995 0.733949 0.171147
C113  C     C_3   0.602269 0.923585 0.886771 -0.938276
H25   H     H_    0.632914 0.883118 0.914612 0.247671
H26   H     H_    0.568976 0.900544 0.832864 0.245548
H27   H     H_    0.627623 0.961924 0.856835 0.242283
C114  C     C_3   0.406518 0.905661 0.112100 -0.929883
H28   H     H_    0.380010 0.861861 0.084046 0.248676
H29   H     H_    0.442240 0.886120 0.165182 0.246978
H30   H     H_    0.377767 0.939470 0.143022 0.241365
C115  C     C_3   0.102528 0.577509 0.886753 -0.936945
H31   H     H_    0.132884 0.618382 0.914502 0.247481
H32   H     H_    0.128224 0.539480 0.857405 0.238521
H33   H     H_    0.069274 0.600083 0.832463 0.245313
C116  C     C_3   0.907007 0.594527 0.111843 -0.930168
H34   H     H_    0.881010 0.638564 0.083723 0.248929
H35   H     H_    0.877799 0.560868 0.142469 0.238821
H36   H     H_    0.942810 0.613703 0.165178 0.247014
H37   H     H_    0.368544 0.164330 0.535774 0.197600
H38   H     H_    0.668427 0.872285 0.493879 0.183996
H39   H     H_    0.608045 0.181631 0.459755 0.192275
H40   H     H_    0.326258 0.890932 0.500975 0.194523
H41   H     H_    0.826781 0.609943 0.501826 0.194353
H42   H     H_    0.116512 0.325173 0.459004 0.193895
H43   H     H_    0.167502 0.629225 0.491958 0.184327
H44   H     H_    0.860804 0.343295 0.535054 0.197713
C117  C     C_3   0.365716 0.077059 0.242540 -0.896229
H45   H     H_    0.374937 0.028321 0.276925 0.239947
H46   H     H_    0.329655 0.066436 0.183957 0.235889
H47   H     H_    0.404977 0.095187 0.216561 0.249128
C118  C     C_3   0.522905 0.800203 0.652774 -0.851131
H48   H     H_    0.489529 0.822073 0.597540 0.242375
H49   H     H_    0.503375 0.752592 0.669518 0.237409
H50   H     H_    0.529018 0.832476 0.714105 0.246109
C119  C     C_3   0.642332 0.084473 0.751808 -0.917599
H51   H     H_    0.628884 0.036814 0.717063 0.240638
H52   H     H_    0.685069 0.073604 0.796978 0.238635
H53   H     H_    0.609665 0.099490 0.794198 0.247205
C120  C     C_3   0.458302 0.792945 0.342805 -0.882169
H54   H     H_    0.491566 0.818640 0.394323 0.241755
H55   H     H_    0.468086 0.739360 0.353558 0.241177
H56   H     H_    0.464812 0.807247 0.273222 0.239898
C121  C     C_3   0.959289 0.707111 0.342622 -0.883982
H57   H     H_    0.992413 0.680940 0.393697 0.241880
H58   H     H_    0.965257 0.692994 0.272784 0.240182
H59   H     H_    0.969838 0.760548 0.353581 0.241353
C122  C     C_3   0.128395 0.405452 0.757420 -0.892082
H60   H     H_    0.082790 0.391095 0.762654 0.252579
H61   H     H_    0.154157 0.401701 0.827809 0.238613
H62   H     H_    0.129980 0.458197 0.736537 0.234558
C123  C     C_3   0.022603 0.699426 0.652423 -0.850416
H63   H     H_    0.989124 0.677780 0.597037 0.242278
H64   H     H_    0.028742 0.666694 0.713428 0.246179
H65   H     H_    0.003225 0.746816 0.669839 0.237358
C124  C     C_3   0.874557 0.414170 0.238399 -0.883015
H66   H     H_    0.918511 0.392171 0.238873 0.252738
H67   H     H_    0.851702 0.411721 0.166155 0.237217
H68   H     H_    0.878597 0.467399 0.257206 0.238144
C125  C     C_3   0.597014 0.677855 0.694185 -0.950634
H69   H     H_    0.578225 0.699948 0.750941 0.255398
H70   H     H_    0.566797 0.639204 0.659137 0.243561
H71   H     H_    0.638788 0.654602 0.728285 0.237371
C126  C     C_3   0.284754 0.190402 0.175463 -0.944565
H72   H     H_    0.313389 0.167551 0.131946 0.255240
H73   H     H_    0.238643 0.174656 0.150014 0.242383
H74   H     H_    0.288939 0.244601 0.165293 0.235721
C127  C     C_3   0.358550 0.713904 0.241662 -0.949170
H75   H     H_    0.400181 0.721132 0.216061 0.257737
H76   H     H_    0.357992 0.662546 0.268536 0.241628
H77   H     H_    0.322970 0.719838 0.180829 0.236125
C128  C     C_3   0.709751 0.208298 0.812609 -0.943977
H78   H     H_    0.690219 0.176256 0.859916 0.256133
H79   H     H_    0.758263 0.202669 0.828953 0.241667
H80   H     H_    0.697713 0.259751 0.827888 0.236600
C129  C     C_3   0.228707 0.313107 0.811615 -0.938170
H81   H     H_    0.244238 0.363314 0.835387 0.245141
H82   H     H_    0.198812 0.293168 0.855909 0.248287
H83   H     H_    0.269162 0.282904 0.822098 0.234468
C130  C     C_3   0.860386 0.787788 0.243281 -0.949247
H84   H     H_    0.901740 0.780247 0.217121 0.257682
H85   H     H_    0.824513 0.782563 0.182696 0.236189
H86   H     H_    0.860680 0.839004 0.270648 0.241482
C131  C     C_3   0.759443 0.347644 0.176623 -0.942982
H87   H     H_    0.755174 0.400088 0.153676 0.247303
H88   H     H_    0.785053 0.319357 0.133196 0.247708
H89   H     H_    0.713720 0.328828 0.164367 0.235779
C132  C     C_3   0.096635 0.822200 0.693723 -0.950680
H90   H     H_    0.078524 0.799520 0.751006 0.255189
H91   H     H_    0.138382 0.846073 0.727136 0.237220
H92   H     H_    0.065854 0.860433 0.659082 0.243513
C133  C     C_3   0.288598 0.115195 0.616435 -0.945333
H93   H     H_    0.288888 0.084688 0.554291 0.255665
H94   H     H_    0.332930 0.115947 0.660370 0.246266
H95   H     H_    0.257857 0.090023 0.654992 0.239135
C134  C     C_3   0.658283 0.839809 0.324412 -0.894362
H96   H     H_    0.615994 0.830090 0.347308 0.262380
H97   H     H_    0.672846 0.891502 0.340075 0.233571
H98   H     H_    0.649389 0.833333 0.248612 0.243700
C135  C     C_3   0.679936 0.153983 0.357030 -0.925720
H99   H     H_    0.687604 0.118762 0.415527 0.251829
H100  H     H_    0.632878 0.154964 0.323826 0.246570
H101  H     H_    0.705136 0.133488 0.306361 0.234587
C136  C     C_3   0.223718 0.935113 0.482626 -0.945084
H102  H     H_    0.252829 0.956881 0.543330 0.232454
H103  H     H_    0.242992 0.942288 0.419965 0.252854
H104  H     H_    0.181717 0.963104 0.470552 0.249501
C137  C     C_3   0.723897 0.566427 0.483279 -0.943052
H105  H     H_    0.743005 0.559480 0.420477 0.253372
H106  H     H_    0.752928 0.544455 0.543840 0.232051
H107  H     H_    0.681732 0.538506 0.471236 0.250297
C138  C     C_3   0.188675 0.359461 0.359392 -0.934116
H108  H     H_    0.142079 0.356768 0.324047 0.246543
H109  H     H_    0.194059 0.393642 0.418919 0.251642
H110  H     H_    0.214509 0.382170 0.310893 0.235688
C139  C     C_3   0.155719 0.662804 0.322128 -0.894015
H111  H     H_    0.170167 0.611074 0.337114 0.234464
H112  H     H_    0.113718 0.672204 0.345919 0.261841
H113  H     H_    0.146413 0.669844 0.246405 0.243853
C140  C     C_3   0.784339 0.393467 0.620464 -0.953675
H114  H     H_    0.828618 0.389570 0.664066 0.245525
H115  H     H_    0.786054 0.424965 0.559593 0.254981
H116  H     H_    0.754905 0.419342 0.660328 0.241051

loop_
_geom_bond_atom_site_label_1
_geom_bond_atom_site_label_2
_geom_bond_distance
_ccdc_geom_bond_type
O16   Zn4   1.918155 S    
C120  H56   1.105741 S    
C68   C76   1.401190 A    
C109  H1    1.085433 S    
C114  H28   1.111376 S    
C82   H14   1.083866 S    
C132  H90   1.109755 S    
C17   C49   1.423254 A    
C28   C119  1.513841 S    
O2    C2    1.310322 A    
N1    C89   1.348765 A    
C115  H31   1.111297 S    
C54   C74   1.403608 A    
C85   H10   1.081182 S    
Zn4   N3    2.046301 S    
C17   C125  1.515764 S    
C112  H4    1.085412 S    
C23   C31   1.424720 A    
C33   H38   1.080972 S    
C123  H65   1.107915 S    
C117  H46   1.109050 S    
C18   C50   1.421673 A    
O4    Zn1   1.950470 S    
C12   C28   1.418087 A    
C55   C75   1.398636 A    
C5    C16   1.483269 S    
C43   C59   1.427750 A    
C124  H66   1.109593 S    
C23   C131  1.518465 S    
C66   C134  1.508612 S    
C65   C133  1.512193 S    
C6    C15   1.473567 S    
C10   C34   1.377897 A    
O11   C3    1.316073 A    
C133  H93   1.109010 S    
C128  H78   1.106841 S    
C62   C69   1.425999 A    
C9    C33   1.396369 A    
C38   H41   1.077474 S    
C122  H62   1.110175 S    
C18   C126  1.517811 S    
C35   C43   1.397959 A    
C127  H75   1.106738 S    
C135  H99   1.108691 S    
C126  H74   1.110090 S    
C107  C111  1.393249 A    
Zn2   N1    2.046301 S    
C82   C86   1.385910 A    
C59   C64   1.413930 A    
C136  H102  1.110498 S    
Zn1   N2    2.046302 S    
C124  H68   1.109515 S    
C11   C35   1.393467 A    
O11   Zn1   1.918153 S    
C13   C29   1.423473 A    
C46   C54   1.419976 A    
C130  H85   1.110314 S    
Zn3   N4    2.046302 S    
C139  H113  1.111308 S    
C45   C53   1.414360 A    
C89   H6    1.073844 S    
C42   C50   1.411015 A    
C135  H100  1.110061 S    
C15   C39   1.382831 A    
C131  H87   1.110052 S    
C94   C98   1.417122 A    
C72   C140  1.509893 S    
C24   C56   1.423041 A    
C35   H40   1.077624 S    
C93   C97   1.417731 A    
C103  C108  1.428245 A    
C98   C110  1.389922 A    
C58   C65   1.427984 A    
C66   C74   1.395170 A    
C139  H112  1.109274 S    
O5    Zn3   1.945477 S    
C33   C41   1.399638 A    
C101  C106  1.428486 A    
C38   C46   1.398941 A    
O6    Zn4   1.945479 S    
C78   H22   1.082004 S    
C41   C57   1.423206 A    
C119  H52   1.110170 S    
C67   C75   1.397087 A    
C68   C136  1.511971 S    
C93   C101  1.420961 A    
C36   C44   1.379256 A    
O13   Zn4   1.915759 S    
O3    C3    1.297333 A    
C64   C71   1.421107 A    
C83   C99   1.397932 A    
O14   Zn3   1.915760 S    
C86   H9    1.081426 S    
C137  H105  1.109275 S    
C69   C137  1.511724 S    
C16   C32   1.420613 A    
C74   H18   1.081884 S    
C83   H15   1.083799 S    
C24   C32   1.422711 A    
C40   H43   1.081286 S    
O15   C7    1.309023 A    
C56   C76   1.405713 A    
O16   C8    1.317679 A    
N4    C92   1.349922 A    
C138  H108  1.110390 S    
O1    Zn1   1.945477 S    
C121  H58   1.105785 S    
O12   C4    1.309661 A    
C114  H29   1.104511 S    
C106  C110  1.393752 A    
C65   C73   1.391855 A    
C84   C100  1.398512 A    
C60   C63   1.413395 A    
C44   C60   1.415874 A    
C21   C29   1.422987 A    
C59   C68   1.426089 A    
C113  H26   1.105226 S    
C22   C130  1.518854 S    
C42   C58   1.406680 A    
O9    Zn2   1.915759 S    
C123  H63   1.109425 S    
C4    C9    1.483530 S    
C124  H67   1.104452 S    
C34   H37   1.082652 S    
C23   C55   1.418882 A    
C125  H71   1.110342 S    
C127  H76   1.110340 S    
C133  H94   1.109909 S    
C22   C54   1.424953 A    
C100  C112  1.390041 A    
C81   C97   1.398026 A    
C48   C64   1.421636 A    
C90   H5    1.075303 S    
C71   C139  1.508072 S    
C136  H103  1.109333 S    
C138  H109  1.108897 S    
C84   H16   1.083862 S    
C117  H47   1.109944 S    
C34   C42   1.379962 A    
C102  C105  1.427355 A    
C125  H69   1.108858 S    
C116  H34   1.111342 S    
C19   C27   1.418448 A    
C51   C79   1.403478 A    
C39   H44   1.081984 S    
C106  C114  1.508972 S    
O7    Zn4   1.950468 S    
C92   C96   1.405412 A    
C36   H39   1.080244 S    
O12   Zn2   1.918155 S    
C131  H88   1.110197 S    
O5    C5    1.313835 A    
C77   H21   1.082523 S    
C118  H50   1.106080 S    
N3    C91   1.349223 A    
C126  H72   1.106893 S    
N2    C90   1.349239 A    
C46   C62   1.428710 A    
C92   H7    1.074238 S    
C129  H82   1.110555 S    
C80   H24   1.081985 S    
C39   C47   1.382719 A    
O15   Zn3   1.918153 S    
C108  C112  1.393908 A    
C119  H53   1.109964 S    
C82   C98   1.398513 A    
C81   C85   1.385974 A    
C139  H111  1.106667 S    
C140  H116  1.111095 S    
C37   H42   1.080577 S    
O2    Zn2   1.945479 S    
C47   C63   1.409439 A    
C120  H55   1.110588 S    
C30   C121  1.518472 S    
O14   C6    1.318618 A    
C90   C94   1.405361 A    
C116  H35   1.109808 S    
C24   C132  1.515627 S    
C22   C30   1.418824 A    
C105  C109  1.392933 A    
C61   C70   1.434995 A    
O10   Zn1   1.915760 S    
C25   C118  1.515749 S    
C43   C51   1.420454 A    
C57   C66   1.421593 A    
C114  H30   1.110109 S    
C91   C95   1.404807 A    
C132  H91   1.110675 S    
C15   C31   1.427893 A    
C101  C102  1.423782 A    
C128  H79   1.110305 S    
C121  H59   1.110547 S    
C89   C93   1.404880 A    
C130  H86   1.110306 S    
C70   C138  1.512109 S    
C79   H23   1.081956 S    
C76   H20   1.082513 S    
C17   C25   1.422499 A    
C127  H77   1.110354 S    
C104  C107  1.427416 A    
O8    Zn3   1.950470 S    
C113  H27   1.109121 S    
C72   C80   1.391546 A    
N4    C88   1.355454 A    
C52   C80   1.397281 A    
C116  H36   1.104579 S    
O9    C1    1.313996 A    
C118  H48   1.109068 S    
C20   C28   1.418959 A    
C122  H60   1.109622 S    
C91   H8    1.072487 S    
C107  C115  1.508520 S    
C133  H95   1.111224 S    
C13   C37   1.379531 A    
C20   C52   1.422495 A    
C99   C111  1.389449 A    
C137  H107  1.111171 S    
C138  H110  1.112082 S    
C83   C87   1.386311 A    
C10   C26   1.422430 A    
O3    Zn2   1.950468 S    
C19   C127  1.518788 S    
C37   C45   1.377523 A    
C16   C40   1.395610 A    
C110  H2    1.085433 S    
C14   C30   1.413261 A    
C96   C104  1.420192 A    
C103  C104  1.423552 A    
C2    C11   1.470982 S    
N3    C87   1.354118 A    
C95   C99   1.417146 A    
C125  H70   1.110113 S    
C81   H13   1.083811 S    
C111  H3    1.085411 S    
O1    C1    1.297564 A    
C8    C13   1.463649 S    
C136  H104  1.111161 S    
C88   H11   1.080995 S    
C121  H57   1.107912 S    
C131  H89   1.106397 S    
C41   C49   1.412408 A    
C135  H101  1.111673 S    
C134  H98   1.111318 S    
C140  H115  1.108455 S    
C32   C123  1.515581 S    
C20   C128  1.517738 S    
C126  H73   1.110383 S    
C137  H106  1.110066 S    
C113  H25   1.111255 S    
C87   H12   1.080605 S    
O13   C5    1.310024 A    
C48   C56   1.412180 A    
C58   C61   1.410930 A    
C31   C124  1.516488 S    
C117  H45   1.109839 S    
C134  H96   1.109210 S    
C21   C129  1.519352 S    
C57   C62   1.415271 A    
O10   C2    1.309189 A    
C95   C103  1.421042 A    
O7    C7    1.311353 A    
C53   C73   1.398122 A    
C105  C113  1.509032 S    
C73   H17   1.081437 S    
C67   C135  1.514794 S    
C123  H64   1.106273 S    
C12   C36   1.379648 A    
C122  H61   1.104728 S    
C75   H19   1.081850 S    
C108  C116  1.508894 S    
C44   C52   1.416217 A    
C26   C117  1.514005 S    
C120  H54   1.108116 S    
C129  H83   1.105201 S    
C130  H84   1.106712 S    
C18   C26   1.420327 A    
N2    C86   1.355706 A    
C96   C100  1.416917 A    
C29   C122  1.516887 S    
C21   C53   1.421604 A    
C128  H80   1.110038 S    
O4    C4    1.314501 A    
C60   C67   1.435697 A    
C84   C88   1.386094 A    
C47   C55   1.407526 A    
O8    C8    1.297830 A    
C40   C48   1.398882 A    
C63   C72   1.427255 A    
C119  H51   1.108152 S    
C134  H97   1.107147 S    
C132  H92   1.110802 S    
C69   C77   1.400684 A    
C14   C38   1.394318 A    
C1    C12   1.454985 S    
C19   C51   1.424611 A    
C45   C61   1.414446 A    
C27   C120  1.518477 S    
C11   C27   1.413143 A    
C115  H33   1.104802 S    
C94   C102  1.419684 A    
C97   C109  1.389442 A    
C71   C79   1.394885 A    
C140  H114  1.109682 S    
C3    C10   1.460676 S    
N1    C85   1.354479 A    
C70   C78   1.396460 A    
C7    C14   1.472793 S    
C9    C25   1.420159 A    
C50   C78   1.398264 A    
C129  H81   1.110191 S    
C49   C77   1.405256 A    
C118  H49   1.107359 S    
C115  H32   1.108676 S    
O6    C6    1.300800 A    
