data_mof_unit_62404.cif
_audit_creation_date              2012-12-10T19:54:27-0500
_audit_creation_method            fapswitch 2.2
_symmetry_space_group_name_H-M    P1
_symmetry_Int_Tables_number       1
_space_group_crystal_system       triclinic
_cell_length_a                    15.745504
_cell_length_b                    14.978097
_cell_length_c                    14.289083
_cell_angle_alpha                 90.07155
_cell_angle_beta                  90.568427
_cell_angle_gamma                 91.274235
_cell_volume                      3368.90149298

loop_
_atom_site_label
_atom_site_type_symbol
_atom_type_description
_atom_site_fract_x
_atom_site_fract_y
_atom_site_fract_z
_atom_type_partial_charge
C1    C     C_R   0.500429 0.328461 0.499854 0.968692
C2    C     C_R   0.469707 0.910366 0.576752 -0.156503
C3    C     C_R   0.482717 0.049960 0.489414 -0.074093
C4    C     C_R   0.479726 0.953617 0.491042 -0.070363
C5    C     C_R   0.432384 0.456687 0.106043 0.309567
C6    C     C_R   0.567531 0.542849 0.894192 0.307579
C7    C     C_R   0.441098 0.449127 0.204265 0.350796
C8    C     C_R   0.559260 0.550305 0.795902 0.373463
C9    C     C_R   0.549604 0.560137 0.204955 0.328736
C10   C     C_R   0.450036 0.440093 0.794923 0.336935
C11   C     C_R   0.544610 0.566372 0.106955 0.575128
C12   C     C_R   0.497714 0.672511 0.500248 0.959958
C13   C     C_R   0.454692 0.433905 0.892945 0.570751
C14   C     C_R   0.495262 0.504144 0.053650 -0.154973
C15   C     C_R   0.504189 0.495888 0.946389 -0.155000
C16   C     C_R   0.338097 0.499749 0.499576 0.880088
C17   C     C_R   0.661895 0.500033 0.500420 0.910238
C18   C     C_3   0.970348 0.416949 0.520744 0.541774
C19   C     C_3   0.029556 0.580497 0.479129 0.533919
C20   C     C_3   0.025753 0.440602 0.435764 0.549533
C21   C     C_3   0.974184 0.556849 0.564102 0.545511
C22   C     C_1   0.249359 0.499233 0.498739 -0.039141
C23   C     C_R   0.425799 0.190241 0.536530 -0.244363
C24   C     C_1   0.750606 0.499603 0.501232 -0.024479
C25   C     C_3   0.028599 0.474782 0.584823 0.179769
C26   C     C_3   0.971328 0.522673 0.415052 0.182711
C27   C     C_3   0.083530 0.498510 0.499565 -0.449715
C28   C     C_3   0.916396 0.498952 0.500308 -0.450793
C29   C     C_1   0.174201 0.498812 0.498708 0.300370
C30   C     C_1   0.825742 0.499219 0.501213 0.306123
C31   C     C_R   0.418085 0.098338 0.531271 0.719410
C32   C     C_R   0.492875 0.905218 0.409124 0.710830
C33   C     C_R   0.498723 0.813552 0.413697 -0.255211
C34   C     C_R   0.497002 0.233351 0.498696 -0.226283
C35   C     C_R   0.490596 0.769162 0.499824 -0.256977
C36   C     C_R   0.561294 0.185572 0.455466 0.384435
C37   C     C_R   0.473819 0.818382 0.582043 0.419860
C38   C     C_R   0.554176 0.093470 0.451827 -0.138467
Cl1   Cl    Cl    0.619315 0.633778 0.265024 -0.387576
Cl2   Cl    Cl    0.629935 0.621642 0.735295 -0.351291
Cl3   Cl    Cl    0.380821 0.366097 0.734641 -0.389555
Cl4   Cl    Cl    0.932519 0.554375 0.302711 -0.269682
Cl5   Cl    Cl    0.067413 0.443063 0.697155 -0.272010
Cl6   Cl    Cl    0.652443 0.238713 0.408736 -0.451308
Cl7   Cl    Cl    0.455518 0.770787 0.693214 -0.419645
Cl8   Cl    Cl    0.328663 0.436802 0.060347 -0.277419
Cl9   Cl    Cl    0.671087 0.562395 0.940535 -0.280713
Cl10  Cl    Cl    0.371816 0.376419 0.265039 -0.369895
F1    F     F_    0.053715 0.380452 0.370026 -0.496176
F2    F     F_    0.946237 0.617005 0.629843 -0.499314
F3    F     F_    0.576836 0.641810 0.067316 -0.517656
F4    F     F_    0.422227 0.358510 0.932416 -0.520279
F5    F     F_    0.938428 0.332672 0.541726 -0.504034
F6    F     F_    0.061436 0.664787 0.458134 -0.511874
F7    F     F_    0.347809 0.056688 0.566244 -0.577348
F8    F     F_    0.500596 0.946751 0.325093 -0.580075
H1    H     H_    0.375626 0.227989 0.568204 0.229952
H2    H     H_    0.510035 0.777623 0.349387 0.249047
H3    H     H_    0.604979 0.055690 0.421457 0.232916
H4    H     H_    0.460083 0.948565 0.640121 0.234316
N1    N     N_R   0.500000 0.499980 0.252470 -0.226702
N2    N     N_R   0.500000 0.500020 0.747530 -0.226565
O1    O     O_R   0.500010 0.369070 0.579480 -0.589908
O2    O     O_R   0.499990 0.630930 0.420520 -0.604431
O3    O     O_R   0.500010 0.369060 0.420520 -0.554177
O4    O     O_R   0.499990 0.630940 0.579480 -0.543681
O5    O     O_R   0.376780 0.500000 0.579460 -0.572769
O6    O     O_R   0.623220 0.500000 0.420540 -0.562670
O7    O     O_R   0.376780 0.499990 0.420510 -0.578497
O8    O     O_R   0.623220 0.500010 0.579490 -0.580638
Zn1   Zn    Zn3+2 0.500000 0.500010 0.606140 1.113036
Zn2   Zn    Zn3+2 0.500000 0.499990 0.393860 1.106808

loop_
_geom_bond_atom_site_label_1
_geom_bond_atom_site_label_2
_ccdc_geom_bond_type
C33   H2    S    
C22   C29   T    
C27   C29   S    
C25   Cl5   S    
C26   Cl4   S    
C9    N1    A    
C35   C37   A    
C12   O2    A    
C11   C14   A    
C2    H4    S    
C9    Cl1   S    
C18   C20   S    
C19   C26   S    
C7    N1    A    
C18   F5    S    
C6    C15   A    
C3    C38   A    
C1    O3    A    
O8    Zn1   S    
C19   C27   S    
C34   C36   A    
C17   O8    A    
C10   Cl3   S    
C10   N2    A    
C18   C25   S    
C1    O1    A    
C21   F2    S    
C1    C34   S    
C17   C24   S    
C6    Cl9   S    
C18   C28   S    
C5    C7    A    
C6    C8    A    
C12   O4    A    
C23   C31   A    
O7    Zn2   S    
C2    C4    A    
C20   F1    S    
C13   F4    S    
O4    Zn1   S    
O6    Zn2   S    
C23   C34   A    
C16   O5    A    
C12   C35   S    
C3    C31   A    
C9    C11   A    
C5    C14   A    
C4    C32   A    
C19   F6    S    
C21   C28   S    
O1    Zn1   S    
C13   C15   A    
C36   Cl6   S    
C37   Cl7   S    
C3    C4    S    
N1    Zn2   S    
C23   H1    S    
C21   C25   S    
C17   O6    A    
C16   C22   S    
C19   C21   S    
C16   O7    A    
C10   C13   A    
C20   C27   S    
C25   C27   S    
O3    Zn2   S    
C5    Cl8   S    
C26   C28   S    
C7    Cl10  S    
C36   C38   A    
C32   C33   A    
C2    C37   A    
C20   C26   S    
C28   C30   S    
C33   C35   A    
N2    Zn1   S    
O5    Zn1   S    
O2    Zn2   S    
C24   C30   T    
C11   F3    S    
C38   H3    S    
C14   C15   S    
C8    Cl2   S    
C31   F7    S    
C32   F8    S    
C8    N2    A    
