data_mof_unit_35280.cif
_audit_creation_date              2012-12-11T15:52:11-0500
_audit_creation_method            fapswitch 2.2
_symmetry_space_group_name_H-M    P1
_symmetry_Int_Tables_number       1
_space_group_crystal_system       triclinic
_cell_length_a                    11.036553
_cell_length_b                    11.027475
_cell_length_c                    18.896743
_cell_angle_alpha                 90.099445
_cell_angle_beta                  89.868939
_cell_angle_gamma                 119.938363
_cell_volume                      1992.94488516

loop_
_atom_site_label
_atom_site_type_symbol
_atom_type_description
_atom_site_fract_x
_atom_site_fract_y
_atom_site_fract_z
_atom_type_partial_charge
C1    C     C_R   0.520619 0.451434 0.145024 0.536190
C2    C     C_R   0.548461 0.069408 0.144885 0.535245
C3    C     C_R   0.885689 0.459509 0.139565 0.543775
C4    C     C_R   0.457894 0.519467 0.852296 0.539053
C5    C     C_R   0.059832 0.541470 0.851772 0.536525
C6    C     C_R   0.480359 0.938932 0.852212 0.536416
C7    C     C_3   0.742707 0.146654 0.551565 -0.275426
C8    C     C_3   0.853355 0.596395 0.551911 -0.275135
C9    C     C_3   0.403670 0.257060 0.551455 -0.275601
C10   C     C_3   0.841765 0.601626 0.472661 -0.237097
C11   C     C_3   0.759473 0.158482 0.472296 -0.236561
C12   C     C_3   0.398331 0.240295 0.472191 -0.236346
C13   C     C_R   0.517446 0.457962 0.352866 0.540457
C14   C     C_R   0.542085 0.059612 0.352886 0.540320
C15   C     C_R   0.940407 0.482503 0.352878 0.545628
C16   C     C_R   0.456504 0.523010 0.644844 0.541324
C17   C     C_R   0.066530 0.543452 0.644838 0.541466
C18   C     C_R   0.476968 0.933394 0.644843 0.541649
C19   C     C_R   0.503770 0.007604 0.920965 -0.008689
C20   C     C_R   0.985026 0.495482 0.918950 -0.007529
C21   C     C_R   0.500918 0.495714 0.921388 -0.009364
C22   C     C_R   0.927706 0.479453 0.065190 -0.019786
C23   C     C_R   0.531303 0.033943 0.069451 -0.019331
C24   C     C_R   0.499820 0.467703 0.069872 -0.018148
C25   C     C_R   0.388779 0.973522 0.965143 0.028120
C26   C     C_R   0.015347 0.413870 0.964214 0.027385
C27   C     C_R   0.579365 0.610824 0.965638 0.026012
C28   C     C_R   0.984579 0.403594 0.035671 0.020554
C29   C     C_R   0.402987 0.990499 0.037743 0.016228
C30   C     C_R   0.580462 0.596348 0.038230 0.014335
C31   C     C_R   0.650537 0.072455 0.025195 -0.068269
C32   C     C_R   0.899752 0.566223 0.020654 -0.076229
C33   C     C_R   0.419557 0.348273 0.025702 -0.065584
C34   C     C_R   0.913887 0.561793 0.946907 -0.069641
C35   C     C_R   0.638225 0.073334 0.951222 -0.073115
C36   C     C_R   0.431984 0.361019 0.951684 -0.073362
C37   C     C_3   0.253151 0.839631 0.971411 -0.234749
C38   C     C_3   0.151682 0.419731 0.976311 -0.243772
C39   C     C_3   0.575910 0.743851 0.972169 -0.234150
C40   C     C_3   0.121415 0.414336 0.054591 -0.258318
C41   C     C_3   0.270115 0.856188 0.050760 -0.269852
C42   C     C_3   0.572456 0.725400 0.051497 -0.273897
C43   C     C_R   0.483341 0.975017 0.571358 -0.022130
C44   C     C_R   0.024792 0.508068 0.571340 -0.021975
C45   C     C_R   0.491853 0.516695 0.571319 -0.022110
C46   C     C_R   0.001262 0.508831 0.423252 -0.011883
C47   C     C_R   0.507593 0.998785 0.423289 -0.011128
C48   C     C_R   0.490938 0.492574 0.423265 -0.011160
C49   C     C_R   0.608563 0.016263 0.538387 0.027864
C50   C     C_R   0.983615 0.592239 0.538573 0.028384
C51   C     C_R   0.407710 0.391513 0.538436 0.028084
C52   C     C_R   0.972680 0.593795 0.466868 0.037176
C53   C     C_R   0.621028 0.027406 0.466682 0.038024
C54   C     C_R   0.406025 0.379098 0.466728 0.037453
C55   C     C_R   0.373984 0.942241 0.454057 -0.079302
C56   C     C_R   0.057611 0.431406 0.453814 -0.079326
C57   C     C_R   0.568293 0.626229 0.453978 -0.079148
C58   C     C_R   0.063689 0.425738 0.528625 -0.065219
C59   C     C_R   0.362228 0.936129 0.528872 -0.065144
C60   C     C_R   0.574034 0.637908 0.528781 -0.065203
Cr1   Cr    Cr6+3 0.769160 0.541570 0.250690 1.073692
Cr2   Cr    Cr6+3 0.458430 0.227590 0.250690 1.073466
Cr3   Cr    Cr6+3 0.772410 0.230840 0.250690 1.073824
Cr4   Cr    Cr6+3 0.541570 0.769160 0.749310 1.079159
Cr5   Cr    Cr6+3 0.227590 0.458430 0.749310 1.079150
Cr6   Cr    Cr6+3 0.230840 0.772410 0.749310 1.077792
H1    H     H_    0.258822 0.748043 0.951256 0.123118
H2    H     H_    0.243387 0.520084 0.959432 0.117674
H3    H     H_    0.478280 0.735497 0.951041 0.122557
H4    H     H_    0.109863 0.319408 0.080855 0.194702
H5    H     H_    0.188624 0.871428 0.076838 0.197488
H6    H     H_    0.666277 0.807089 0.079060 0.194449
H7    H     H_    0.164273 0.849983 0.951220 0.185823
H8    H     H_    0.149827 0.323981 0.956408 0.183149
H9    H     H_    0.674692 0.834417 0.952789 0.184790
H10   H     H_    0.193035 0.513491 0.082556 0.125223
H11   H     H_    0.287785 0.775467 0.076141 0.119393
H12   H     H_    0.471538 0.702895 0.075888 0.117444
H13   H     H_    0.818658 0.125286 0.578832 0.199328
H14   H     H_    0.874755 0.693668 0.579461 0.199579
H15   H     H_    0.306547 0.181309 0.579009 0.199394
H16   H     H_    0.749267 0.507089 0.451034 0.131537
H17   H     H_    0.757231 0.251065 0.450838 0.131358
H18   H     H_    0.492842 0.242245 0.450391 0.132140
H19   H     H_    0.728463 0.230764 0.575776 0.115370
H20   H     H_    0.769213 0.498132 0.575939 0.115330
H21   H     H_    0.501924 0.271004 0.575298 0.115257
H22   H     H_    0.858829 0.703918 0.453269 0.185457
H23   H     H_    0.844673 0.141516 0.452624 0.185427
H24   H     H_    0.296141 0.155217 0.452785 0.185512
O1    O     O_R   0.911480 0.572650 0.170990 -0.497585
O2    O     O_R   0.427350 0.338830 0.170990 -0.502334
O3    O     O_R   0.661170 0.088520 0.170990 -0.506863
O4    O     O_R   0.572650 0.911480 0.829010 -0.509001
O5    O     O_R   0.338830 0.427350 0.829010 -0.507678
O6    O     O_R   0.088520 0.661170 0.829010 -0.511565
O7    O     O_R   0.640340 0.528970 0.175680 -0.495359
O8    O     O_R   0.471030 0.111370 0.175680 -0.485822
O9    O     O_R   0.888630 0.359660 0.175680 -0.485587
O10   O     O_R   0.528970 0.640340 0.824320 -0.486488
O11   O     O_R   0.111370 0.471030 0.824320 -0.485531
O12   O     O_R   0.359660 0.888630 0.824320 -0.487331
O13   O     O_R   0.909980 0.572450 0.331530 -0.489019
O14   O     O_R   0.427550 0.337530 0.331530 -0.490590
O15   O     O_R   0.662470 0.090020 0.331530 -0.491255
O16   O     O_R   0.572450 0.909980 0.668470 -0.486129
O17   O     O_R   0.337530 0.427550 0.668470 -0.486641
O18   O     O_R   0.090020 0.662470 0.668470 -0.486439
O19   O     O_R   0.638950 0.528780 0.324500 -0.502409
O20   O     O_R   0.471220 0.110170 0.324500 -0.501625
O21   O     O_R   0.889830 0.361050 0.324500 -0.499964
O22   O     O_R   0.528780 0.638950 0.675500 -0.496461
O23   O     O_R   0.110170 0.471220 0.675500 -0.496787
O24   O     O_R   0.361050 0.889830 0.675500 -0.496769
O25   O     O_3   0.666667 0.333333 0.250560 -0.302755
O26   O     O_3   0.333333 0.666667 0.749440 -0.289783
C61   C     C_1   0.778612 0.085035 0.053200 0.231520
N1    N     N_1   0.878976 0.090998 0.075504 -0.261678
C62   C     C_1   0.888896 0.681847 0.050064 0.233054
N2    N     N_1   0.885145 0.776772 0.073701 -0.259875
C63   C     C_1   0.306327 0.218835 0.054057 0.239664
N3    N     N_1   0.213920 0.117204 0.076710 -0.262198
C64   C     C_1   0.870722 0.639509 0.901453 0.224060
N4    N     N_1   0.837537 0.702040 0.864976 -0.261043
C65   C     C_1   0.761649 0.122072 0.906796 0.223296
N5    N     N_1   0.858847 0.158812 0.870865 -0.261841
C66   C     C_1   0.358615 0.237411 0.907317 0.224234
N6    N     N_1   0.299321 0.139963 0.871467 -0.263692
C67   C     C_1   0.252708 0.902443 0.409789 0.205485
N7    N     N_1   0.156353 0.871648 0.374257 -0.255592
C68   C     C_1   0.097369 0.349689 0.409339 0.205999
N8    N     N_1   0.128151 0.283942 0.373648 -0.255811
C69   C     C_1   0.650033 0.747553 0.409641 0.205484
N9    N     N_1   0.715807 0.843932 0.374048 -0.256648
C70   C     C_1   0.086659 0.319476 0.560105 0.228533
N10   N     N_1   0.100568 0.231637 0.585241 -0.265459
C71   C     C_1   0.233072 0.913220 0.560549 0.229014
N11   N     N_1   0.131369 0.899373 0.585813 -0.264933
C72   C     C_1   0.680260 0.767008 0.560341 0.228851
N12   N     N_1   0.768076 0.868661 0.585504 -0.265226

loop_
_geom_bond_atom_site_label_1
_geom_bond_atom_site_label_2
_ccdc_geom_bond_type
C45   C60   A    
C34   C64   S    
Cr4   O26   S    
C55   C59   A    
Cr6   O12   S    
C44   C58   A    
C9    C51   S    
Cr5   O11   S    
C10   C52   S    
C18   O24   A    
C17   O23   A    
C64   N4    T    
C21   C36   A    
C7    H19   S    
C48   C54   A    
C6    C19   S    
C10   H22   S    
C7    H13   S    
Cr6   O26   S    
C37   C41   S    
C23   C29   A    
C12   H24   S    
Cr1   O13   S    
Cr1   O1    S    
C41   H11   S    
Cr4   O22   S    
C45   C51   A    
C46   C52   A    
C33   C36   A    
C9    H15   S    
C12   H18   S    
C3    O1    A    
Cr3   O9    S    
C35   C65   S    
C31   C61   S    
C13   O19   A    
C16   O17   A    
C25   C37   S    
Cr2   O8    S    
C14   O15   A    
C27   C39   S    
C6    O4    A    
Cr2   O2    S    
Cr1   O25   S    
C50   C52   A    
C39   H9    S    
Cr3   O15   S    
C11   C53   S    
C43   C59   A    
C47   C53   A    
Cr3   O25   S    
C70   N10   T    
C21   C27   A    
Cr1   O19   S    
C22   C28   A    
C27   C30   A    
C33   C63   S    
C57   C69   S    
C39   C42   S    
Cr2   O14   S    
C25   C29   A    
C5    O11   A    
Cr6   O6    S    
C15   O21   A    
C48   C57   A    
C7    C49   S    
C17   O18   A    
C1    O7    A    
C5    C20   S    
C26   C38   S    
C57   C60   A    
C55   C67   S    
C10   H16   S    
C40   H10   S    
C23   C31   A    
C7    C11   S    
C18   O16   A    
C4    O5    A    
C11   H23   S    
Cr2   O20   S    
Cr5   O5    S    
C72   N12   T    
C42   H6    S    
C39   H3    S    
Cr1   O7    S    
C13   O14   A    
C63   N3    T    
C22   C32   A    
C38   H2    S    
C42   H12   S    
C1    O2    A    
C4    O10   A    
C69   N9    T    
Cr5   O26   S    
C31   C35   A    
C36   C66   S    
C32   C62   S    
C66   N6    T    
C8    C50   S    
C5    O6    A    
C16   O22   A    
C47   C55   A    
C67   N7    T    
C38   H8    S    
C44   C50   A    
C14   O20   A    
C37   H7    S    
Cr6   O24   S    
C29   C41   S    
Cr5   O23   S    
C2    O3    A    
C43   C49   A    
Cr6   O18   S    
C16   C45   S    
C13   C48   S    
C62   N2    T    
Cr4   O16   S    
C14   C47   S    
C58   C70   S    
C71   N11   T    
Cr3   O3    S    
C40   H4    S    
C26   C28   A    
C24   C33   A    
C41   H5    S    
C51   C54   A    
C11   H17   S    
C17   C44   S    
C20   C34   A    
Cr2   O25   S    
C19   C35   A    
C18   C43   S    
C9    H21   S    
C38   C40   S    
C4    C21   S    
C65   N5    T    
C20   C26   A    
C49   C53   A    
C37   H1    S    
C56   C58   A    
C8    H20   S    
C6    O12   A    
Cr3   O21   S    
C19   C25   A    
C9    C12   S    
C24   C30   A    
C56   C68   S    
C60   C72   S    
Cr4   O4    S    
C3    O9    A    
Cr4   O10   S    
C2    O8    A    
C1    C24   S    
C8    C10   S    
C46   C56   A    
C2    C23   S    
C8    H14   S    
C28   C40   S    
C30   C42   S    
C3    C22   S    
C15   C46   S    
C15   O13   A    
C61   N1    T    
Cr5   O17   S    
C59   C71   S    
C12   C54   S    
C68   N8    T    
C32   C34   A    
