data_mof_unit_41234.cif
_audit_creation_date              2012-12-11T16:53:42-0500
_audit_creation_method            fapswitch 2.2
_symmetry_space_group_name_H-M    P1
_symmetry_Int_Tables_number       1
_space_group_crystal_system       triclinic
_cell_length_a                    14.840205
_cell_length_b                    14.785606
_cell_length_c                    17.026398
_cell_angle_alpha                 108.953665
_cell_angle_beta                  106.341366
_cell_angle_gamma                 108.216288
_cell_volume                      3036.2132092

loop_
_atom_site_label
_atom_site_type_symbol
_atom_type_description
_atom_site_fract_x
_atom_site_fract_y
_atom_site_fract_z
_atom_type_partial_charge
Br1   Br    Br    0.179970 0.545754 0.357725 -0.468824
Br2   Br    Br    0.132858 0.762253 0.441459 -0.523400
Br3   Br    Br    0.710582 0.403199 0.416409 -0.531479
Br4   Br    Br    0.496000 0.692686 0.356035 -0.485820
Br5   Br    Br    0.770676 0.836685 0.062263 -0.582773
Br6   Br    Br    0.292174 0.313988 0.283405 -0.426081
C1    C     C_R   0.087445 0.286793 0.077696 -0.141045
C2    C     C_R   0.061771 0.535686 0.266104 0.364219
C3    C     C_R   0.280812 0.783693 0.173858 -0.126662
C4    C     C_R   0.932872 0.520909 0.748943 -0.149745
C5    C     C_R   0.697452 0.406073 0.996017 -0.113415
C6    C     C_R   0.339313 0.780517 0.251051 0.070314
C7    C     C_R   0.638162 0.438427 0.943183 0.074973
C8    C     C_R   0.967573 0.525083 0.272944 0.050759
C9    C     C_R   0.995517 0.822430 0.984717 0.038411
C10   C     C_R   0.386179 0.452495 0.866234 0.163824
C11   C     C_R   0.341541 0.409077 0.915957 0.036797
C12   C     C_R   0.022076 0.580989 0.745439 0.073905
C13   C     C_R   0.372622 0.336983 0.938909 -0.171570
C14   C     C_R   0.464778 0.333634 0.935687 -0.168904
C15   C     C_R   0.524829 0.401940 0.908931 0.031410
C16   C     C_R   0.774474 0.200645 0.811137 -0.125871
C17   C     C_R   0.476407 0.448226 0.862225 0.142832
C18   C     C_3   0.518586 0.556369 0.866051 -0.463775
C19   C     C_3   0.420695 0.561786 0.871176 -0.495638
C20   C     C_R   0.949683 0.555878 0.355621 -0.002512
C21   C     C_R   0.021186 0.615924 0.674374 0.105686
C22   C     C_R   0.108699 0.713078 0.606520 -0.079753
C23   C     C_R   0.755985 0.195809 0.724324 0.062298
C24   C     C_R   0.109464 0.696182 0.682696 -0.189175
C25   C     C_R   0.930221 0.559254 0.592440 -0.170077
C26   C     C_R   0.929749 0.570650 0.515189 0.015198
C27   C     C_R   0.021366 0.646042 0.520778 0.027081
C28   C     C_R   0.250927 0.527066 0.943031 -0.134592
C29   C     C_R   0.026456 0.644326 0.439315 0.301059
C30   C     C_R   0.855455 0.489622 0.351498 -0.252973
C31   C     C_R   0.843011 0.499757 0.430436 0.330138
C32   C     C_R   0.714426 0.101761 0.635827 0.120815
C33   C     C_R   0.449148 0.856042 0.315639 0.029235
C34   C     C_R   0.281510 0.452748 0.957791 0.057792
C35   C     C_R   0.575956 0.041816 0.396353 -0.171381
C36   C     C_R   0.487777 0.958338 0.320571 -0.176925
C37   C     C_R   0.510450 0.835033 0.381469 0.237420
C38   C     C_R   0.589662 0.922003 0.464480 0.073950
C39   C     C_R   0.620669 0.025813 0.471346 0.129991
C40   C     C_R   0.780348 0.298817 0.735288 -0.118105
C41   C     C_R   0.687712 0.113786 0.555359 -0.212830
C42   C     C_R   0.690834 0.999221 0.629164 -0.185495
C43   C     C_R   0.631373 0.909648 0.543402 -0.110249
C44   C     C_R   0.083477 0.142494 0.171969 0.107275
C45   C     C_R   0.275493 0.690207 0.251968 -0.008994
C46   C     C_R   0.996667 0.120573 0.095294 -0.044360
C47   C     C_R   0.901562 0.031010 0.066528 -0.271747
C48   C     C_R   0.898162 0.960326 0.106032 0.315621
C49   C     C_R   0.989715 0.976055 0.173132 0.074510
C50   C     C_R   0.079475 0.070833 0.208710 0.059132
C51   C     C_3   0.189234 0.088924 0.227965 -0.503108
C52   C     C_R   0.250591 0.434389 0.023523 -0.070621
C53   C     C_3   0.195614 0.168728 0.188899 0.159521
C54   C     C_R   0.106130 0.605681 0.823408 -0.138110
C55   C     C_R   0.914871 0.202069 0.001050 -0.127517
C56   C     C_R   0.704141 0.501075 0.918718 -0.091033
C57   C     C_R   0.000774 0.193733 0.052056 0.097231
C58   C     C_R   0.887954 0.462687 0.185391 -0.179965
C59   C     C_R   0.083084 0.806979 0.020430 -0.126824
C60   C     C_R   0.910041 0.722321 0.943560 -0.050229
H1    H     H_    0.164855 0.316277 0.129572 0.161032
H2    H     H_    0.862745 0.496400 0.585283 0.158944
H3    H     H_    0.708436 0.191483 0.557368 0.127026
H4    H     H_    0.764358 0.135258 0.828535 0.100202
H5    H     H_    0.600831 0.121171 0.400665 0.170343
H6    H     H_    0.610065 0.831594 0.541171 0.184440
H7    H     H_    0.445942 0.976726 0.269568 0.142121
H8    H     H_    0.256574 0.556127 0.893540 0.112965
H9    H     H_    0.206821 0.145110 0.124658 0.085769
H10   H     H_    0.260922 0.380292 0.051131 0.107059
H11   H     H_    0.186191 0.664125 0.849226 0.092585
H12   H     H_    0.681525 0.524371 0.865220 0.097631
H13   H     H_    0.804976 0.436799 0.164913 0.132704
H14   H     H_    0.164006 0.865510 0.051122 0.093924
H15   H     H_    0.309545 0.834650 0.144325 0.095620
H16   H     H_    0.590155 0.616524 0.929967 0.245337
H17   H     H_    0.853409 0.504930 0.710323 0.105600
H18   H     H_    0.438202 0.625260 0.938261 0.216891
H19   H     H_    0.792724 0.424642 0.287459 0.174220
H20   H     H_    0.179937 0.742711 0.746417 0.121806
H21   H     H_    0.713804 0.987675 0.689995 0.126842
H22   H     H_    0.830661 0.012678 0.011067 0.167606
H23   H     H_    0.829634 0.702217 0.903194 0.119991
H24   H     H_    0.239167 0.125129 0.302742 0.243470
H25   H     H_    0.194341 0.017462 0.185312 0.165562
H26   H     H_    0.776926 0.327434 0.684498 0.105761
H27   H     H_    0.833857 0.154253 0.983932 0.099525
H28   H     H_    0.298147 0.657193 0.297037 0.196802
H29   H     H_    0.668376 0.343683 0.015083 0.090786
H30   H     H_    0.335130 0.294514 0.970743 0.131742
H31   H     H_    0.494562 0.288626 0.965261 0.130820
H32   H     H_    0.523495 0.552836 0.801243 0.202322
H33   H     H_    0.369476 0.562181 0.809563 0.201843
H34   H     H_    0.179723 0.772032 0.613714 0.174694
N1    N     N_R   0.055640 0.348550 0.045600 -0.047412
N2    N     N_R   0.811290 0.303400 0.871650 -0.044539
N3    N     N_R   0.205180 0.552990 0.997660 -0.046459
N4    N     N_R   0.814810 0.361830 0.823710 -0.046536
N5    N     N_R   0.201660 0.494570 0.045600 -0.043319
N6    N     N_R   0.068420 0.560530 0.871650 -0.041466
N7    N     N_R   0.948050 0.295860 0.997660 -0.045789
N8    N     N_R   0.185190 0.638170 0.176290 -0.058135
N9    N     N_R   0.798340 0.505430 0.954400 -0.040617
N10   N     N_R   0.931580 0.439470 0.128350 -0.061849
N11   N     N_R   0.051950 0.704140 0.002340 -0.040491
N12   N     N_R   0.944360 0.651450 0.954400 -0.048027
N13   N     N_R   0.039170 0.492150 0.176290 -0.079773
N14   N     N_R   0.188710 0.696600 0.128350 -0.046399
N15   N     N_R   0.794820 0.447010 0.002340 -0.040725
N16   N     N_R   0.960830 0.507850 0.823710 -0.041085
Ni1   Ni    Ni4+2 0.119330 0.493420 0.109950 0.277478
Ni2   Ni    Ni4+2 0.880670 0.506580 0.890050 0.218520
Ni3   Ni    Ni4+2 0.872590 0.372590 0.000000 0.217428
Ni4   Ni    Ni4+2 0.127410 0.627410 0.000000 0.215388

loop_
_geom_bond_atom_site_label_1
_geom_bond_atom_site_label_2
_ccdc_geom_bond_type
C38   C43   A    
Br2   C29   S    
C49   C50   A    
N1    N7    A    
C16   C23   A    
Br1   C2    S    
C35   C36   A    
N11   N12   A    
C52   H10   S    
C47   C48   A    
C46   C47   A    
C18   H32   S    
C3    N14   A    
C30   C31   A    
C55   H27   S    
C51   C53   S    
C40   H26   S    
C9    C59   A    
C4    H17   S    
C50   C51   S    
N8    N14   A    
C55   C57   A    
C18   H16   S    
C59   N11   A    
C11   C13   A    
C19   H33   S    
C41   H3    S    
C7    C56   A    
C13   C14   A    
C10   C11   A    
C43   H6    S    
C23   C32   S    
C19   H18   S    
C44   C46   A    
C17   C18   S    
C60   H23   S    
C5    N15   A    
C32   C42   A    
C35   H5    S    
C22   H34   S    
C59   H14   S    
C12   C54   A    
C21   C24   A    
N5    Ni1   S    
N8    Ni1   S    
N7    Ni3   S    
N9    Ni2   S    
C33   C36   A    
N4    Ni2   S    
C39   C41   A    
C25   H2    S    
C54   H11   S    
C34   C52   A    
C51   H24   S    
C14   H31   S    
C21   C25   A    
Br5   C48   S    
C4    N16   A    
C18   C19   S    
C45   N8    A    
C33   C37   A    
C9    C60   A    
C40   N4    A    
C44   C50   A    
N6    N16   A    
N11   Ni4   S    
C11   C34   S    
C37   C38   A    
C58   N10   A    
C25   C26   A    
C8    C58   A    
C42   H21   S    
C7    C15   S    
N3    N5    A    
C26   C31   A    
C8    C20   S    
N2    N4    A    
N10   N13   A    
C1    C57   A    
C32   C41   A    
C2    N13   A    
C28   H8    S    
N13   Ni1   S    
C20   C30   A    
C42   C43   A    
C22   C27   A    
C10   C17   A    
N15   Ni3   S    
C15   C17   A    
C58   H13   S    
C28   C34   A    
C24   H20   S    
C44   C53   S    
C53   H9    S    
C6    C45   A    
C54   N6    A    
C38   C39   A    
C5    H29   S    
C10   C19   S    
C48   C49   A    
C36   H7    S    
C2    C8    A    
C51   H25   S    
N6    Ni4   S    
Br6   C53   S    
C56   H12   S    
C12   C21   S    
C46   C57   S    
N10   Ni3   S    
Br4   C37   S    
C30   H19   S    
C28   N3    A    
C16   N2    A    
C23   C40   A    
C52   N5    A    
N1    Ni1   S    
C26   C27   A    
C6    C33   S    
C22   C24   A    
N12   Ni2   S    
C5    C7    A    
C56   N9    A    
C4    C12   A    
C27   C29   A    
N3    Ni4   S    
N16   Ni2   S    
C47   H22   S    
C55   N7    A    
C3    C6    A    
N9    N15   A    
C45   H28   S    
C1    H1    S    
C13   H30   S    
C20   C29   A    
C14   C15   A    
Br3   C31   S    
C1    N1    A    
C35   C39   A    
C60   N12   A    
C16   H4    S    
N14   Ni4   S    
N2    Ni3   S    
C3    H15   S    
