data_mof_unit_25244.cif
_audit_creation_date              2012-12-10T17:00:47-0500
_audit_creation_method            fapswitch 2.2
_symmetry_space_group_name_H-M    P1
_symmetry_Int_Tables_number       1
_space_group_crystal_system       triclinic
_cell_length_a                    10.317253
_cell_length_b                    10.647905
_cell_length_c                    10.142435
_cell_angle_alpha                 88.444137
_cell_angle_beta                  100.439755
_cell_angle_gamma                 91.093886
_cell_volume                      1095.25621044

loop_
_atom_site_label
_atom_site_type_symbol
_atom_type_description
_atom_site_fract_x
_atom_site_fract_y
_atom_site_fract_z
_atom_type_partial_charge
C1    C     C_R   0.498455 0.262607 0.501069 0.919629
C2    C     C_2   0.439487 0.864747 0.486202 0.241874
C3    C     C_2   0.420132 0.074352 0.394578 -0.137070
C4    C     C_2   0.492565 0.129568 0.500330 -0.285124
C5    C     C_2   0.549242 0.589802 0.934006 -0.063610
C6    C     C_2   0.529517 0.597669 0.077507 -0.191950
C7    C     C_R   0.257147 0.497332 0.446779 0.898422
C8    C     C_R   0.487934 0.737214 0.495974 0.800740
C9    C     C_R   0.742610 0.494970 0.553086 0.967255
C10   C     C_2   0.115683 0.478981 0.425098 -0.369629
C11   C     C_2   0.066983 0.386047 0.493663 -0.333980
C12   C     C_2   0.882655 0.469757 0.573780 -0.442777
C13   C     C_2   0.926406 0.381704 0.500360 0.539404
C14   C     C_2   0.436658 0.941177 0.376154 -0.015771
H1    H     H_    0.539635 0.688598 0.122504 0.169726
H2    H     H_    0.535234 0.416812 0.122966 0.185852
H3    H     H_    0.130309 0.315019 0.548676 0.142768
H4    H     H_    0.950604 0.529430 0.640052 0.113497
H5    H     H_    0.051823 0.544955 0.361705 0.149277
H6    H     H_    0.360435 0.129705 0.315298 0.145697
H7    H     H_    0.554846 0.077833 0.580739 0.177683
H8    H     H_    0.600493 0.668037 0.894469 0.149228
N1    N     N_2   0.501330 0.501330 0.852460 -0.073859
N2    N     N_2   0.501370 0.501360 0.148130 -0.203661
O1    O     O_R   0.499980 0.319060 0.613030 -0.627287
O2    O     O_R   0.500020 0.319100 0.386910 -0.593364
O3    O     O_R   0.317800 0.500000 0.570840 -0.628096
O4    O     O_R   0.317840 0.500040 0.344720 -0.597468
O5    O     O_R   0.499980 0.680900 0.613090 -0.574801
O6    O     O_R   0.500020 0.680940 0.386970 -0.652534
O7    O     O_R   0.682160 0.499960 0.655280 -0.604429
O8    O     O_R   0.682200 0.500000 0.429160 -0.552596
Zn1   Zn    Zn3+2 0.499970 0.499970 0.650990 0.938363
Zn2   Zn    Zn3+2 0.500030 0.500030 0.349010 0.937451
O9    O     O_3   0.836400 0.298842 0.426094 -0.592047
C15   C     C_3   0.898557 0.197073 0.377734 0.104480
H9    H     H_    0.960277 0.144341 0.461995 0.129595
H10   H     H_    0.960062 0.230700 0.303958 0.158370
C16   C     C_3   0.793701 0.107677 0.306709 -0.838650
H11   H     H_    0.841155 0.026420 0.269356 0.200437
H12   H     H_    0.729570 0.072538 0.377000 0.258730
H13   H     H_    0.732624 0.157315 0.220271 0.257128
C17   C     C_3   0.409765 0.405675 0.896309 -0.226888
C18   C     C_3   0.290303 0.362508 0.794547 -0.306959
C19   C     C_3   0.205222 0.268004 0.859048 -1.022701
H14   H     H_    0.263083 0.183370 0.896770 0.277770
H15   H     H_    0.168123 0.310765 0.943507 0.275914
H16   H     H_    0.118897 0.238416 0.783631 0.265827
H17   H     H_    0.227124 0.444413 0.759275 0.242682
H18   H     H_    0.319747 0.313293 0.711472 0.268180
H19   H     H_    0.466552 0.320804 0.936006 0.161599
H20   H     H_    0.354942 0.444950 0.969078 0.190818
C20   C     C_3   0.463362 0.898234 0.241438 -0.419286
C21   C     C_3   0.445986 0.999111 0.128060 -0.384484
C22   C     C_3   0.483946 0.949372 0.000712 -0.869998
H21   H     H_    0.589312 0.922454 0.019793 0.256352
H22   H     H_    0.421855 0.866276 0.965536 0.265606
H23   H     H_    0.468983 0.023586 0.920547 0.268911
H24   H     H_    0.341321 0.028452 0.104824 0.219770
H25   H     H_    0.508952 0.082704 0.159061 0.238566
H26   H     H_    0.566629 0.865058 0.256771 0.215255
H27   H     H_    0.393320 0.820214 0.207088 0.218994
O10   O     O_3   0.393128 0.907557 0.597176 -0.601842
C23   C     C_3   0.255896 0.883360 0.579413 0.127693
H28   H     H_    0.204023 0.908861 0.476026 0.118126
H29   H     H_    0.237081 0.782144 0.600327 0.146476
C24   C     C_3   0.197183 0.961751 0.676397 -0.856091
H30   H     H_    0.216331 0.063046 0.657478 0.257269
H31   H     H_    0.089041 0.944890 0.661989 0.202499
H32   H     H_    0.241556 0.936016 0.781359 0.263043

loop_
_geom_bond_atom_site_label_1
_geom_bond_atom_site_label_2
_ccdc_geom_bond_type
C18   H17   S    
C7    C10   S    
C22   H21   S    
O7    Zn1   S    
C20   H27   S    
C7    O3    A    
O9    C15   S    
C5    N1    D    
C10   H5    S    
C17   C18   S    
C24   H32   S    
C6    N2    D    
C23   H28   S    
C1    C4    S    
C15   H10   S    
C3    C4    D    
C8    O6    A    
C3    H6    S    
C16   H12   S    
C23   H29   S    
C21   H25   S    
C20   C21   S    
C2    O10   S    
C1    O1    A    
C4    H7    S    
C11   C13   S    
C7    O4    A    
C17   H19   S    
C1    O2    A    
C3    C14   S    
C8    O5    A    
C15   H9    S    
C13   O9    S    
C16   H13   S    
C21   H24   S    
C22   H22   S    
C5    C6    S    
C2    C14   D    
C9    C12   S    
N2    Zn2   S    
C17   H20   S    
C22   H23   S    
C18   C19   S    
C10   C11   D    
C9    O7    A    
O4    Zn2   S    
C24   H30   S    
C23   C24   S    
O5    Zn1   S    
C14   C20   S    
N1    C17   S    
C12   C13   D    
N1    Zn1   S    
H2    N2    S    
C19   H15   S    
C12   H4    S    
C16   H11   S    
O6    Zn2   S    
C21   C22   S    
C11   H3    S    
C18   H18   S    
C19   H16   S    
C9    O8    A    
C2    C8    S    
C6    H1    S    
C19   H14   S    
C20   H26   S    
O2    Zn2   S    
C15   C16   S    
O3    Zn1   S    
C5    H8    S    
O10   C23   S    
O1    Zn1   S    
C24   H31   S    
O8    Zn2   S    
