data_mof_unit_10915.cif
_audit_creation_date              2012-12-10T18:52:58-0500
_audit_creation_method            fapswitch 2.2
_symmetry_space_group_name_H-M    P1
_symmetry_Int_Tables_number       1
_space_group_crystal_system       triclinic
_cell_length_a                    10.0491
_cell_length_b                    10.707117
_cell_length_c                    16.832331
_cell_angle_alpha                 99.549146
_cell_angle_beta                  83.180009
_cell_angle_gamma                 88.863705
_cell_volume                      1771.92780507

loop_
_atom_site_label
_atom_site_type_symbol
_atom_type_description
_atom_site_fract_x
_atom_site_fract_y
_atom_site_fract_z
_atom_type_partial_charge
C1    C     C_R   0.499321 0.739690 0.500189 0.898507
C2    C     C_R   0.500679 0.260323 0.499710 0.897574
C3    C     C_R   0.611574 0.939718 0.521122 -0.116249
C4    C     C_R   0.388277 0.060462 0.479121 -0.092791
C5    C     C_R   0.611245 0.067815 0.521833 -0.203046
C6    C     C_R   0.388462 0.932449 0.478640 -0.162791
C7    C     C_R   0.500442 0.127730 0.500040 -0.021430
C8    C     C_R   0.499448 0.872407 0.500138 -0.025921
C9    C     C_R   0.940294 0.410426 0.445570 0.331305
C10   C     C_R   0.059433 0.589844 0.554318 0.341850
C11   C     C_R   0.085411 0.411538 0.444913 0.274623
C12   C     C_R   0.914211 0.588461 0.554925 0.279294
C13   C     C_R   0.480531 0.480156 0.649336 0.912893
C14   C     C_R   0.519343 0.520772 0.350916 0.924576
C15   C     C_R   0.469213 0.436080 0.728663 -0.235667
C16   C     C_R   0.529918 0.569951 0.273052 -0.240627
C17   C     C_R   0.587031 0.407115 0.762579 0.083924
C18   C     C_R   0.411560 0.604880 0.241357 0.074283
C19   C     C_R   0.581023 0.426801 0.846906 -0.138374
C20   C     C_R   0.416673 0.594881 0.157401 -0.128415
C21   C     C_R   0.457815 0.453331 0.895536 0.078583
C22   C     C_R   0.539041 0.571693 0.107714 0.073227
C23   C     C_R   0.339376 0.445256 0.860146 -0.234816
C24   C     C_R   0.658095 0.573303 0.142191 -0.238931
C25   C     C_R   0.343516 0.431559 0.776179 0.402125
C26   C     C_R   0.655291 0.576915 0.225420 0.409041
C27   C     C_2   0.450556 0.481382 0.983623 -0.170931
C28   C     C_2   0.544457 0.548243 0.019619 -0.180135
H1    H     H_    0.630646 0.579883 0.983957 0.165546
H2    H     H_    0.364615 0.449322 0.019281 0.173120
H3    H     H_    0.243715 0.450655 0.898098 0.178573
H4    H     H_    0.753242 0.568972 0.103840 0.193066
H5    H     H_    0.325672 0.606728 0.130533 0.154214
H6    H     H_    0.671740 0.418035 0.874692 0.151425
H7    H     H_    0.698952 0.894087 0.537194 0.227415
H8    H     H_    0.300949 0.106090 0.462951 0.226262
H9    H     H_    0.696432 0.120028 0.539835 0.192265
H10   H     H_    0.303129 0.880403 0.460875 0.183778
N1    N     N_R   0.142790 0.500030 0.500020 -0.239339
N2    N     N_R   0.857210 0.499970 0.499980 -0.237936
O1    O     O_R   0.385380 0.683250 0.500010 -0.604158
O2    O     O_R   0.614620 0.316750 0.499990 -0.602010
O3    O     O_R   0.614710 0.683220 0.500000 -0.544566
O4    O     O_R   0.385290 0.316780 0.500000 -0.555095
O5    O     O_R   0.371780 0.500040 0.615800 -0.498875
O6    O     O_R   0.628220 0.499960 0.384200 -0.502941
O7    O     O_R   0.601110 0.500010 0.615800 -0.575145
O8    O     O_R   0.398890 0.499990 0.384200 -0.586904
Zn1   Zn    Zn3+2 0.346870 0.500020 0.500000 1.131030
Zn2   Zn    Zn3+2 0.653130 0.499980 0.500000 1.127665
C29   C     C_3   0.716444 0.349641 0.711778 -0.367013
C30   C     C_3   0.766065 0.228266 0.738967 -0.439815
C31   C     C_3   0.886960 0.164646 0.681901 -0.608339
H11   H     H_    0.856760 0.121745 0.622636 0.245312
H12   H     H_    0.964158 0.234573 0.671422 0.308338
H13   H     H_    0.931494 0.088331 0.708981 0.276486
H14   H     H_    0.796916 0.251135 0.800724 0.253272
H15   H     H_    0.684118 0.160105 0.740512 0.244489
H16   H     H_    0.701468 0.321457 0.647250 0.218064
H17   H     H_    0.795521 0.420505 0.716047 0.264735
C32   C     C_3   0.281381 0.655429 0.294334 -0.354200
C33   C     C_3   0.221735 0.775934 0.270915 -0.425050
C34   C     C_3   0.099343 0.829923 0.330431 -0.693464
H18   H     H_    0.031403 0.753411 0.343032 0.313681
H19   H     H_    0.129834 0.877640 0.388561 0.254535
H20   H     H_    0.043557 0.900529 0.304240 0.263088
H21   H     H_    0.298535 0.849190 0.270015 0.231315
H22   H     H_    0.188737 0.754159 0.209704 0.262757
H23   H     H_    0.206495 0.580633 0.290009 0.270472
H24   H     H_    0.298712 0.682426 0.358490 0.213378
S1    S     S_3+6 0.807155 0.610630 0.266459 0.012568
O9    O     O_2   0.780825 0.692823 0.348655 -0.349673
O10   O     O_2   0.878211 0.489378 0.273501 -0.197049
O11   O     O_3   0.907266 0.686415 0.204306 -0.571167
H25   H     H_    0.861967 0.770563 0.208005 0.356721
S2    S     S_3+6 0.194379 0.385860 0.734885 0.011085
O12   O     O_2   0.225939 0.303807 0.652968 -0.286950
O13   O     O_2   0.112945 0.311748 0.790360 -0.334940
O14   O     O_3   0.102979 0.514571 0.726569 -0.485721
H26   H     H_    0.074703 0.556648 0.783215 0.376126
S3    S     S_3+6 0.869793 0.278045 0.382006 0.137898
O15   O     O_2   0.728698 0.293084 0.365764 -0.250163
O16   O     O_2   0.944998 0.244569 0.298471 -0.187056
O17   O     O_3   0.879308 0.151936 0.429041 -0.559907
H27   H     H_    0.853975 0.079109 0.390026 0.379602
S4    S     S_3+6 0.130243 0.723998 0.616298 0.134884
O18   O     O_2   0.270057 0.706259 0.634131 -0.252272
O19   O     O_2   0.125909 0.833694 0.571265 -0.326509
O20   O     O_3   0.048744 0.770424 0.710017 -0.440464
H28   H     H_    0.078658 0.857019 0.728144 0.379072
S5    S     S_3+6 0.187396 0.301199 0.364761 0.096342
O21   O     O_2   0.168868 0.341896 0.285362 -0.259763
O22   O     O_2   0.334993 0.286220 0.364515 -0.285164
O23   O     O_3   0.134960 0.152949 0.364400 -0.524716
H29   H     H_    0.178477 0.103249 0.312571 0.376160
S6    S     S_3+6 0.811728 0.699396 0.634189 0.092150
O24   O     O_2   0.833577 0.659853 0.713402 -0.270462
O25   O     O_2   0.861201 0.830420 0.632014 -0.288253
O26   O     O_3   0.645348 0.720554 0.640258 -0.530405
H30   H     H_    0.618884 0.783017 0.690366 0.366917

loop_
_geom_bond_atom_site_label_1
_geom_bond_atom_site_label_2
_ccdc_geom_bond_type
C32   H24   S    
O4    Zn1   S    
C4    H8    S    
C5    H9    S    
C1    C8    S    
C2    C7    S    
S2    O14   S    
C17   C29   S    
C34   H19   S    
S3    O15   D    
C14   O6    A    
C31   H11   S    
C33   H21   S    
C28   H1    S    
C19   C21   A    
S2    O13   D    
S4    O19   D    
C15   C25   A    
S6    O26   S    
C13   O7    A    
C1    O3    A    
C2    O4    A    
S6    O25   D    
C6    H10   S    
O5    Zn1   S    
C18   C20   A    
C21   C27   S    
C34   H20   S    
C22   C28   S    
C27   H2    S    
C26   S1    S    
C32   C33   S    
C4    C7    A    
O1    Zn1   S    
S3    O16   D    
O7    Zn2   S    
C31   H12   S    
C16   C26   A    
C30   H15   S    
O11   H25   S    
C29   C30   S    
O17   H27   S    
C4    C6    A    
C3    C8    A    
S5    O21   D    
C5    C7    A    
S4    O18   D    
C6    C8    A    
C19   H6    S    
C9    N2    A    
O14   H26   S    
C10   N1    A    
C23   H3    S    
C12   N2    A    
C24   H4    S    
C33   C34   S    
S5    O22   D    
O26   H30   S    
C3    H7    S    
S6    O24   D    
O3    Zn2   S    
S2    O12   D    
C11   N1    A    
C9    C11   A    
C10   C12   A    
O2    Zn2   S    
C20   H5    S    
C1    O1    A    
O8    Zn1   S    
N1    Zn1   S    
C20   C22   A    
C13   C15   S    
C14   C16   S    
C29   H16   S    
S3    O17   S    
C30   C31   S    
S1    O10   D    
C31   H13   S    
C32   H23   S    
C15   C17   A    
C10   S4    S    
C24   C26   A    
C3    C5    A    
S4    O20   S    
S1    O11   S    
C14   O8    A    
C18   C32   S    
O6    Zn2   S    
C33   H22   S    
C25   S2    S    
C21   C23   A    
S1    O9    D    
S5    O23   S    
C13   O5    A    
C2    O2    A    
N2    Zn2   S    
C17   C19   A    
C22   C24   A    
C23   C25   A    
O23   H29   S    
C30   H14   S    
C34   H18   S    
C11   S5    S    
C16   C18   A    
C27   C28   D    
C12   S6    S    
C29   H17   S    
O20   H28   S    
C9    S3    S    
