data_mof_unit_47291.cif
_audit_creation_date              2012-12-10T16:59:55-0500
_audit_creation_method            fapswitch 2.2
_symmetry_space_group_name_H-M    P1
_symmetry_Int_Tables_number       1
_space_group_crystal_system       triclinic
_cell_length_a                    15.138492
_cell_length_b                    15.213002
_cell_length_c                    10.031334
_cell_angle_alpha                 89.959045
_cell_angle_beta                  89.605742
_cell_angle_gamma                 90.037232
_cell_volume                      2310.1795913

loop_
_atom_site_label
_atom_site_type_symbol
_atom_type_description
_atom_site_fract_x
_atom_site_fract_y
_atom_site_fract_z
_atom_type_partial_charge
C1    C     C_R   0.377725 0.885281 0.500672 0.938872
C2    C     C_2   0.714091 0.221590 0.388303 0.506217
C3    C     C_2   0.240177 0.306087 0.399983 0.512357
C4    C     C_2   0.191356 0.741793 0.404374 0.510400
C5    C     C_2   0.697939 0.829550 0.496671 0.148379
C6    C     C_2   0.667516 0.199984 0.498287 0.144584
C7    C     C_2   0.177098 0.307620 0.495310 0.158341
C8    C     C_2   0.194177 0.675573 0.493523 0.168759
C9    C     C_2   0.301519 0.233984 0.391442 -0.223776
C10   C     C_2   0.263191 0.803584 0.393682 -0.215612
C11   C     C_2   0.784223 0.716138 0.389146 -0.216921
C12   C     C_R   0.385328 0.122215 0.500402 0.901642
C13   C     C_2   0.775037 0.293755 0.390407 -0.219137
C14   C     C_2   0.333698 0.200152 0.503060 -0.346850
C15   C     C_2   0.300102 0.832782 0.504765 -0.330016
C16   C     C_2   0.804991 0.672924 0.499852 -0.336396
C17   C     C_2   0.823561 0.308034 0.498500 -0.350660
C18   C     C_2   0.567285 0.974930 0.924603 -0.212006
C19   C     C_2   0.067808 0.477509 0.925034 -0.219596
C20   C     C_2   0.572536 0.991702 0.075748 0.662134
C21   C     C_2   0.072383 0.497152 0.074442 0.634158
C22   C     C_3   0.801726 0.912798 0.602866 0.097877
C23   C     C_R   0.883017 0.379826 0.499989 0.893451
C24   C     C_3   0.867870 0.912956 0.716266 -0.788390
C25   C     C_3   0.593626 0.308286 0.608792 0.106375
C26   C     C_3   0.596621 0.369250 0.728783 -0.773586
C27   C     C_3   0.086213 0.195415 0.562033 0.112272
C28   C     C_3   0.084258 0.110395 0.641776 -0.787612
C29   C     C_3   0.294749 0.573281 0.571546 0.103352
C30   C     C_3   0.387908 0.566571 0.626225 -0.803560
C31   C     C_3   0.725606 0.967457 0.073359 0.095374
C32   C     C_3   0.805995 0.970710 0.163362 -0.722157
C33   C     C_3   0.218776 0.543487 0.056029 0.086805
C34   C     C_R   0.879089 0.616166 0.500113 0.939331
C35   C     C_3   0.294223 0.577113 0.141450 -0.712291
C36   C     C_3   0.355323 0.014682 0.125639 0.182916
C37   C     C_3   0.280872 0.993971 0.029367 -0.876631
C38   C     C_3   0.855320 0.511624 0.123469 0.188735
C39   C     C_3   0.781001 0.486975 0.029070 -0.878123
C40   C     C_R   0.615920 0.121361 0.499497 0.828093
C41   C     C_R   0.620802 0.883532 0.499377 0.862069
C42   C     C_R   0.119926 0.617380 0.499102 0.858979
C43   C     C_R   0.118057 0.380705 0.499313 0.821501
C44   C     C_2   0.711781 0.776730 0.390995 0.509462
F1    F     F_    0.658674 0.777613 0.281911 -0.663892
F2    F     F_    0.707938 0.175917 0.272068 -0.646025
F3    F     F_    0.246876 0.370350 0.305887 -0.663849
F4    F     F_    0.122657 0.751459 0.318530 -0.674475
H1    H     H_    0.319007 0.208604 0.293561 0.176022
H2    H     H_    0.123751 0.446481 0.876330 0.153781
H3    H     H_    0.456902 0.041977 0.896577 0.196997
H4    H     H_    0.955790 0.541210 0.895714 0.196600
H5    H     H_    0.756077 0.969330 0.617934 0.144699
H6    H     H_    0.838637 0.921528 0.507252 0.135265
H7    H     H_    0.916468 0.859038 0.702053 0.262202
H8    H     H_    0.903523 0.976701 0.718472 0.199684
H9    H     H_    0.832992 0.903542 0.813010 0.244521
H10   H     H_    0.530949 0.269950 0.613531 0.139143
H11   H     H_    0.594305 0.349524 0.516861 0.132373
H12   H     H_    0.285419 0.824218 0.295281 0.191838
H13   H     H_    0.658062 0.409209 0.725786 0.256820
H14   H     H_    0.538760 0.414015 0.727766 0.195916
H15   H     H_    0.595086 0.330185 0.822356 0.264303
H16   H     H_    0.079552 0.178245 0.454441 0.131046
H17   H     H_    0.028979 0.236455 0.593724 0.149621
H18   H     H_    0.088371 0.124983 0.750033 0.261360
H19   H     H_    0.021788 0.074592 0.622082 0.197031
H20   H     H_    0.140855 0.068030 0.612298 0.254227
H21   H     H_    0.295488 0.546705 0.467910 0.154993
H22   H     H_    0.250649 0.532291 0.635293 0.154330
H23   H     H_    0.818834 0.705824 0.295177 0.179665
H24   H     H_    0.389291 0.590322 0.730879 0.257747
H25   H     H_    0.410019 0.497014 0.623626 0.196803
H26   H     H_    0.433890 0.606887 0.564759 0.265043
H27   H     H_    0.740561 0.007222 0.982809 0.136649
H28   H     H_    0.713830 0.897380 0.046559 0.157786
H29   H     H_    0.793245 0.932271 0.255619 0.237840
H30   H     H_    0.864032 0.942285 0.110620 0.194937
H31   H     H_    0.821037 0.039808 0.190741 0.280938
H32   H     H_    0.193171 0.599890 0.996670 0.133891
H33   H     H_    0.245888 0.492141 0.988441 0.143679
H34   H     H_    0.782274 0.332879 0.300261 0.194016
H35   H     H_    0.322395 0.522508 0.201081 0.278303
H36   H     H_    0.346967 0.605085 0.076648 0.200563
H37   H     H_    0.269971 0.629125 0.209893 0.248715
H38   H     H_    0.370675 0.086221 0.117718 0.117631
H39   H     H_    0.330671 0.999176 0.226947 0.193293
H40   H     H_    0.263228 0.923198 0.035899 0.273775
H41   H     H_    0.221765 0.033828 0.055250 0.219734
H42   H     H_    0.301248 0.009584 0.925495 0.258123
H43   H     H_    0.868950 0.583287 0.111821 0.119603
H44   H     H_    0.831544 0.498052 0.225843 0.189327
H45   H     H_    0.322360 0.230912 0.599465 0.196592
H46   H     H_    0.764930 0.416036 0.039603 0.273754
H47   H     H_    0.721112 0.526124 0.053241 0.226146
H48   H     H_    0.800725 0.500486 0.924234 0.258170
H49   H     H_    0.271968 0.818119 0.602359 0.198376
H50   H     H_    0.766405 0.678096 0.591214 0.198425
H51   H     H_    0.821275 0.265771 0.585739 0.199922
H52   H     H_    0.621735 0.943126 0.873404 0.147877
N1    N     N_2   0.501330 0.000000 0.852150 -0.172586
N2    N     N_2   0.001330 0.500000 0.852150 -0.176068
N3    N     N_2   0.501360 1.000000 0.147810 0.023701
N4    N     N_2   0.001360 0.500000 0.147810 0.024060
O1    O     O_R   0.409520 0.909540 0.613040 -0.599973
O2    O     O_R   0.590440 0.909540 0.613100 -0.606456
O3    O     O_R   0.090440 0.590460 0.613100 -0.627174
O4    O     O_R   0.090440 0.409540 0.613100 -0.618596
O5    O     O_R   0.590480 0.090460 0.386960 -0.548399
O6    O     O_R   0.590480 0.909540 0.386960 -0.537133
O7    O     O_R   0.090480 0.590460 0.386960 -0.544429
O8    O     O_R   0.090480 0.409540 0.386960 -0.548381
O9    O     O_3   0.755434 0.832182 0.604045 -0.631453
O10   O     O_3   0.667506 0.251801 0.612180 -0.622080
O11   O     O_3   0.166477 0.239705 0.586833 -0.633169
O12   O     O_R   0.409520 0.090460 0.613040 -0.625939
O13   O     O_3   0.267493 0.662193 0.574677 -0.639448
O14   O     O_3   0.652414 0.002798 0.142419 -0.560408
O15   O     O_3   0.152706 0.507273 0.139725 -0.561580
O16   O     O_3   0.429143 0.962211 0.093794 -0.572184
O17   O     O_3   0.930325 0.460364 0.093324 -0.569361
O18   O     O_R   0.909520 0.409540 0.613040 -0.600350
O19   O     O_R   0.909520 0.590460 0.613040 -0.617434
O20   O     O_R   0.409560 0.909540 0.386900 -0.604914
O21   O     O_R   0.409560 0.090460 0.386900 -0.665446
O22   O     O_R   0.909560 0.409540 0.386900 -0.616056
O23   O     O_R   0.909560 0.590460 0.386900 -0.648643
O24   O     O_R   0.590440 0.090460 0.613100 -0.606014
Zn1   Zn    Zn3+2 0.499970 0.000000 0.650990 0.967822
Zn2   Zn    Zn3+2 0.999970 0.500000 0.650990 0.957400
Zn3   Zn    Zn3+2 0.500030 0.000000 0.349010 1.050153
Zn4   Zn    Zn3+2 0.000030 0.500000 0.349010 1.049570

loop_
_geom_bond_atom_site_label_1
_geom_bond_atom_site_label_2
_ccdc_geom_bond_type
O2    Zn1   S    
C34   O19   A    
C37   H40   S    
C10   H12   S    
N3    O16   S    
C42   O7    A    
O24   Zn1   S    
C20   O14   S    
C22   H6    S    
C20   N3    D    
C2    F2    S    
C24   H7    S    
H4    N2    S    
C17   C23   S    
C37   H42   S    
C3    C9    S    
C36   C37   S    
C28   H20   S    
C26   H13   S    
C8    C42   S    
C3    C7    D    
C10   C15   D    
C38   C39   S    
C30   H26   S    
C19   N2    D    
C11   H23   S    
C40   O24   A    
C38   H44   S    
C18   C20   S    
C7    O11   S    
C2    C13   S    
O23   Zn4   S    
C6    O10   S    
C16   C34   S    
C32   H29   S    
C21   N4    D    
C22   O9    S    
C27   O11   S    
O12   Zn1   S    
C34   O23   A    
O5    Zn3   S    
C1    C15   S    
C7    C43   S    
C22   H5    S    
C42   O3    A    
C14   H45   S    
O4    Zn2   S    
C4    C8    D    
C5    O9    S    
C2    C6    D    
C18   H52   S    
C15   H49   S    
O3    Zn2   S    
C8    O13   S    
C23   O18   A    
C29   H21   S    
C36   H39   S    
C41   O2    A    
O6    Zn3   S    
C28   H19   S    
C9    H1    S    
C9    C14   D    
C35   H35   S    
C24   H9    S    
O1    Zn1   S    
C12   O21   A    
C36   H38   S    
C25   C26   S    
C29   O13   S    
C38   H43   S    
O20   Zn3   S    
C18   N1    D    
C28   H18   S    
C26   H15   S    
C31   O14   S    
C29   C30   S    
C27   H17   S    
C11   C16   D    
O21   Zn3   S    
C31   H27   S    
C31   C32   S    
O22   Zn4   S    
C11   C44   S    
O8    Zn4   S    
C17   H51   S    
C39   H47   S    
C23   O22   A    
C5    C44   D    
C12   C14   S    
C33   O15   S    
C39   H46   S    
C41   O6    A    
O19   Zn2   S    
N4    Zn4   S    
C22   C24   S    
H3    N1    S    
C25   H10   S    
C4    C10   S    
C44   F1    S    
C29   H22   S    
C4    F4    S    
C30   H25   S    
C5    C41   S    
C19   C21   S    
N2    Zn2   S    
C30   H24   S    
C35   H36   S    
C33   H32   S    
C40   O5    A    
N4    O17   S    
C37   H41   S    
C24   H8    S    
C13   C17   D    
C26   H14   S    
C1    O20   A    
C21   O15   S    
C25   O10   S    
C32   H31   S    
C35   H37   S    
C19   H2    S    
C16   H50   S    
C31   H28   S    
N3    Zn3   S    
C13   H34   S    
C3    F3    S    
C33   C35   S    
C6    C40   S    
C43   O4    A    
C36   O16   S    
C39   H48   S    
C38   O17   S    
C27   H16   S    
C32   H30   S    
O7    Zn4   S    
C43   O8    A    
C27   C28   S    
C25   H11   S    
C33   H33   S    
O18   Zn2   S    
C1    O1    A    
C12   O12   A    
N1    Zn1   S    
