data_mof_unit_39504.cif
_audit_creation_date              2012-12-11T15:44:44-0500
_audit_creation_method            fapswitch 2.2
_symmetry_space_group_name_H-M    P1
_symmetry_Int_Tables_number       1
_space_group_crystal_system       triclinic
_cell_length_a                    19.041427
_cell_length_b                    10.947417
_cell_length_c                    18.776983
_cell_angle_alpha                 90.176206
_cell_angle_beta                  89.936209
_cell_angle_gamma                 90.368282
_cell_volume                      3914.04379928

loop_
_atom_site_label
_atom_site_type_symbol
_atom_type_description
_atom_site_fract_x
_atom_site_fract_y
_atom_site_fract_z
_atom_type_partial_charge
C1    C     C_R   0.773564 0.487826 0.637531 0.552331
C2    C     C_R   0.238574 0.530018 0.354775 0.548475
C3    C     C_R   0.273540 0.987927 0.637528 0.554600
C4    C     C_R   0.738538 0.029874 0.354833 0.540134
C5    C     C_R   0.784169 0.223858 0.511749 -0.165552
C6    C     C_R   0.195393 0.004477 0.456908 -0.166044
C7    C     C_R   0.284034 0.724059 0.511752 -0.165799
C8    C     C_R   0.695527 0.504059 0.456818 -0.166153
C9    C     C_R   0.767161 0.191855 0.441622 -0.158023
C10   C     C_R   0.203243 0.987649 0.529006 -0.164233
C11   C     C_R   0.267059 0.692091 0.441604 -0.157681
C12   C     C_R   0.703372 0.487119 0.528916 -0.163927
C13   C     C_3   0.724662 0.868539 0.501405 -0.223912
C14   C     C_3   0.383270 0.140792 0.525198 -0.204191
C15   C     C_3   0.224819 0.368663 0.501240 -0.223713
C16   C     C_3   0.883160 0.641081 0.525304 -0.204267
C17   C     C_3   0.735092 0.910825 0.578076 0.156399
C18   C     C_3   0.372909 0.166630 0.445842 0.137633
C19   C     C_3   0.235339 0.410790 0.577922 0.155403
C20   C     C_3   0.872848 0.666914 0.445941 0.137540
C21   C     C_R   0.778782 0.137198 0.566111 0.007785
C22   C     C_R   0.248922 0.061720 0.417139 -0.016143
C23   C     C_R   0.278792 0.637302 0.566079 0.007465
C24   C     C_R   0.748989 0.561617 0.417111 -0.016233
C25   C     C_R   0.033251 0.350861 0.437578 -0.010006
C26   C     C_R   0.019694 0.333701 0.586367 -0.037751
C27   C     C_R   0.533234 0.850871 0.437578 -0.009262
C28   C     C_R   0.519695 0.833755 0.586369 -0.038867
C29   C     C_R   0.978794 0.142426 0.430113 -0.079552
C30   C     C_R   0.005627 0.109973 0.573950 -0.075053
C31   C     C_R   0.478874 0.642354 0.430150 -0.079421
C32   C     C_R   0.505732 0.610009 0.573990 -0.074910
C33   C     C_R   0.966612 0.028945 0.461542 -0.123631
C34   C     C_R   0.983153 0.011241 0.532734 -0.118166
C35   C     C_R   0.466753 0.528869 0.461597 -0.123695
C36   C     C_R   0.483307 0.511224 0.532792 -0.117950
C37   C     C_R   0.012857 0.227800 0.543863 0.003948
C38   C     C_R   0.008999 0.240471 0.469460 0.002351
C39   C     C_R   0.512905 0.727830 0.543883 0.004117
C40   C     C_R   0.509033 0.740463 0.469479 0.002552
C41   C     C_R   0.046709 0.442228 0.556843 -0.015871
C42   C     C_R   0.050764 0.454777 0.482136 0.011161
C43   C     C_R   0.546654 0.942319 0.556828 -0.016049
C44   C     C_R   0.550721 0.954827 0.482119 0.011467
C45   C     C_R   0.791654 0.169793 0.638981 0.541042
C46   C     C_R   0.227771 0.120902 0.351943 0.532308
C47   C     C_R   0.291657 0.669810 0.638978 0.543129
C48   C     C_R   0.727777 0.620899 0.351948 0.530388
C49   C     C_R   0.069295 0.539494 0.601776 -0.111208
C50   C     C_R   0.074460 0.570713 0.456086 -0.045565
C51   C     C_R   0.569174 0.039664 0.601744 -0.111338
C52   C     C_R   0.574411 0.070761 0.456053 -0.045308
C53   C     C_R   0.091177 0.650580 0.574180 -0.134479
C54   C     C_R   0.092891 0.666543 0.501409 -0.129852
C55   C     C_R   0.591051 0.150737 0.574130 -0.134204
C56   C     C_R   0.592807 0.166633 0.501357 -0.130077
C57   C     C_R   0.743918 0.062287 0.073285 0.005131
C58   C     C_R   0.268235 0.016409 0.934378 -0.040040
C59   C     C_R   0.231731 0.522904 0.066735 0.015859
C60   C     C_R   0.752273 0.565246 0.925798 -0.038127
C61   C     C_R   0.804865 0.115580 0.048112 0.002532
C62   C     C_R   0.233222 0.938774 0.981126 0.000166
C63   C     C_R   0.268022 0.629408 0.049660 0.004966
C64   C     C_R   0.718588 0.482212 0.970504 0.009340
C65   C     C_R   0.813020 0.134800 0.976218 -0.010650
C66   C     C_R   0.226383 0.967950 0.052261 -0.026668
C67   C     C_R   0.279361 0.659512 0.979585 -0.044883
C68   C     C_R   0.718171 0.494487 0.042313 -0.045719
C69   C     C_R   0.704602 0.029361 0.950615 0.227908
C70   C     C_R   0.292512 0.155712 0.033015 0.222145
C71   C     C_R   0.206413 0.492502 0.939656 0.242473
C72   C     C_R   0.786952 0.680588 0.030767 0.234321
C73   C     C_R   0.696099 0.010504 0.024209 -0.088919
C74   C     C_R   0.300798 0.121933 0.961507 -0.169493
C75   C     C_R   0.196791 0.458636 0.011854 -0.100403
C76   C     C_R   0.790892 0.660377 0.956810 -0.173468
C77   C     C_3   0.836001 0.236228 0.067420 -0.293168
C78   C     C_3   0.160948 0.885359 0.976692 -0.255295
C79   C     C_3   0.339186 0.673886 0.071387 -0.251758
C80   C     C_3   0.650979 0.413265 0.967940 -0.250958
C81   C     C_3   0.845525 0.256669 0.988311 -0.268320
C82   C     C_3   0.154202 0.912688 0.055489 -0.268336
C83   C     C_3   0.352057 0.702967 0.993415 -0.262986
C84   C     C_3   0.649824 0.426479 0.048704 -0.274890
C85   C     C_R   0.761157 0.100535 0.927412 0.033400
C86   C     C_R   0.251778 0.079782 0.078447 0.021224
C87   C     C_R   0.252255 0.589743 0.923821 0.035092
C88   C     C_R   0.746931 0.598006 0.073906 0.022049
C89   C     C_R   0.975663 0.345076 0.650608 0.524852
C90   C     C_R   0.054721 0.351201 0.361685 0.552594
C91   C     C_R   0.475669 0.845084 0.650615 0.524249
C92   C     C_R   0.554695 0.851199 0.361683 0.551310
C93   C     C_R   0.026122 0.340387 0.066167 -0.007118
C94   C     C_R   0.012779 0.343670 0.917639 0.041924
C95   C     C_R   0.517587 0.838426 0.069187 0.003991
C96   C     C_R   0.507181 0.840654 0.920418 0.028146
C97   C     C_R   0.026758 0.449633 0.028937 0.024284
C98   C     C_R   0.020511 0.452300 0.956552 0.085166
C99   C     C_R   0.521500 0.946030 0.030826 0.020801
C100  C     C_R   0.518547 0.948247 0.958686 0.103956
C101  C     C_R   0.028278 0.232731 0.952061 -0.183896
C102  C     C_R   0.034024 0.231121 0.026848 -0.184173
C103  C     C_R   0.517083 0.728839 0.955916 -0.192080
C104  C     C_R   0.521920 0.727792 0.030699 -0.169686
C105  C     C_3   0.985056 0.561814 0.040557 -0.292750
C106  C     C_3   0.976889 0.566119 0.960583 -0.267454
C107  C     C_3   0.487159 0.065678 0.040386 -0.298761
C108  C     C_3   0.484368 0.071031 0.959742 -0.261643
C109  C     C_R   0.760325 0.532013 0.852127 0.529974
C110  C     C_R   0.226062 0.483449 0.140237 0.592473
C111  C     C_R   0.273509 0.984397 0.859599 0.562746
C112  C     C_R   0.738610 0.029666 0.147146 0.562876
C113  C     C_R   0.773356 0.127960 0.853512 0.576589
C114  C     C_R   0.227484 0.126804 0.146574 0.561149
C115  C     C_R   0.271370 0.624057 0.851912 0.577949
C116  C     C_R   0.726399 0.630772 0.145428 0.566646
C117  C     C_R   0.972867 0.347379 0.851651 0.541478
C118  C     C_R   0.036328 0.346870 0.142684 0.542374
C119  C     C_R   0.471290 0.847047 0.852693 0.534669
C120  C     C_R   0.532587 0.846222 0.144590 0.548721
C121  C     C_R   0.750190 0.070075 0.426286 0.013282
C122  C     C_R   0.266425 0.020413 0.563090 0.021203
C123  C     C_R   0.250226 0.570272 0.426217 0.011097
C124  C     C_R   0.766484 0.520135 0.563054 0.022254
C125  C     C_R   0.763546 0.981089 0.478036 -0.027463
C126  C     C_R   0.324279 0.050548 0.519752 -0.032306
C127  C     C_R   0.263636 0.481295 0.477932 -0.027974
C128  C     C_R   0.824317 0.550566 0.519763 -0.032056
C129  C     C_R   0.774673 0.015119 0.547035 0.098147
C130  C     C_R   0.315460 0.072710 0.448004 0.038070
C131  C     C_R   0.274782 0.515259 0.546930 0.098709
C132  C     C_R   0.815511 0.572773 0.448012 0.037968
Cr1   Cr    Cr6+3 0.885860 0.491680 0.749630 0.994191
Cr2   Cr    Cr6+3 0.114140 0.491680 0.250370 0.978765
Cr3   Cr    Cr6+3 0.385860 0.991680 0.749630 0.989152
Cr4   Cr    Cr6+3 0.614140 0.991680 0.250370 0.978716
Cr5   Cr    Cr6+3 0.730490 0.332970 0.748720 0.994163
Cr6   Cr    Cr6+3 0.269510 0.332970 0.251280 0.985547
Cr7   Cr    Cr6+3 0.230490 0.832970 0.748720 0.989707
Cr8   Cr    Cr6+3 0.769510 0.832970 0.251280 0.995418
Cr9   Cr    Cr6+3 0.887570 0.179310 0.750150 0.997663
Cr10  Cr    Cr6+3 0.112430 0.179310 0.249850 0.990422
Cr11  Cr    Cr6+3 0.387570 0.679310 0.750150 0.989877
Cr12  Cr    Cr6+3 0.612430 0.679310 0.249850 0.995240
H1    H     H_    0.802867 0.313623 0.523298 0.116293
H2    H     H_    0.144062 0.984270 0.434792 0.154933
H3    H     H_    0.302606 0.813867 0.523344 0.116363
H4    H     H_    0.644235 0.483685 0.434660 0.154624
H5    H     H_    0.107481 0.723968 0.609319 0.137215
H6    H     H_    0.109878 0.753316 0.479622 0.111599
H7    H     H_    0.607334 0.224155 0.609257 0.137013
H8    H     H_    0.609798 0.253391 0.479553 0.111234
H9    H     H_    0.654174 0.952811 0.043184 0.141983
H10   H     H_    0.326944 0.184919 0.925787 0.130581
H11   H     H_    0.165058 0.379656 0.024844 0.123796
H12   H     H_    0.819292 0.724184 0.923298 0.120919
H13   H     H_    0.797493 0.298705 0.092641 0.137012
H14   H     H_    0.125045 0.941066 0.943456 0.143817
H15   H     H_    0.336310 0.756985 0.105430 0.141167
H16   H     H_    0.608599 0.465009 0.941021 0.133524
H17   H     H_    0.814994 0.331596 0.965370 0.144886
H18   H     H_    0.112206 0.979376 0.067217 0.145356
H19   H     H_    0.359365 0.801971 0.982706 0.139306
H20   H     H_    0.605857 0.483674 0.067999 0.151367
H21   H     H_    0.026171 0.146949 0.923255 0.127769
H22   H     H_    0.040116 0.144822 0.053758 0.131285
H23   H     H_    0.513284 0.642897 0.927432 0.120856
H24   H     H_    0.525445 0.641406 0.058112 0.123799
H25   H     H_    0.017489 0.638078 0.062252 0.137075
H26   H     H_    0.921536 0.551549 0.943917 0.160837
H27   H     H_    0.522876 0.135214 0.064328 0.141692
H28   H     H_    0.430355 0.068682 0.938695 0.152610
H29   H     H_    0.935046 0.542438 0.069161 0.132625
H30   H     H_    0.003724 0.646041 0.935980 0.138586
H31   H     H_    0.434797 0.054781 0.065811 0.130346
H32   H     H_    0.518880 0.143338 0.936937 0.151711
H33   H     H_    0.768283 0.260286 0.400087 0.124206
H34   H     H_    0.158699 0.950141 0.557673 0.144498
H35   H     H_    0.268091 0.760579 0.400099 0.125985
H36   H     H_    0.658873 0.449372 0.557550 0.144434
H37   H     H_    0.252929 0.283882 0.488997 0.149379
H38   H     H_    0.933550 0.596120 0.537817 0.187096
H39   H     H_    0.752764 0.783694 0.489275 0.149139
H40   H     H_    0.433593 0.095586 0.537653 0.187156
H41   H     H_    0.944857 0.954438 0.430391 0.119190
H42   H     H_    0.976162 0.922108 0.556652 0.120847
H43   H     H_    0.445036 0.454313 0.430459 0.119122
H44   H     H_    0.476362 0.422093 0.556724 0.120851
H45   H     H_    0.961394 0.152801 0.375819 0.146611
H46   H     H_    0.017506 0.093507 0.629419 0.131898
H47   H     H_    0.461463 0.652675 0.375856 0.146940
H48   H     H_    0.517617 0.593593 0.629464 0.131159
H49   H     H_    0.078555 0.595403 0.401381 0.187597
H50   H     H_    0.072890 0.528306 0.658936 0.141408
H51   H     H_    0.578532 0.095429 0.401348 0.187748
H52   H     H_    0.572774 0.028528 0.658908 0.139486
O1    O     O_R   0.957020 0.451640 0.669920 -0.526182
O2    O     O_R   0.042980 0.451640 0.330080 -0.522033
O3    O     O_R   0.457020 0.951640 0.669920 -0.525231
O4    O     O_R   0.542980 0.951640 0.330080 -0.522990
O5    O     O_R   0.736470 0.210100 0.823360 -0.485061
O6    O     O_R   0.263530 0.210100 0.176640 -0.480178
O7    O     O_R   0.236470 0.710100 0.823360 -0.500524
O8    O     O_R   0.763530 0.710100 0.176640 -0.469710
O9    O     O_R   0.831960 0.093290 0.830130 -0.527303
O10   O     O_R   0.168040 0.093290 0.169870 -0.534777
O11   O     O_R   0.331960 0.593290 0.830130 -0.528636
O12   O     O_R   0.668040 0.593290 0.169870 -0.533879
O13   O     O_R   0.945600 0.250580 0.824860 -0.510586
O14   O     O_R   0.054400 0.250580 0.175140 -0.506073
O15   O     O_R   0.445600 0.750580 0.824860 -0.514066
O16   O     O_R   0.554400 0.750580 0.175140 -0.504115
O17   O     O_3   0.834640 0.334650 0.749500 -0.278791
O18   O     O_3   0.165360 0.334650 0.250500 -0.276096
O19   O     O_3   0.334640 0.834650 0.749500 -0.293198
O20   O     O_3   0.665360 0.834650 0.250500 -0.256223
O21   O     O_R   0.821450 0.543440 0.674610 -0.491414
O22   O     O_R   0.178550 0.543440 0.325390 -0.531986
O23   O     O_R   0.321450 0.043440 0.674610 -0.487279
O24   O     O_R   0.678550 0.043440 0.325390 -0.536591
O25   O     O_R   0.715320 0.458650 0.668100 -0.540657
O26   O     O_R   0.284680 0.458650 0.331900 -0.523776
O27   O     O_R   0.215320 0.958650 0.668100 -0.536533
O28   O     O_R   0.784680 0.958650 0.331900 -0.528050
O29   O     O_R   0.737170 0.209590 0.674530 -0.527967
O30   O     O_R   0.262830 0.209590 0.325470 -0.526662
O31   O     O_R   0.237170 0.709590 0.674530 -0.527384
O32   O     O_R   0.762830 0.709590 0.325470 -0.527281
O33   O     O_R   0.832710 0.092740 0.669580 -0.491319
O34   O     O_R   0.167290 0.092740 0.330420 -0.525377
O35   O     O_R   0.332710 0.592740 0.669580 -0.490135
O36   O     O_R   0.667290 0.592740 0.330420 -0.527369
O37   O     O_R   0.946290 0.250060 0.676040 -0.521258
O38   O     O_R   0.053710 0.250060 0.323960 -0.505706
O39   O     O_R   0.446290 0.750060 0.676040 -0.519684
O40   O     O_R   0.553710 0.750060 0.323960 -0.508560
O41   O     O_R   0.956270 0.452200 0.830470 -0.517713
O42   O     O_R   0.043730 0.452200 0.169530 -0.525940
O43   O     O_R   0.456270 0.952200 0.830470 -0.522974
O44   O     O_R   0.543730 0.952200 0.169530 -0.523551
O45   O     O_R   0.820760 0.543950 0.823440 -0.513195
O46   O     O_R   0.179240 0.543950 0.176560 -0.512264
O47   O     O_R   0.320760 0.043950 0.823440 -0.523531
O48   O     O_R   0.679240 0.043950 0.176560 -0.518306
O49   O     O_R   0.714570 0.459210 0.828640 -0.512146
O50   O     O_R   0.285430 0.459210 0.171360 -0.499389
O51   O     O_R   0.214570 0.959210 0.828640 -0.515985
O52   O     O_R   0.785430 0.959210 0.171360 -0.479906
O53   O     O_3   0.656668 0.983795 0.902176 -0.577990
C133  C     C_3   0.676875 0.864433 0.883300 -0.122398
H53   H     H_    0.670914 0.801636 0.929378 0.142885
H54   H     H_    0.731461 0.861995 0.862010 0.103154
H55   H     H_    0.641653 0.830870 0.840388 0.127787
O54   O     O_3   0.306290 0.275719 0.052210 -0.561861
C134  C     C_3   0.379127 0.296667 0.056238 -0.107717
H56   H     H_    0.401793 0.247078 0.102203 0.116807
H57   H     H_    0.388215 0.395158 0.066082 0.137125
H58   H     H_    0.406460 0.274641 0.005617 0.097726
O55   O     O_3   0.169044 0.436524 0.885351 -0.582925
C135  C     C_3   0.194659 0.317594 0.874670 -0.115515
H59   H     H_    0.183556 0.258424 0.921353 0.143185
H60   H     H_    0.251698 0.319186 0.861762 0.118134
H61   H     H_    0.166925 0.276554 0.828431 0.134680
O56   O     O_3   0.806536 0.794192 0.056693 -0.539335
C136  C     C_3   0.880196 0.802251 0.060939 -0.098500
H62   H     H_    0.900060 0.741072 0.103343 0.110657
H63   H     H_    0.894797 0.896917 0.076351 0.148267
H64   H     H_    0.906009 0.783637 0.008952 0.096139
H65   H     H_    0.886375 0.226571 0.096607 0.144356
H66   H     H_    0.160052 0.786255 0.964431 0.149452
H67   H     H_    0.373749 0.601028 0.092172 0.142995
H68   H     H_    0.657950 0.317343 0.949800 0.159125
H69   H     H_    0.900252 0.256729 0.972093 0.160047
H70   H     H_    0.152727 0.828939 0.088836 0.147745
H71   H     H_    0.390484 0.640898 0.968019 0.155528
H72   H     H_    0.655929 0.337829 0.076719 0.134783
H73   H     H_    0.670026 0.865506 0.483375 0.095833
H74   H     H_    0.371732 0.220025 0.559722 0.171439
H75   H     H_    0.170153 0.365647 0.483290 0.095714
H76   H     H_    0.871424 0.720236 0.559829 0.171216
H77   H     H_    0.685985 0.939095 0.604607 0.105844
H78   H     H_    0.356046 0.262178 0.435677 0.119074
H79   H     H_    0.186237 0.438824 0.604581 0.106348
H80   H     H_    0.855872 0.762396 0.435760 0.119084
O57   O     O_3   0.779763 0.833415 0.617181 -0.570173
C137  C     C_3   0.753869 0.819105 0.687096 -0.092919
H81   H     H_    0.703847 0.766051 0.686745 0.115053
H82   H     H_    0.746296 0.908810 0.714020 0.137769
H83   H     H_    0.792810 0.767692 0.718759 0.163074
O58   O     O_3   0.431293 0.127538 0.405578 -0.564989
C138  C     C_3   0.423507 0.163621 0.333990 -0.081303
H84   H     H_    0.410643 0.262277 0.328808 0.099707
H85   H     H_    0.383486 0.105694 0.306944 0.144157
H86   H     H_    0.474090 0.150038 0.305938 0.141938
O59   O     O_3   0.280206 0.333457 0.616823 -0.573197
C139  C     C_3   0.254423 0.318625 0.686719 -0.087065
H87   H     H_    0.204580 0.265058 0.686303 0.119415
H88   H     H_    0.246579 0.408137 0.713790 0.145982
H89   H     H_    0.293571 0.267496 0.718276 0.167251
O60   O     O_3   0.931334 0.628046 0.405754 -0.565010
C140  C     C_3   0.923643 0.664228 0.334178 -0.081156
H90   H     H_    0.910781 0.762887 0.329035 0.099252
H91   H     H_    0.883662 0.606341 0.307048 0.143709
H92   H     H_    0.974266 0.650678 0.306192 0.142412

loop_
_geom_bond_atom_site_label_1
_geom_bond_atom_site_label_2
_ccdc_geom_bond_type
C134  H57   S    
C106  H30   S    
C138  H84   S    
Cr7   O51   S    
C107  H27   S    
C2    C123  S    
C105  H25   S    
C82   H70   S    
Cr3   O3    S    
C6    H2    S    
C94   C117  S    
C95   C99   A    
C133  H54   S    
C29   C33   A    
C1    O25   A    
Cr3   O47   S    
C34   H42   S    
C115  O7    A    
C70   C74   A    
C9    C121  A    
C113  O5    A    
C87   C115  S    
C69   O53   S    
C97   C105  S    
C14   H74   S    
C133  H55   S    
C117  O41   A    
C15   C127  S    
C22   C130  A    
Cr2   O42   S    
C20   C132  S    
C41   C49   A    
C116  O8    A    
Cr8   O32   S    
C23   C47   S    
C62   C66   A    
C140  H90   S    
C60   C76   A    
C7    H3    S    
C79   H67   S    
C36   H44   S    
C25   C42   A    
C43   C44   A    
C37   C38   A    
Cr6   O50   S    
C66   C82   S    
C110  O46   A    
C16   C20   S    
C45   O29   A    
C55   H7    S    
C139  H87   S    
C84   H72   S    
C125  C129  A    
C29   H45   S    
C18   C130  S    
C11   H35   S    
Cr9   O13   S    
C9    H33   S    
O60   C140  S    
Cr11  O19   S    
C140  H92   S    
Cr7   O27   S    
Cr1   O1    S    
C137  H83   S    
C10   C122  A    
C98   C106  S    
C57   C61   A    
C19   H79   S    
C59   C63   A    
C14   C126  S    
C60   C64   A    
C1    C124  S    
C16   H76   S    
C137  H82   S    
Cr6   O6    S    
C49   C53   A    
C16   H38   S    
Cr10  O10   S    
C127  C131  A    
Cr4   O4    S    
C75   H11   S    
C112  O48   A    
C5    C21   A    
Cr9   O37   S    
C2    O22   A    
C126  C130  A    
C120  O16   A    
C103  H23   S    
C31   H47   S    
C70   O54   S    
C97   C98   A    
C54   H6    S    
C53   C54   A    
C5    C9    A    
C18   O58   S    
O53   C133  S    
C19   O59   S    
C64   C68   A    
C138  H85   S    
Cr8   O8    S    
C48   O32   A    
C50   H49   S    
Cr10  O34   S    
Cr6   O26   S    
C71   O55   S    
C91   O39   A    
C74   H10   S    
Cr6   O30   S    
C57   C73   A    
Cr5   O29   S    
C60   C109  S    
C27   C44   A    
C78   H14   S    
C139  H89   S    
C61   C77   S    
O56   C136  S    
C12   C124  A    
C29   C38   A    
C107  C108  S    
C51   C55   A    
C44   C52   A    
C109  O49   A    
C102  H22   S    
C105  H29   S    
C53   H5    S    
C106  H26   S    
Cr1   O41   S    
C83   H71   S    
C21   C45   S    
C100  C108  S    
C5    H1    S    
C30   C34   A    
C24   C48   S    
C88   C116  S    
C39   C40   A    
Cr12  O20   S    
Cr8   O28   S    
C82   H18   S    
C4    O24   A    
C113  O9    A    
C121  C125  A    
C61   C65   A    
C25   C38   A    
Cr5   O49   S    
C123  C127  A    
C27   C40   A    
C8    C12   A    
C23   C131  A    
C136  H63   S    
C21   C129  A    
C116  O12   A    
C42   C50   A    
C35   H43   S    
C12   H36   S    
C108  H28   S    
C77   H65   S    
C93   C97   A    
C69   C85   A    
C58   C74   A    
C3    O27   A    
Cr8   O52   S    
C62   C78   S    
C135  H59   S    
C66   C86   A    
C33   H41   S    
C89   O1    A    
C119  O15   A    
C13   C17   S    
C85   C113  S    
C13   C125  S    
C119  O43   A    
Cr5   O5    S    
C7    C23   A    
C96   C100  A    
C8    C24   A    
C28   C91   S    
C30   H46   S    
Cr9   O9    S    
C47   O31   A    
C111  O51   A    
Cr11  O35   S    
C92   O4    A    
C134  H56   S    
C58   C62   A    
C55   C56   A    
C101  C102  A    
C46   O34   A    
C41   C42   A    
C96   C119  S    
C35   C36   A    
C80   C84   S    
C15   C19   S    
C50   C54   A    
C79   H15   S    
C80   H16   S    
C49   H50   S    
C94   C98   A    
Cr9   O33   S    
C6    C22   A    
Cr5   O25   S    
C2    O26   A    
C31   C40   A    
C32   H48   S    
Cr7   O31   S    
O58   C138  S    
C32   C39   A    
Cr2   O46   S    
Cr11  O11   S    
Cr7   O19   S    
C13   H39   S    
C114  O6    A    
C69   C73   A    
C56   H8    S    
C124  C128  A    
C17   H77   S    
C118  O42   A    
C139  H88   S    
C134  H58   S    
C64   C80   S    
C8    H4    S    
C52   H51   S    
C135  H61   S    
C140  H91   S    
C72   O56   S    
Cr12  O40   S    
C58   C111  S    
C68   C84   S    
Cr10  O18   S    
O59   C139  S    
C28   C39   A    
C133  H53   S    
Cr2   O22   S    
C76   H12   S    
C30   C37   A    
O57   C137  S    
C24   C132  A    
C65   C81   S    
C109  O45   A    
C25   C90   S    
C101  H21   S    
C120  O44   A    
C71   C87   A    
C22   C46   S    
C31   C35   A    
C32   C36   A    
Cr12  O16   S    
C83   H19   S    
Cr6   O18   S    
C81   H17   S    
Cr12  O36   S    
C11   C123  A    
C93   C102  A    
C6    C10   A    
C26   C37   A    
Cr4   O24   S    
C95   C120  S    
C99   C107  S    
C105  C106  S    
C28   C43   A    
Cr2   O18   S    
C86   C114  S    
Cr1   O17   S    
Cr7   O7    S    
C79   C83   S    
C43   C51   A    
C107  H31   S    
C15   H37   S    
C15   H75   S    
C92   O40   A    
C4    C121  S    
C81   H69   S    
C78   H66   S    
C3    O23   A    
C108  H32   S    
C96   C103  A    
C103  C104  A    
C1    O21   A    
C20   H80   S    
C80   H68   S    
Cr12  O12   S    
C117  O13   A    
C115  O11   A    
C14   C18   S    
C72   C76   A    
C13   H73   S    
C63   C79   S    
C26   C89   S    
C7    C11   A    
O54   C134  S    
C51   H52   S    
C137  H81   S    
C57   C112  S    
C47   O35   A    
C89   O37   A    
C59   C110  S    
C90   O38   A    
Cr11  O39   S    
C78   C82   S    
Cr1   O45   S    
Cr3   O19   S    
C94   C101  A    
C77   C81   S    
C136  H62   S    
C84   H20   S    
C3    C122  S    
C91   O3    A    
C110  O50   A    
C45   O33   A    
C128  C132  A    
C72   C88   A    
C19   C131  S    
C63   C67   A    
Cr4   O48   S    
C17   C129  S    
C10   H34   S    
C138  H86   S    
C135  H60   S    
Cr9   O17   S    
Cr11  O15   S    
C4    O28   A    
Cr1   O21   S    
C114  O10   A    
C122  C126  A    
C104  H24   S    
C17   O57   S    
C99   C100  A    
C18   H78   S    
Cr3   O23   S    
C33   C34   A    
C46   O30   A    
C27   C92   S    
C67   C83   S    
C16   C128  S    
C68   C88   A    
C93   C118  S    
Cr10  O14   S    
O55   C135  S    
C70   C86   A    
C59   C75   A    
C95   C104  A    
Cr2   O2    S    
Cr5   O17   S    
C14   H40   S    
C65   C85   A    
C90   O2    A    
C67   C87   A    
C112  O52   A    
C118  O14   A    
C111  O47   A    
Cr4   O44   S    
C71   C75   A    
C20   O60   S    
Cr3   O43   S    
C136  H64   S    
Cr8   O20   S    
C48   O36   A    
Cr10  O38   S    
C73   H9    S    
C52   C56   A    
C26   C41   A    
C77   H13   S    
Cr4   O20   S    
