data_mof_unit_56903.cif
_audit_creation_date              2012-12-10T19:24:11-0500
_audit_creation_method            fapswitch 2.2
_symmetry_space_group_name_H-M    P1
_symmetry_Int_Tables_number       1
_space_group_crystal_system       triclinic
_cell_length_a                    10.519905
_cell_length_b                    10.51234
_cell_length_c                    9.791759
_cell_angle_alpha                 89.602619
_cell_angle_beta                  90.404949
_cell_angle_gamma                 89.957044
_cell_volume                      1082.80562079

loop_
_atom_site_label
_atom_site_type_symbol
_atom_type_description
_atom_site_fract_x
_atom_site_fract_y
_atom_site_fract_z
_atom_type_partial_charge
C1    C     C_R   0.502711 0.257818 0.500356 0.972161
C2    C     C_R   0.497290 0.742182 0.499644 0.972173
C3    C     C_3   0.403526 0.961267 0.576414 0.530606
C4    C     C_3   0.596474 0.038733 0.423586 0.530606
C5    C     C_3   0.508024 0.385048 0.049753 -0.121891
C6    C     C_3   0.491976 0.614951 0.950247 -0.121885
C7    C     C_3   0.601898 0.450157 0.953807 0.027203
C8    C     C_3   0.398102 0.549844 0.046193 0.027201
C9    C     C_3   0.404706 0.435483 0.950849 -0.101325
C10   C     C_3   0.595294 0.564516 0.049151 -0.101324
C11   C     C_R   0.257725 0.498587 0.499504 0.923288
C12   C     C_R   0.742274 0.501413 0.500496 0.923292
C13   C     C_3   0.041298 0.431619 0.605671 -0.000737
C14   C     C_3   0.958702 0.568383 0.394329 -0.000745
C15   C     C_3   0.956235 0.379680 0.490691 -0.213986
C16   C     C_3   0.043764 0.620321 0.509308 -0.213981
C17   C     C_3   0.877300 0.501800 0.501329 -0.099807
C18   C     C_3   0.122700 0.498202 0.498670 -0.099808
C19   C     C_3   0.960420 0.553008 0.617881 -0.132276
C20   C     C_3   0.039580 0.446994 0.382118 -0.132296
C21   C     C_3   0.516153 0.040190 0.629674 -0.242853
C22   C     C_3   0.483848 0.959810 0.370325 -0.242849
C23   C     C_3   0.610172 0.953955 0.551485 -0.272778
C24   C     C_3   0.389828 0.046045 0.448515 -0.272780
C25   C     C_3   0.496224 0.877020 0.499386 -0.194502
C26   C     C_3   0.503777 0.122980 0.500614 -0.194501
H1    H     H_    0.917533 0.281684 0.486497 0.218842
H2    H     H_    0.082467 0.718317 0.513503 0.218849
H3    H     H_    0.924699 0.595776 0.713607 0.214070
H4    H     H_    0.075301 0.404227 0.286392 0.214054
H5    H     H_    0.699868 0.912626 0.592664 0.208481
H6    H     H_    0.300133 0.087374 0.407336 0.208478
H7    H     H_    0.529164 0.075815 0.735341 0.229004
H8    H     H_    0.470837 0.924184 0.264659 0.229001
H9    H     H_    0.515867 0.288507 0.095795 0.193378
H10   H     H_    0.484134 0.711493 0.904205 0.193374
H11   H     H_    0.324969 0.381255 0.905060 0.184105
H12   H     H_    0.675031 0.618744 0.094939 0.184103
N1    N     N_3   0.499910 0.500030 0.863290 -0.120831
N2    N     N_3   0.500090 0.499970 0.136710 -0.120828
O1    O     O_R   0.500010 0.313960 0.616610 -0.593247
O2    O     O_R   0.499990 0.686040 0.383390 -0.593231
O3    O     O_R   0.500060 0.313950 0.383350 -0.603000
O4    O     O_R   0.499940 0.686050 0.616650 -0.603001
O5    O     O_R   0.313930 0.499970 0.616610 -0.588966
O6    O     O_R   0.686070 0.500030 0.383390 -0.588965
O7    O     O_R   0.313980 0.499960 0.383350 -0.636630
O8    O     O_R   0.686020 0.500040 0.616650 -0.636637
Zn1   Zn    Zn3+2 0.499970 0.500010 0.655740 1.018089
Zn2   Zn    Zn3+2 0.500030 0.499990 0.344260 1.018089
C27   C     C_2   0.092683 0.352733 0.721320 0.918646
O9    O     O_2   0.071953 0.383289 0.839178 -0.537450
O10   O     O_R   0.166310 0.245687 0.693221 -0.778255
H13   H     H_    0.197952 0.201810 0.779396 0.375270
C28   C     C_2   0.907314 0.647270 0.278682 0.918643
O11   O     O_2   0.928056 0.616724 0.160823 -0.537450
O12   O     O_R   0.833671 0.754306 0.306785 -0.778251
H14   H     H_    0.802030 0.798184 0.220611 0.375272
S1    S     S_3+6 0.272295 0.913671 0.680353 0.009640
O13   O     O_2   0.265794 0.771418 0.692492 -0.321439
O14   O     O_2   0.288135 0.969230 0.820421 -0.307690
O15   O     O_3   0.136698 0.968102 0.609162 -0.538381
H15   H     H_    0.068715 0.940999 0.672483 0.393301
S2    S     S_3+6 0.727705 0.086329 0.319647 0.009638
O16   O     O_2   0.711867 0.030769 0.179579 -0.307678
O17   O     O_2   0.734206 0.228582 0.307506 -0.321453
O18   O     O_3   0.863303 0.031900 0.390839 -0.538376
H16   H     H_    0.931289 0.059026 0.327530 0.393293
C29   C     C_2   0.719590 0.390737 0.898439 0.982047
O19   O     O_2   0.823029 0.437678 0.924261 -0.552086
O20   O     O_R   0.710643 0.281497 0.818589 -0.785709
H17   H     H_    0.796573 0.251087 0.785726 0.345709
C30   C     C_2   0.280411 0.609266 0.101558 0.982018
O21   O     O_2   0.176966 0.562345 0.075705 -0.552048
O22   O     O_R   0.289364 0.718491 0.181436 -0.785703
H18   H     H_    0.203432 0.748907 0.214291 0.345707

loop_
_geom_bond_atom_site_label_1
_geom_bond_atom_site_label_2
_ccdc_geom_bond_type
O4    Zn1   S    
C16   H2    S    
C7    C10   S    
C21   C26   S    
C11   C18   S    
C30   O21   D    
C11   O7    A    
C12   O8    A    
C20   H4    S    
O10   H13   S    
C13   C18   S    
C24   C26   S    
C21   H7    S    
C9    N1    S    
C10   N2    S    
C29   O20   S    
C13   C27   S    
C1    O3    A    
C2    O4    A    
C8    C9    S    
C22   C25   S    
C12   C17   S    
C18   C20   S    
C14   C28   S    
S1    O13   D    
C30   O22   S    
C14   C17   S    
C3    C24   S    
O1    Zn1   S    
O7    Zn2   S    
C21   C23   S    
C15   C20   S    
C22   H8    S    
S1    O14   D    
C13   C19   S    
O18   H16   S    
S2    O18   S    
C14   C20   S    
C3    C25   S    
C12   O6    A    
C5    C7    S    
C4    C23   S    
C6    C8    S    
C27   O9    D    
C27   O10   S    
C23   H5    S    
O22   H18   S    
C24   H6    S    
C5    C9    S    
O15   H15   S    
C4    C22   S    
C15   H1    S    
O5    Zn1   S    
C28   O11   D    
C9    H11   S    
O2    Zn2   S    
C1    O1    A    
O8    Zn1   S    
N1    Zn1   S    
C13   C15   S    
C1    C26   S    
C14   C16   S    
C3    C21   S    
C19   H3    S    
C15   C17   S    
O6    Zn2   S    
S1    O15   S    
C6    C10   S    
C4    C26   S    
O3    Zn2   S    
C4    S2    S    
C10   H12   S    
S2    O16   D    
C28   O12   S    
C7    C29   S    
O20   H17   S    
O12   H14   S    
C2    O2    A    
C16   C19   S    
N2    Zn2   S    
C5    H9    S    
C8    C30   S    
C17   C19   S    
C6    H10   S    
C2    C25   S    
C22   C24   S    
C23   C25   S    
C29   O19   D    
C11   O5    A    
C16   C18   S    
C5    N2    S    
C7    N1    S    
C6    N1    S    
C8    N2    S    
S2    O17   D    
C3    S1    S    
