data_mof_unit_43041.cif
_audit_creation_date              2013-03-05T15:49:56-0500
_audit_creation_method            fapswitch 2.2
_symmetry_space_group_name_H-M    P1
_symmetry_Int_Tables_number       1
_space_group_crystal_system       triclinic
_cell_length_a                    13.549619
_cell_length_b                    13.569805
_cell_length_c                    27.624214
_cell_angle_alpha                 90.785182
_cell_angle_beta                  89.850869
_cell_angle_gamma                 119.721408
_cell_volume                      4410.49937142

loop_
_atom_site_label
_atom_site_type_symbol
_atom_site_description
_atom_site_fract_x
_atom_site_fract_y
_atom_site_fract_z
_atom_type_partial_charge
O1    O     O_R   0.302900 0.805360 0.446400 -0.501265
O2    O     O_R   0.522090 0.841370 0.450730 -0.489257
C1    C     C_R   0.619770 0.898113 0.431412 0.547397
O3    O     O_R   0.693280 0.995650 0.447220 -0.502454
O4    O     O_R   0.657260 0.178740 0.451050 -0.487602
C2    C     C_R   0.599880 0.218606 0.431344 0.557319
O5    O     O_R   0.502640 0.195380 0.446850 -0.497383
O6    O     O_R   0.319630 0.976590 0.450330 -0.491707
C3    C     C_R   0.279324 0.878694 0.430608 0.548228
O7    O     O_R   0.303680 0.807790 0.552740 -0.520556
O8    O     O_R   0.522820 0.843620 0.549310 -0.505517
C4    C     C_R   0.619967 0.901414 0.569125 0.532935
O9    O     O_R   0.694060 0.998080 0.553560 -0.523895
O10   O     O_R   0.657980 0.180990 0.549630 -0.496581
C5    C     C_R   0.569427 0.167170 0.573962 0.559199
O11   O     O_R   0.503420 0.197810 0.553190 -0.518469
O12   O     O_R   0.320350 0.978840 0.548910 -0.521577
C6    C     C_R   0.278840 0.881576 0.567917 0.532041
Cr1   Cr    Cr6+3 0.417720 0.831920 0.499820 1.020250
Cr2   Cr    Cr6+3 0.668190 0.085770 0.500360 1.028516
Cr3   Cr    Cr6+3 0.414060 0.082260 0.499840 1.022388
O13   O     O_3   0.499990 0.999990 0.500010 -0.271912
C7    C     C_1   0.631567 0.264499 0.383773 -0.010554
C8    C     C_R   0.726317 0.420621 0.272840 -0.105099
C9    C     C_R   0.736986 0.438020 0.222870 -0.110724
C10   C     C_R   0.629523 0.234657 0.208332 -0.054705
C11   C     C_R   0.618595 0.217274 0.258285 -0.083796
C12   C     C_R   0.666484 0.310162 0.290632 0.040655
C13   C     C_R   0.688075 0.345137 0.190526 0.045489
C14   C     C_1   0.694269 0.365075 0.139310 -0.030385
C15   C     C_1   0.650735 0.290355 0.341829 -0.054078
C16   C     C_1   0.701394 0.390617 0.097323 0.012166
H1    H     H_    0.763394 0.493014 0.297454 0.106064
H2    H     H_    0.782052 0.523927 0.209431 0.097086
H3    H     H_    0.590908 0.162320 0.183715 0.151845
H4    H     H_    0.571519 0.131473 0.271700 0.103643
C17   C     C_1   0.231432 0.862110 0.382951 -0.006483
C18   C     C_R   0.249080 0.939856 0.260594 -0.095078
C19   C     C_R   0.235512 0.932395 0.209899 0.229712
C20   C     C_R   0.082377 0.736944 0.218556 -0.154004
C21   C     C_R   0.097377 0.745599 0.268690 -0.116181
C22   C     C_R   0.180821 0.846882 0.289817 -0.003379
C23   C     C_R   0.151003 0.829019 0.188856 0.023671
C24   C     C_1   0.127196 0.814974 0.137556 0.019755
C25   C     C_1   0.203509 0.853440 0.341008 -0.049032
C26   C     C_1   0.098328 0.795589 0.095650 0.032822
H5    H     H_    0.314887 0.017478 0.277303 0.145518
H6    H     H_    0.016766 0.657797 0.202818 0.116081
H7    H     H_    0.044760 0.672902 0.290883 0.123775
C27   C     C_1   0.635120 0.865479 0.383756 -0.008049
C28   C     C_R   0.669788 0.747120 0.271692 -0.098935
C29   C     C_R   0.675608 0.734829 0.221600 -0.096839
C30   C     C_R   0.636588 0.888840 0.208802 -0.096202
C31   C     C_R   0.630692 0.901050 0.258851 -0.098520
C32   C     C_R   0.647996 0.830785 0.290371 0.040343
C33   C     C_R   0.659430 0.805929 0.190105 0.041108
C34   C     C_1   0.673649 0.797492 0.138953 -0.043329
C35   C     C_1   0.642788 0.846046 0.341690 -0.051788
C36   C     C_1   0.692004 0.787827 0.097003 0.002584
H8    H     H_    0.683083 0.692272 0.295718 0.111938
H9    H     H_    0.694219 0.670961 0.207431 0.111271
H10   H     H_    0.624864 0.944794 0.184828 0.120495
H11   H     H_    0.613574 0.965901 0.273024 0.105751
C37   C     C_R   0.584956 0.187222 0.626288 0.016026
C38   C     C_R   0.662224 0.165326 0.650954 -0.134058
C39   C     C_R   0.675874 0.182420 0.700755 -0.099669
C40   C     C_R   0.611318 0.219910 0.726665 0.030414
C41   C     C_R   0.531597 0.238465 0.702195 -0.131097
C42   C     C_R   0.518639 0.222470 0.652419 -0.130933
C43   C     C_R   0.546104 0.230563 0.809854 -0.102146
C44   C     C_R   0.569699 0.282773 0.855299 -0.115565
C45   C     C_R   0.771779 0.369326 0.839323 -0.103764
C46   C     C_R   0.748190 0.318804 0.793611 -0.062292
C47   C     C_R   0.635207 0.252349 0.777959 0.055272
C48   C     C_R   0.682632 0.355689 0.869508 0.016820
H12   H     H_    0.712761 0.135936 0.631762 0.151652
H13   H     H_    0.458323 0.177897 0.798668 0.122439
H14   H     H_    0.499797 0.270037 0.878450 0.155958
H15   H     H_    0.738240 0.168403 0.718839 0.199461
H16   H     H_    0.818302 0.337743 0.769458 0.121318
H17   H     H_    0.859626 0.425476 0.849563 0.132151
H18   H     H_    0.482439 0.269774 0.721223 0.103776
H19   H     H_    0.457729 0.239323 0.634453 0.129054
C49   C     C_R   0.221707 0.864577 0.614316 0.024240
C50   C     C_R   0.247263 0.959963 0.643247 -0.122336
C51   C     C_R   0.220842 0.947744 0.691988 -0.108671
C52   C     C_R   0.163152 0.839257 0.712153 0.045658
C53   C     C_R   0.126983 0.743088 0.681862 -0.121076
C54   C     C_R   0.158089 0.755753 0.633360 -0.135124
C55   C     C_R   0.150740 0.738303 0.788427 -0.123101
C56   C     C_R   0.129121 0.722513 0.837590 -0.161849
C57   C     C_R   0.114662 0.894280 0.842102 0.204646
C58   C     C_R   0.130668 0.905754 0.792184 -0.109432
C59   C     C_R   0.146616 0.826951 0.764867 -0.005152
C60   C     C_R   0.104801 0.796343 0.864458 0.010303
H20   H     H_    0.295862 0.044824 0.629200 0.125469
H21   H     H_    0.167408 0.678909 0.768643 0.116390
H22   H     H_    0.125004 0.648400 0.853871 0.144883
H23   H     H_    0.251747 0.023916 0.714061 0.105737
H24   H     H_    0.129540 0.976226 0.774880 0.144637
H25   H     H_    0.078575 0.658147 0.695950 0.102498
H26   H     H_    0.136596 0.681064 0.611340 0.124694
C61   C     C_R   0.635261 0.865753 0.616714 -0.023723
C62   C     C_R   0.540277 0.812772 0.647122 -0.124971
C63   C     C_R   0.552959 0.792275 0.695517 0.274098
C64   C     C_R   0.662625 0.828796 0.713466 0.060982
C65   C     C_R   0.756513 0.874490 0.682401 -0.120189
C66   C     C_R   0.743270 0.895097 0.634270 -0.143701
C67   C     C_R   0.723326 0.909598 0.797374 0.252147
C68   C     C_R   0.725563 0.890410 0.846715 -0.071584
C69   C     C_R   0.633119 0.687460 0.831743 -0.143329
C70   C     C_R   0.630266 0.705288 0.782563 -0.131601
C71   C     C_R   0.677051 0.815768 0.764921 0.043041
C72   C     C_R   0.683901 0.780311 0.863835 -0.020373
H27   H     H_    0.456993 0.793097 0.634131 0.134203
H28   H     H_    0.765733 0.962255 0.871563 0.178224
H29   H     H_    0.592435 0.632819 0.757979 0.119631
H30   H     H_    0.602139 0.601714 0.844181 0.143190
H31   H     H_    0.840364 0.897704 0.695919 0.155333
H32   H     H_    0.817108 0.935899 0.611132 0.138291
O14   O     O_R   0.819150 0.845650 0.033320 -0.498075
O15   O     O_R   0.006060 0.815720 0.028680 -0.479105
C73   C     C_R   0.049539 0.761392 0.048172 0.549663
O16   O     O_R   0.028100 0.664460 0.032550 -0.508253
O17   O     O_R   0.811290 0.477490 0.029660 -0.497544
C74   C     C_R   0.714239 0.435709 0.049671 0.551830
O18   O     O_R   0.638120 0.455970 0.034270 -0.488187
O19   O     O_R   0.667540 0.672320 0.030160 -0.493704
C75   C     C_R   0.723342 0.771029 0.049404 0.541488
O20   O     O_R   0.814460 0.840990 0.926980 -0.484179
O21   O     O_R   0.001710 0.811400 0.930110 -0.438368
C76   C     C_R   0.046212 0.757036 0.910995 0.558908
O22   O     O_R   0.023410 0.659800 0.926210 -0.528670
O23   O     O_R   0.806940 0.473170 0.931090 -0.499758
C77   C     C_R   0.707641 0.427469 0.912718 0.539600
O24   O     O_R   0.633420 0.451310 0.927930 -0.513961
O25   O     O_R   0.663190 0.668000 0.931580 -0.502151
C78   C     C_R   0.717879 0.764859 0.911776 0.538144
Cr4   Cr    Cr6+3 0.908000 0.821090 0.979770 1.122519
Cr5   Cr    Cr6+3 0.912420 0.571130 0.979880 1.042502
Cr6   Cr    Cr6+3 0.657970 0.566940 0.980940 1.052143
O26   O     O_3   0.826130 0.653050 0.980200 -0.272990
N1    N     N_R   0.107677 0.981813 0.869157 0.086153
O27   O     O_R   0.057292 0.033046 0.850611 -0.323046
O28   O     O_R   0.166687 0.022451 0.908807 -0.318038
N2    N     N_R   0.767909 0.024083 0.781432 0.070209
O29   O     O_R   0.752634 0.095308 0.807966 -0.356424
O30   O     O_R   0.843691 0.063615 0.747376 -0.373055
O31   O     O_3   0.461891 0.747578 0.727357 -0.545983
C79   C     C_3   0.369470 0.646106 0.708740 -0.022876
H33   H     H_    0.394951 0.601486 0.681446 0.114558
H34   H     H_    0.307036 0.665866 0.691866 0.144198
C80   C     C_3   0.312261 0.564601 0.750203 -0.364619
H35   H     H_    0.291722 0.607094 0.779963 0.170149
H36   H     H_    0.232704 0.489542 0.737132 0.108843
H37   H     H_    0.369964 0.535668 0.764565 0.152753
N3    N     N_R   0.307506 0.029581 0.180993 0.071638
O32   O     O_R   0.354554 0.131167 0.200037 -0.344445
O33   O     O_R   0.333290 0.017323 0.136755 -0.333475

loop_
_geom_bond_atom_site_label_1
_geom_bond_atom_site_label_2
_geom_bond_distance
_ccdc_geom_bond_type
C44   C48   1.402074 A    
C52   C53   1.407623 A    
C58   C59   1.402067 A    
C54   H26   1.083244 S    
C21   C22   1.395896 A    
C66   H32   1.083110 S    
C69   C70   1.387162 A    
O19   C75   1.275469 A    
C53   H25   1.082385 S    
C77   O24   1.268580 A    
O4    Cr2   1.924161 S    
C30   C31   1.396997 A    
C39   H15   1.078885 S    
O8    Cr1   1.924105 S    
C10   C11   1.398194 A    
C74   O18   1.267676 A    
C38   H12   1.082647 S    
C69   H30   1.083520 S    
Cr5   O26   1.972632 S    
O15   Cr4   1.924634 S    
C18   C22   1.402082 A    
C29   H9    1.083877 S    
O23   Cr5   1.924396 S    
C70   H29   1.083837 S    
Cr4   O26   1.980612 S    
C48   C77   1.459909 S    
C34   C36   1.203593 T    
C64   C65   1.402149 A    
C16   C74   1.432751 S    
N1    O27   1.301566 A    
C52   C59   1.471883 S    
C33   C34   1.436283 S    
C20   H6    1.084115 S    
O18   Cr6   2.041408 S    
C21   H7    1.083616 S    
C57   N1    1.437088 S    
C70   C71   1.401080 A    
C20   C23   1.403925 A    
C67   N2    1.434972 S    
C41   C42   1.387061 A    
C79   C80   1.521848 S    
C43   C47   1.403208 A    
C6    C49   1.456443 S    
C5    C37   1.463468 S    
C43   C44   1.390396 A    
C80   H36   1.110434 S    
O19   Cr6   1.916799 S    
C68   C72   1.398620 A    
C55   H21   1.080306 S    
C45   H17   1.083488 S    
C67   C71   1.413520 A    
C9    H2    1.083740 S    
O24   Cr6   2.034461 S    
C39   C40   1.401510 A    
N3    O33   1.301128 A    
Cr3   O13   1.972568 S    
C19   N3    1.441389 S    
C43   H13   1.083466 S    
N3    O32   1.301509 A    
O17   C74   1.273490 A    
C45   C48   1.402109 A    
O20   Cr4   2.040997 S    
C65   H31   1.083342 S    
C62   C63   1.397455 A    
C1    C27   1.430505 S    
C24   C26   1.205938 T    
C55   C59   1.400728 A    
N2    O30   1.299925 A    
O17   Cr5   1.922202 S    
C9    C13   1.403600 A    
C18   C19   1.408609 A    
O1    Cr1   2.041897 S    
C5    O11   1.296129 A    
C64   C71   1.460273 S    
C28   C29   1.398204 A    
C27   C35   1.203684 T    
O10   Cr2   1.915520 S    
C73   O16   1.267661 A    
Cr1   O13   1.980642 S    
O1    C3    1.269046 A    
C8    C9    1.398617 A    
C4    C61   1.457253 S    
C51   C52   1.402745 A    
O6    C3    1.273633 A    
C19   C23   1.416088 A    
C50   C51   1.383219 A    
C57   C60   1.418243 A    
O12   Cr3   1.922349 S    
C40   C41   1.401894 A    
C22   C25   1.440089 S    
C7    C15   1.205109 T    
C23   C24   1.443107 S    
C13   C14   1.438494 S    
C42   H19   1.082646 S    
C62   H27   1.083621 S    
C30   H10   1.083632 S    
O7    Cr1   2.032634 S    
C65   C66   1.392608 A    
C3    C17   1.434017 S    
O12   C6    1.270994 A    
C40   C47   1.466402 S    
C37   C42   1.403783 A    
C49   C50   1.400942 A    
C80   H37   1.110466 S    
C51   H23   1.081861 S    
C58   H24   1.081800 S    
C18   H5    1.084031 S    
C61   C66   1.398601 A    
C10   C13   1.399206 A    
C20   C21   1.395126 A    
Cr2   O13   1.979496 S    
C60   C76   1.470016 S    
C79   H34   1.111399 S    
C26   C73   1.433933 S    
C49   C54   1.399019 A    
C17   C25   1.205733 T    
C1    O3    1.270357 A    
O20   C78   1.267524 A    
C46   C47   1.402719 A    
C68   H28   1.084109 S    
C61   C62   1.404375 A    
N2    O29   1.300915 A    
O25   C78   1.275839 A    
C30   C33   1.398890 A    
N1    O28   1.301505 A    
O25   Cr6   1.923391 S    
C31   C32   1.402763 A    
C36   C75   1.430376 S    
O9    Cr2   2.040284 S    
O2    Cr1   1.915785 S    
C79   H33   1.116997 S    
O16   Cr5   2.042229 S    
C12   C15   1.438737 S    
C8    C12   1.399548 A    
O14   C75   1.270390 A    
C45   C46   1.388468 A    
O6    Cr3   1.923516 S    
O8    C4    1.271109 A    
O11   Cr3   2.039612 S    
C2    O5    1.267990 A    
C11   H4    1.083507 S    
C63   O31   1.389601 S    
C63   C64   1.402273 A    
O23   C77   1.272792 A    
C8    H1    1.083460 S    
C41   H18   1.083102 S    
C37   C38   1.402288 A    
O14   Cr4   2.030696 S    
O2    C1    1.275323 A    
O15   C73   1.274242 A    
O5    Cr3   2.040873 S    
Cr6   O26   1.979348 S    
C14   C16   1.204971 T    
C55   C56   1.385547 A    
O4    C2    1.273094 A    
O7    C6    1.270234 A    
C2    C7    1.432972 S    
C57   C58   1.394117 A    
C50   H20   1.081328 S    
C46   H16   1.083054 S    
C76   O22   1.274142 A    
C69   C72   1.399926 A    
C28   C32   1.399261 A    
C72   C78   1.454760 S    
C56   H22   1.083263 S    
O21   Cr4   1.913881 S    
C56   C60   1.403175 A    
O3    Cr2   2.031357 S    
C29   C33   1.403420 A    
C10   H3    1.083520 S    
C53   C54   1.390634 A    
O22   Cr5   2.037281 S    
C38   C39   1.389456 A    
C31   H11   1.083510 S    
C32   C35   1.436475 S    
C67   C68   1.394389 A    
C11   C12   1.403364 A    
O10   C5    1.304893 A    
C28   H8    1.083525 S    
C4    O9    1.273126 A    
C80   H35   1.109366 S    
O31   C79   1.415215 S    
C44   H14   1.083296 S    
O21   C76   1.270974 A    
