data_mof_unit_34219.cif
_audit_creation_date              2012-12-10T18:59:59-0500
_audit_creation_method            fapswitch 2.2
_symmetry_space_group_name_H-M    P1
_symmetry_Int_Tables_number       1
_space_group_crystal_system       triclinic
_cell_length_a                    10.750902
_cell_length_b                    10.65236
_cell_length_c                    9.828243
_cell_angle_alpha                 89.845782
_cell_angle_beta                  90.528641
_cell_angle_gamma                 90.052337
_cell_volume                      1125.50231731

loop_
_atom_site_label
_atom_site_type_symbol
_atom_type_description
_atom_site_fract_x
_atom_site_fract_y
_atom_site_fract_z
_atom_type_partial_charge
C1    C     C_R   0.499998 0.259963 0.500043 0.856269
C2    C     C_R   0.500516 0.740024 0.500005 0.863661
C3    C     C_R   0.872357 0.494335 0.503050 -0.082134
C4    C     C_R   0.127345 0.501373 0.496629 -0.084132
C5    C     C_R   0.940213 0.454780 0.618985 0.009067
C6    C     C_R   0.059143 0.538699 0.380081 0.004430
C7    C     C_R   0.560056 0.064715 0.394864 -0.199919
C8    C     C_R   0.441863 0.935274 0.605778 -0.196138
C9    C     C_R   0.561006 0.936025 0.395362 -0.206821
C10   C     C_R   0.440853 0.063891 0.605230 -0.221802
C11   C     C_R   0.501280 0.872349 0.500369 -0.005469
C12   C     C_R   0.500246 0.127615 0.500032 -0.003250
C13   C     C_R   0.546818 0.599738 0.072112 -0.067379
C14   C     C_R   0.454206 0.399770 0.927887 -0.088218
C15   C     C_R   0.546719 0.599751 0.928220 -0.060475
C16   C     C_R   0.454185 0.399820 0.071793 -0.072647
C17   C     C_R   0.259885 0.501783 0.498882 0.875845
C18   C     C_R   0.739972 0.496912 0.501076 0.871097
C19   C     C_R   0.192978 0.742877 0.100087 0.238923
C20   C     C_R   0.764132 0.250875 0.870412 0.236653
C21   C     C_R   0.146485 0.704603 0.227000 -0.167966
C22   C     C_R   0.819332 0.293259 0.749434 -0.128565
C23   C     C_R   0.114918 0.578508 0.249794 0.107575
C24   C     C_R   0.882797 0.408577 0.746290 0.098243
C25   C     C_R   0.129320 0.490668 0.145176 -0.133746
C26   C     C_R   0.890824 0.481339 0.864721 -0.158352
C27   C     C_R   0.175712 0.528201 0.019349 -0.179554
C28   C     C_R   0.835830 0.439746 0.984725 -0.172442
C29   C     C_R   0.207520 0.653557 0.996554 -0.155606
C30   C     C_R   0.772927 0.325099 0.987987 -0.152987
C31   C     C_R   0.931846 0.536155 0.385829 -0.261776
C32   C     C_R   0.067817 0.460140 0.614389 -0.260234
H1    H     H_    0.242972 0.680810 0.897989 0.135640
H2    H     H_    0.730443 0.294789 0.082023 0.130366
H3    H     H_    0.584466 0.679392 0.873994 0.125604
H4    H     H_    0.416812 0.319995 0.126008 0.124997
H5    H     H_    0.133008 0.772913 0.306996 0.122818
H6    H     H_    0.811733 0.237559 0.657618 0.114134
H7    H     H_    0.103800 0.393361 0.160957 0.132631
H8    H     H_    0.938463 0.570969 0.863513 0.142307
H9    H     H_    0.186412 0.459943 0.939089 0.140627
H10   H     H_    0.841192 0.497013 0.075102 0.144121
H11   H     H_    0.879052 0.568807 0.298156 0.156202
H12   H     H_    0.120738 0.428834 0.702578 0.158068
H13   H     H_    0.606686 0.114887 0.313865 0.142159
H14   H     H_    0.395081 0.885165 0.686725 0.143299
H15   H     H_    0.608079 0.886422 0.314633 0.142140
H16   H     H_    0.393589 0.113431 0.685891 0.138535
H17   H     H_    0.584720 0.679290 0.126641 0.113958
H18   H     H_    0.417034 0.319850 0.873387 0.117668
N1    N     N_R   0.499970 0.499970 0.857200 -0.074216
N2    N     N_R   0.500030 0.500030 0.142800 -0.071862
O1    O     O_R   0.499990 0.316750 0.614620 -0.635552
O2    O     O_R   0.500010 0.683250 0.385380 -0.625500
O3    O     O_R   0.499990 0.316780 0.385290 -0.632974
O4    O     O_R   0.500010 0.683220 0.614710 -0.632265
O5    O     O_R   0.316760 0.500000 0.614660 -0.631837
O6    O     O_R   0.683240 0.500000 0.385340 -0.631833
O7    O     O_R   0.316760 0.500020 0.385330 -0.600743
O8    O     O_R   0.683240 0.499980 0.614670 -0.604614
Zn1   Zn    Zn3+2 0.500000 0.499980 0.653120 0.938484
Zn2   Zn    Zn3+2 0.500000 0.500020 0.346880 0.944087
C33   C     C_3   0.223009 0.879012 0.073862 -0.470784
C34   C     C_3   0.335864 0.921223 0.156952 -0.827301
H19   H     H_    0.316289 0.914266 0.267423 0.266780
H20   H     H_    0.417787 0.862253 0.132523 0.257250
H21   H     H_    0.358079 0.020518 0.132386 0.238541
H22   H     H_    0.242836 0.895021 0.964324 0.198750
H23   H     H_    0.141373 0.937786 0.100181 0.203377
C35   C     C_3   0.693080 0.128894 0.872962 -0.440312
C36   C     C_3   0.779318 0.016331 0.855923 -0.877954
H24   H     H_    0.826085 0.019943 0.755695 0.258054
H25   H     H_    0.850794 0.014966 0.938358 0.255020
H26   H     H_    0.724188 0.928253 0.861312 0.250082
H27   H     H_    0.642357 0.118021 0.970428 0.193039
H28   H     H_    0.622619 0.129475 0.789914 0.226858

loop_
_geom_bond_atom_site_label_1
_geom_bond_atom_site_label_2
_ccdc_geom_bond_type
O6    Zn2   S    
C27   C29   A    
N1    Zn1   S    
C20   C30   A    
C31   H11   S    
C7    H13   S    
C19   C21   A    
C24   C26   A    
C22   H6    S    
O3    Zn2   S    
C29   H1    S    
C3    C18   S    
C1    O1    A    
O1    Zn1   S    
C18   O6    A    
C33   H23   S    
C19   C33   S    
C35   C36   S    
C15   N1    A    
C5    C32   A    
C6    C31   A    
C20   C35   S    
C1    C12   S    
C2    C11   S    
C15   H3    S    
C21   C23   A    
C7    C12   A    
C30   H2    S    
C34   H21   S    
C4    C6    A    
C2    O2    A    
C36   H25   S    
O2    Zn2   S    
O8    Zn1   S    
C34   H20   S    
C13   N2    A    
C27   H9    S    
C14   N1    A    
C32   H12   S    
C3    C31   A    
C9    C11   A    
C4    C32   A    
C10   C12   A    
C17   O7    A    
C13   H17   S    
C4    C17   S    
C18   O8    A    
C20   C22   A    
C9    H15   S    
C13   C15   A    
C10   H16   S    
C22   C24   A    
C19   C29   A    
C7    C9    A    
C33   H22   S    
O7    Zn2   S    
C16   N2    A    
C3    C5    A    
C36   H26   S    
O5    Zn1   S    
C25   C27   A    
C26   C28   A    
C34   H19   S    
C28   C30   A    
C1    O3    A    
C36   H24   S    
C2    O4    A    
C25   H7    S    
C35   H28   S    
C26   H8    S    
C14   H18   S    
C5    C24   S    
C8    C11   A    
C6    C23   S    
C28   H10   S    
C14   C16   A    
C23   C25   A    
C8    H14   S    
C33   C34   S    
C21   H5    S    
C8    C10   A    
C35   H27   S    
O4    Zn1   S    
N2    Zn2   S    
C16   H4    S    
C17   O5    A    
