data_mof_unit_19783.cif
_audit_creation_date              2012-12-10T18:54:25-0500
_audit_creation_method            fapswitch 2.2
_symmetry_space_group_name_H-M    P1
_symmetry_Int_Tables_number       1
_space_group_crystal_system       triclinic
_cell_length_a                    10.832543
_cell_length_b                    9.808185
_cell_length_c                    23.463343
_cell_angle_alpha                 89.799157
_cell_angle_beta                  89.657437
_cell_angle_gamma                 90.270807
_cell_volume                      2492.8355817

loop_
_atom_site_label
_atom_site_type_symbol
_atom_type_description
_atom_site_fract_x
_atom_site_fract_y
_atom_site_fract_z
_atom_type_partial_charge
C1    C     C_R   0.260108 0.499509 0.500517 0.935518
C2    C     C_R   0.740548 0.500102 0.499863 0.917448
C3    C     C_R   0.549193 0.377192 0.240688 0.247265
C4    C     C_R   0.449544 0.375673 0.759671 0.243934
C5    C     C_R   0.551940 0.387972 0.299600 -0.355295
C6    C     C_R   0.451117 0.384084 0.700614 -0.359525
C7    C     C_R   0.497295 0.498768 0.327132 -0.137006
C8    C     C_R   0.502096 0.497842 0.672881 -0.125762
C9    C     C_R   0.439246 0.602468 0.295405 0.102955
C10   C     C_R   0.552236 0.606743 0.704621 0.113816
C11   C     C_R   0.440851 0.595658 0.235351 0.179321
C12   C     C_R   0.547964 0.600411 0.764585 0.166487
C13   C     C_R   0.495160 0.481902 0.208422 0.221648
C14   C     C_R   0.497720 0.484094 0.791702 0.229168
C15   C     C_R   0.064488 0.379740 0.484023 0.120858
C16   C     C_R   0.938667 0.621458 0.511899 0.120385
C17   C     C_R   0.937232 0.376062 0.489641 0.123564
C18   C     C_R   0.065152 0.615602 0.519331 0.131251
C19   C     C_R   0.873710 0.499467 0.500241 -0.198950
C20   C     C_R   0.128059 0.498102 0.501353 -0.187343
C21   C     C_R   0.434790 0.071385 0.540247 -0.076864
C22   C     C_R   0.565072 0.928666 0.459778 -0.090553
C23   C     C_R   0.565126 0.072727 0.459740 -0.082339
C24   C     C_R   0.435027 0.927279 0.540305 -0.059297
C25   C     C_R   0.498403 0.500163 0.389320 0.916372
C26   C     C_R   0.501069 0.499788 0.610685 0.907270
C27   C     C_R   0.607175 0.469167 0.880640 0.533305
C28   C     C_R   0.385526 0.461945 0.119556 0.531660
C29   C     C_R   0.386367 0.475992 0.881090 0.533686
C30   C     C_R   0.606075 0.477508 0.118986 0.532154
C31   C     C_R   0.383729 0.468418 0.940510 -0.026068
C32   C     C_R   0.608774 0.471084 0.059598 -0.028152
C33   C     C_R   0.496390 0.466980 0.970139 -0.021265
C34   C     C_R   0.496168 0.466114 0.029995 -0.022878
C35   C     C_R   0.609290 0.467976 0.940082 -0.024029
C36   C     C_R   0.383337 0.461941 0.060079 -0.023658
C37   C     C_R   0.271693 0.464110 0.970852 -0.159332
C38   C     C_R   0.720854 0.471908 0.029270 -0.158052
C39   C     C_R   0.271522 0.459510 0.030160 -0.158138
C40   C     C_R   0.721119 0.469000 0.969981 -0.158853
H1    H     H_    0.183978 0.464266 0.948928 0.191333
H2    H     H_    0.808546 0.474867 0.051188 0.191342
H3    H     H_    0.183672 0.456372 0.052432 0.191370
H4    H     H_    0.809008 0.469803 0.947716 0.191509
H5    H     H_    0.595805 0.307956 0.324101 0.170140
H6    H     H_    0.411911 0.300908 0.676253 0.171068
H7    H     H_    0.382653 0.125635 0.572356 0.122984
H8    H     H_    0.616962 0.874382 0.427676 0.133388
H9    H     H_    0.617440 0.127993 0.427673 0.132537
H10   H     H_    0.383561 0.871943 0.572554 0.140052
N1    N     N_R   0.496953 0.475789 0.852555 -0.331041
N2    N     N_R   0.495583 0.472771 0.147597 -0.332417
N3    N     N_R   0.500000 0.857200 0.500000 -0.070162
N4    N     N_R   0.500000 0.142800 0.500000 -0.071751
O1    O     O_R   0.316770 0.614620 0.500000 -0.597124
O2    O     O_R   0.683230 0.385380 0.500000 -0.593005
O3    O     O_R   0.683230 0.614620 0.500000 -0.591776
O4    O     O_R   0.316770 0.385380 0.500000 -0.598863
O5    O     O_R   0.499970 0.614690 0.416160 -0.598782
O6    O     O_R   0.500030 0.385310 0.583840 -0.637300
O7    O     O_R   0.500030 0.614690 0.583840 -0.592569
O8    O     O_R   0.499970 0.385310 0.416160 -0.632014
O9    O     O_2   0.714143 0.463669 0.850928 -0.559608
O10   O     O_2   0.278836 0.451515 0.149310 -0.560977
O11   O     O_2   0.279658 0.485291 0.851945 -0.557217
O12   O     O_2   0.712629 0.490917 0.148029 -0.555775
Zn1   Zn    Zn3+2 0.500000 0.653120 0.500000 0.974242
Zn2   Zn    Zn3+2 0.500000 0.346880 0.500000 0.953502
N5    N     N_2   0.603882 0.262393 0.213678 -0.268365
H11   H     H_    0.676076 0.220314 0.236089 0.233217
C41   C     C_3   0.516990 0.160042 0.194799 -0.793026
H12   H     H_    0.567329 0.080256 0.170781 0.243615
H13   H     H_    0.447110 0.204912 0.166016 0.260981
H14   H     H_    0.469732 0.112402 0.232064 0.232759
N6    N     N_2   0.395546 0.259957 0.786987 -0.270132
H15   H     H_    0.326150 0.214026 0.763900 0.232606
C42   C     C_3   0.482960 0.162047 0.808605 -0.789672
H16   H     H_    0.432451 0.083862 0.833939 0.244792
H17   H     H_    0.551267 0.211361 0.836971 0.260066
H18   H     H_    0.532145 0.111904 0.772702 0.235600
N7    N     N_2   0.372858 0.706824 0.324325 -0.288807
H19   H     H_    0.280482 0.712223 0.314300 0.215588
C43   C     C_3   0.433368 0.838373 0.327415 -0.741131
H20   H     H_    0.412938 0.899815 0.288907 0.220282
H21   H     H_    0.534905 0.826976 0.331832 0.239288
H22   H     H_    0.397457 0.894217 0.365014 0.241389
N8    N     N_2   0.605281 0.721950 0.676250 -0.287965
H23   H     H_    0.589260 0.814471 0.695566 0.222342
C44   C     C_3   0.732391 0.704525 0.658518 -0.742297
H24   H     H_    0.792620 0.690337 0.696208 0.229048
H25   H     H_    0.763721 0.796606 0.634813 0.229757
H26   H     H_    0.741578 0.615022 0.629953 0.241794
N9    N     N_2   0.386654 0.700637 0.201595 -0.273213
H27   H     H_    0.312550 0.749815 0.219778 0.238564
C45   C     C_3   0.473691 0.793302 0.174683 -0.777461
H28   H     H_    0.422712 0.873423 0.151117 0.241175
H29   H     H_    0.533017 0.738971 0.143691 0.255084
H30   H     H_    0.533151 0.842374 0.207153 0.238536
N10   N     N_2   0.597518 0.707768 0.798362 -0.279711
H31   H     H_    0.674443 0.755860 0.781660 0.244298
C46   C     C_3   0.506823 0.801683 0.820385 -0.808140
H32   H     H_    0.553051 0.876420 0.848649 0.249181
H33   H     H_    0.435442 0.747028 0.845845 0.265528
H34   H     H_    0.461697 0.856746 0.784748 0.231498
N11   N     N_2   0.128836 0.264474 0.461816 -0.278537
H35   H     H_    0.099038 0.170266 0.475898 0.222285
C47   C     C_3   0.151827 0.269952 0.401057 -0.735519
H36   H     H_    0.063302 0.265333 0.377452 0.220011
H37   H     H_    0.209793 0.181964 0.388307 0.236004
H38   H     H_    0.202059 0.365246 0.389453 0.242170
N12   N     N_2   0.877771 0.749778 0.515147 -0.268513
H39   H     H_    0.900115 0.808400 0.549987 0.220145
C48   C     C_3   0.880932 0.825302 0.462002 -0.776819
H40   H     H_    0.977331 0.852789 0.450138 0.221481
H41   H     H_    0.827268 0.920368 0.466436 0.226918
H42   H     H_    0.839402 0.763841 0.427269 0.248459
N13   N     N_2   0.873345 0.249185 0.484215 -0.281354
H43   H     H_    0.898604 0.189811 0.449955 0.215074
C49   C     C_3   0.860966 0.173698 0.537177 -0.742163
H44   H     H_    0.950504 0.127384 0.549185 0.209589
H45   H     H_    0.791105 0.091750 0.532237 0.237584
H46   H     H_    0.829087 0.241394 0.572154 0.252819
N14   N     N_2   0.129275 0.726774 0.545163 -0.282383
H47   H     H_    0.104218 0.822948 0.531957 0.223745
C50   C     C_3   0.140849 0.714590 0.606350 -0.780378
H48   H     H_    0.048134 0.714449 0.626909 0.232084
H49   H     H_    0.194728 0.802157 0.623017 0.225966
H50   H     H_    0.190054 0.619093 0.617569 0.246470

loop_
_geom_bond_atom_site_label_1
_geom_bond_atom_site_label_2
_ccdc_geom_bond_type
C22   H8    S    
N8    H23   S    
N9    H27   S    
C8    C26   S    
C45   H28   S    
N7    H19   S    
C45   H30   S    
N14   H47   S    
C42   H16   S    
N11   C47   S    
C46   H32   S    
C43   H20   S    
C3    N5    S    
C26   O7    A    
C38   H2    S    
N13   C49   S    
C21   N4    A    
N14   C50   S    
N4    Zn2   S    
C11   C13   A    
C15   C17   A    
N5    C41   S    
C4    N6    S    
O5    Zn1   S    
N10   H31   S    
C12   N10   S    
C50   H50   S    
C47   H36   S    
C31   C33   A    
C32   C38   A    
C44   H25   S    
C18   C20   A    
C3    C13   A    
C17   N13   S    
C18   N14   S    
C48   H42   S    
C11   N9    S    
C49   H45   S    
C46   H33   S    
C38   C40   A    
C37   H1    S    
C47   H37   S    
O3    Zn1   S    
N7    C43   S    
C27   N1    A    
C22   N3    A    
C42   H17   S    
C24   H10   S    
C15   C20   A    
C37   C39   A    
C10   N8    S    
C2    O3    A    
C4    C6    A    
C5    C7    A    
C17   C19   A    
C39   H3    S    
C27   C35   A    
C24   N3    A    
O2    Zn2   S    
C5    H5    S    
C31   C37   A    
C32   C34   A    
N6    H15   S    
C13   N2    S    
N6    C42   S    
O7    Zn1   S    
O1    Zn1   S    
C14   N1    S    
C33   C34   A    
N12   C48   S    
C16   C18   A    
C44   H26   S    
C9    C11   A    
O6    Zn2   S    
C30   O12   S    
C10   C12   A    
C29   O11   S    
C28   O10   S    
O4    Zn2   S    
C43   H21   S    
C12   C14   A    
C46   H34   S    
N8    C44   S    
C50   H48   S    
C47   H38   S    
C23   N4    A    
C41   H13   S    
C48   H40   S    
C29   N1    A    
C42   H18   S    
C7    C9    A    
C30   N2    A    
C1    C20   S    
C6    H6    S    
N12   H39   S    
N10   C46   S    
C2    C19   S    
C49   H46   S    
C36   C39   A    
C3    C5    A    
C41   H14   S    
C6    C8    A    
C49   H44   S    
C45   H29   S    
N11   H35   S    
C7    C25   S    
O8    Zn2   S    
C15   N11   S    
C35   C40   A    
C1    O1    A    
C41   H12   S    
C29   C31   A    
C2    O2    A    
C1    O4    A    
C30   C32   A    
C28   N2    A    
N9    C45   S    
C16   C19   A    
C33   C35   A    
C34   C36   A    
C25   O8    A    
C4    C14   A    
N5    H11   S    
N3    Zn1   S    
C23   H9    S    
C40   H4    S    
C43   H22   S    
C28   C36   A    
C8    C10   A    
C21   C24   A    
C50   H49   S    
C22   C23   A    
C27   O9    S    
C25   O5    A    
C48   H41   S    
C44   H24   S    
N13   H43   S    
C26   O6    A    
C16   N12   S    
C9    N7    S    
C21   H7    S    
