data_mof_unit_66237.cif
_audit_creation_date              2013-03-05T15:43:56-0500
_audit_creation_method            fapswitch 2.2
_symmetry_space_group_name_H-M    P1
_symmetry_Int_Tables_number       1
_space_group_crystal_system       triclinic
_cell_length_a                    15.888768
_cell_length_b                    10.975549
_cell_length_c                    9.710916
_cell_angle_alpha                 90.080619
_cell_angle_beta                  89.955573
_cell_angle_gamma                 90.139295
_cell_volume                      1693.45956506

loop_
_atom_site_label
_atom_site_type_symbol
_atom_site_description
_atom_site_fract_x
_atom_site_fract_y
_atom_site_fract_z
_atom_type_partial_charge
O1    O     O_R   0.500010 0.321960 0.617040 -0.509856
O2    O     O_R   0.499990 0.321920 0.382900 -0.598893
C1    C     C_R   0.499294 0.265728 0.499763 0.788779
O3    O     O_R   0.379090 0.500010 0.617050 -0.559715
O4    O     O_R   0.379060 0.499970 0.382910 -0.599676
C2    C     C_R   0.339966 0.500077 0.500039 0.812562
Cu1   Cu    Cu3+1 0.500020 0.500020 0.638630 1.222677
Cu2   Cu    Cu3+1 0.499980 0.499980 0.361370 1.177472
O5    O     O_R   0.500010 0.678080 0.617100 -0.500064
O6    O     O_R   0.499990 0.678040 0.382960 -0.547796
O7    O     O_R   0.620940 0.500030 0.617090 -0.545981
O8    O     O_R   0.620910 0.499990 0.382950 -0.499753
C3    C     C_R   0.502366 0.734290 0.500077 0.795257
C4    C     C_R   0.660031 0.500091 0.499954 0.795372
C5    C     C_3   0.971836 0.422555 0.592029 0.664753
C6    C     C_3   0.027867 0.389367 0.466972 -0.314854
H1    H     H_    0.050618 0.296834 0.439888 0.238842
C7    C     C_1   0.250412 0.500414 0.500226 -0.061485
C8    C     C_1   0.749572 0.500914 0.499821 -0.001462
C9    C     C_3   0.028846 0.532871 0.628295 -0.276072
C10   C     C_3   0.083505 0.501311 0.501196 -0.204526
C11   C     C_3   0.973657 0.612425 0.533642 0.119498
C12   C     C_3   0.916529 0.503579 0.500295 -0.266707
C13   C     C_3   0.029100 0.582865 0.408891 0.610833
C14   C     C_3   0.972488 0.472669 0.375844 0.543336
C15   C     C_1   0.174986 0.500789 0.500573 0.178543
C16   C     C_1   0.824992 0.501994 0.499901 0.243579
H2    H     H_    0.052076 0.557729 0.732415 0.239565
C17   C     C_2   0.486671 0.935755 0.398461 0.217347
C18   C     C_2   0.519348 0.864193 0.498756 0.097773
C19   C     C_2   0.511629 0.064084 0.393707 0.133393
C20   C     C_2   0.487203 0.135331 0.499452 0.402102
C21   C     C_2   0.452218 0.429628 0.923453 0.798352
N1    N     N_2   0.499090 0.498660 0.846910 0.073817
C22   C     C_2   0.442094 0.448534 0.076286 0.101238
N2    N     N_2   0.499070 0.498630 0.153040 0.112907
H3    H     H_    0.385067 0.414660 0.124390 0.091889
F1    F     F_    0.442235 0.087200 0.606070 -0.580142
F2    F     F_    0.407238 0.338645 0.863432 -0.622613
F3    F     F_    0.520289 0.606905 0.900489 -0.462381
F4    F     F_    0.576732 0.503107 0.099714 -0.444935
F5    F     F_    0.941272 0.339472 0.686651 -0.536685
F6    F     F_    0.943227 0.442996 0.245996 -0.530738
F7    F     F_    0.059020 0.666416 0.314217 -0.538289
N3    N     N_R   0.946155 0.735141 0.568753 0.211084
O9    O     O_R   0.001725 0.819300 0.594418 -0.211827
O10   O     O_R   0.866475 0.761358 0.574893 -0.251329
N4    N     N_R   0.419475 0.895477 0.308903 0.150572
O11   O     O_R   0.407073 0.950378 0.192044 -0.217752
O12   O     O_R   0.360753 0.823453 0.355308 -0.312363
N5    N     N_R   0.580671 0.910338 0.595512 0.134653
O13   O     O_R   0.576353 0.879722 0.724714 -0.167458
O14   O     O_R   0.646867 0.968820 0.551926 -0.265180
N6    N     N_R   0.568335 0.104689 0.286800 0.144310
O15   O     O_R   0.569995 0.047790 0.169225 -0.194477
O16   O     O_R   0.630053 0.178462 0.316242 -0.277491

loop_
_geom_bond_atom_site_label_1
_geom_bond_atom_site_label_2
_geom_bond_distance
_ccdc_geom_bond_type
O4    Cu2   1.932460 S    
N5    O14   1.301609 A    
C10   C15   1.453558 S    
N6    O16   1.301892 A    
C17   C18   1.356462 D    
C12   C16   1.454488 S    
C8    C16   1.198350 T    
C1    C20   1.443546 S    
C19   C20   1.347291 D    
C7    C15   1.198445 T    
Cu2   O8    1.932986 S    
C14   F6    1.382468 S    
Cu1   N1    2.022709 S    
N4    O12   1.302015 A    
C21   N1    1.295824 D    
Cu1   Cu2   2.692449 S    
C17   C19   1.463096 S    
O1    Cu1   1.965227 S    
N3    O9    1.300236 A    
C13   C14   1.539130 S    
Cu1   O7    1.932463 S    
N2    F4    1.338658 S    
C21   F2    1.357650 S    
O3    Cu1   1.932983 S    
N1    F3    1.338732 S    
O4    C2    1.295564 A    
C5    C12   1.537471 S    
N4    O11   1.300983 A    
C21   C22   1.506844 S    
C18   N5    1.444420 S    
C9    C11   1.543824 S    
O2    C1    1.292392 A    
C20   F1    1.363850 S    
C12   C14   1.537795 S    
C19   N6    1.444325 S    
C5    C9    1.550638 S    
C13   F7    1.382656 S    
O7    C4    1.295605 A    
C11   C13   1.532165 S    
C2    C7    1.422908 S    
C10   C13   1.535942 S    
C17   N4    1.445600 S    
N5    O13   1.301061 A    
C3    C18   1.450484 S    
C11   N3    1.456916 S    
C9    C10   1.547960 S    
O3    C2    1.295638 A    
Cu2   N2    2.023170 S    
N3    O10   1.300290 A    
C6    C14   1.549407 S    
Cu1   O5    1.965750 S    
O5    C3    1.294298 A    
N6    O15   1.300898 A    
C9    H2    1.110094 S    
C22   H3    1.084271 S    
C11   C12   1.532996 S    
C6    C10   1.547749 S    
C4    C8    1.422702 S    
O6    C3    1.293853 A    
Cu2   O6    1.965227 S    
O2    Cu2   1.965751 S    
C5    C6    1.548783 S    
C5    F5    1.382467 S    
O8    C4    1.295550 A    
C6    H1    1.110036 S    
O1    C1    1.294631 A    
C22   N2    1.294158 D    
