data_mof_unit_40266.cif
_audit_creation_date              2012-12-11T15:53:44-0500
_audit_creation_method            fapswitch 2.2
_symmetry_space_group_name_H-M    P1
_symmetry_Int_Tables_number       1
_space_group_crystal_system       triclinic
_cell_length_a                    6.945316
_cell_length_b                    14.50819
_cell_length_c                    16.120449
_cell_angle_alpha                 90.475455
_cell_angle_beta                  89.158257
_cell_angle_gamma                 89.536414
_cell_volume                      1624.07434129

loop_
_atom_site_label
_atom_site_type_symbol
_atom_type_description
_atom_site_fract_x
_atom_site_fract_y
_atom_site_fract_z
_atom_type_partial_charge
O1    O     O_R   0.361600 0.167310 0.164620 -0.564392
O2    O     O_R   0.638400 0.832690 0.835380 -0.563762
O3    O     O_R   0.691080 0.157570 0.338750 -0.503997
O4    O     O_R   0.308920 0.842430 0.661250 -0.505706
O5    O     O_R   0.861410 0.336420 0.339360 -0.511510
O6    O     O_R   0.138590 0.663580 0.660640 -0.519782
C1    C     C_R   0.521706 0.136375 0.368143 0.859570
C2    C     C_R   0.478548 0.863597 0.631799 0.822024
O7    O     O_R   0.691320 0.156280 0.165240 -0.534695
O8    O     O_R   0.308680 0.843720 0.834760 -0.533913
O9    O     O_R   0.861640 0.335130 0.164600 -0.549494
O10   O     O_R   0.138360 0.664870 0.835400 -0.550763
C3    C     C_R   0.523259 0.133385 0.136375 0.706597
C4    C     C_R   0.476731 0.866606 0.863640 0.709460
O11   O     O_R   0.361370 0.168600 0.339370 -0.535659
O12   O     O_R   0.638630 0.831400 0.660630 -0.536455
O13   O     O_3   0.527990 0.310540 0.251980 -0.367497
O14   O     O_3   0.472010 0.689460 0.748020 -0.363428
V1    V     V_3+5 0.802830 0.240980 0.251990 1.562697
V2    V     V_3+5 0.197170 0.759020 0.748010 1.551301
O15   O     O_R   0.191360 0.346160 0.165220 -0.549676
O16   O     O_R   0.808640 0.653840 0.834780 -0.541773
C5    C     C_R   0.023300 0.367420 0.135749 0.617076
C6    C     C_R   0.976789 0.632684 0.864367 0.625149
O17   O     O_R   0.191130 0.347440 0.338740 -0.528936
O18   O     O_R   0.808870 0.652560 0.661260 -0.531036
C7    C     C_R   0.019981 0.368822 0.367765 0.840898
C8    C     C_R   0.979949 0.629780 0.633137 0.842338
V3    V     V_3+5 0.302840 0.262750 0.251990 1.520643
V4    V     V_3+5 0.697160 0.737250 0.748010 1.523788
O19   O     O_3   0.027820 0.193180 0.251990 -0.377783
O20   O     O_3   0.972180 0.806820 0.748010 -0.375079
C9    C     C_3   0.920528 0.417865 0.527438 -0.120645
C10   C     C_3   0.077041 0.577380 0.474321 -0.141960
C11   C     C_3   0.098766 0.465078 0.565028 0.459513
C12   C     C_3   0.897706 0.530870 0.437643 0.388692
C13   C     C_3   0.995455 0.559927 0.563217 -0.192478
C14   C     C_3   0.002865 0.436441 0.439043 -0.149025
C15   C     C_3   0.815748 0.512669 0.525957 -0.185836
C16   C     C_3   0.180387 0.482900 0.476741 -0.164980
C17   C     C_R   0.875375 0.577630 0.007316 0.013052
C18   C     C_R   0.125212 0.422702 0.993055 0.014158
C19   C     C_R   0.887827 0.513403 0.073404 -0.032473
C20   C     C_R   0.115552 0.487846 0.927673 -0.040393
C21   C     C_R   0.014806 0.436435 0.066992 -0.205870
C22   C     C_R   0.985952 0.563912 0.933372 -0.202855
C23   C     C_R   0.653647 0.998427 0.442009 0.342254
C24   C     C_R   0.348040 0.002055 0.558231 0.343566
C25   C     C_R   0.647259 0.932425 0.505655 -0.147312
C26   C     C_R   0.356021 0.068726 0.495192 -0.146635
C27   C     C_R   0.490851 0.932351 0.563517 -0.188094
C28   C     C_R   0.510586 0.067926 0.436653 -0.193389
C29   C     C_R   0.640648 0.988480 0.061603 0.469255
C30   C     C_R   0.359199 0.011456 0.938490 0.469315
C31   C     C_R   0.625928 0.924835 0.995221 -0.295583
C32   C     C_R   0.374026 0.075142 0.004823 -0.295333
H1    H     H_    0.721185 0.865512 0.993197 0.165877
H2    H     H_    0.278820 0.134491 0.006793 0.164321
C33   C     C_R   0.486692 0.935439 0.933176 -0.194722
C34   C     C_R   0.513256 0.064535 0.066868 -0.193633
O21   O     O_3   0.221057 0.440943 0.630794 -0.523176
C35   C     C_3   0.160850 0.359563 0.669530 -0.163238
H3    H     H_    0.159154 0.300797 0.625193 0.159167
H4    H     H_    0.019027 0.370007 0.701152 0.094201
H5    H     H_    0.266570 0.341437 0.717736 0.202230
O22   O     O_3   0.794871 0.554280 0.365786 -0.574774
C36   C     C_3   0.726252 0.645567 0.370934 -0.234868
H6    H     H_    0.846021 0.695541 0.368667 0.166400
H7    H     H_    0.633383 0.656997 0.426512 0.156509
H8    H     H_    0.635718 0.658858 0.316134 0.180898
C37   C     C_2   0.820003 0.331211 0.553869 0.480326
H9    H     H_    0.757044 0.326738 0.615602 0.073344
O23   O     O_2   0.805492 0.266049 0.506194 -0.524098
C38   C     C_2   0.175254 0.662308 0.443214 0.338897
H10   H     H_    0.222852 0.665401 0.378932 0.046337
O24   O     O_2   0.203740 0.727540 0.489489 -0.529191
C39   C     C_2   0.624349 0.532204 0.566373 0.528403
H11   H     H_    0.530224 0.585558 0.543066 0.029908
O25   O     O_2   0.582254 0.494241 0.631282 -0.497441
C40   C     C_2   0.376494 0.461523 0.442265 0.453447
H12   H     H_    0.441083 0.507058 0.397164 0.039413
O26   O     O_2   0.458082 0.389816 0.460236 -0.471564
C41   C     C_2   0.761016 0.664178 0.018500 0.413068
H13   H     H_    0.667844 0.688748 0.970031 0.047590
O27   O     O_2   0.773562 0.710090 0.082009 -0.522083
C42   C     C_2   0.237442 0.335578 0.981160 0.410104
H14   H     H_    0.326831 0.308853 0.030009 0.048625
O28   O     O_2   0.227354 0.291582 0.916464 -0.528030
C43   C     C_2   0.767500 0.525664 0.150048 0.473458
H15   H     H_    0.825639 0.507557 0.209813 0.068483
O29   O     O_2   0.600591 0.552350 0.146760 -0.519863
C44   C     C_2   0.243754 0.478044 0.853148 0.474765
H16   H     H_    0.192669 0.498405 0.792768 0.064738
O30   O     O_2   0.409987 0.451067 0.859034 -0.506707
O31   O     O_3   0.800558 0.993006 0.383154 -0.567254
C45   C     C_3   0.743184 0.932444 0.319356 -0.180101
H17   H     H_    0.869210 0.918262 0.278282 0.190081
H18   H     H_    0.627340 0.964317 0.282031 0.151341
H19   H     H_    0.694303 0.864641 0.343303 0.118070
O32   O     O_3   0.200722 0.007458 0.616898 -0.567284
C46   C     C_3   0.258892 0.066672 0.681577 -0.182747
H20   H     H_    0.372904 0.033380 0.718938 0.154843
H21   H     H_    0.132495 0.081283 0.722320 0.187330
H22   H     H_    0.310612 0.134423 0.658643 0.123160
C47   C     C_2   0.806559 0.863545 0.506927 0.435635
H23   H     H_    0.952963 0.884907 0.493211 0.120866
O33   O     O_2   0.774955 0.782014 0.517910 -0.554621
C48   C     C_2   0.202328 0.140322 0.495697 0.446281
H24   H     H_    0.054441 0.121217 0.509123 0.108785
O34   O     O_2   0.241003 0.221495 0.486676 -0.511032
O35   O     O_3   0.758076 0.969044 0.127919 -0.560299
C49   C     C_3   0.952093 0.982543 0.104945 -0.196383
H25   H     H_    0.975231 0.052568 0.079391 0.119495
H26   H     H_    0.003586 0.927689 0.061508 0.131723
H27   H     H_    0.041539 0.977710 0.161152 0.154937
O36   O     O_3   0.241537 0.030840 0.872252 -0.560973
C50   C     C_3   0.047611 0.017266 0.895326 -0.199399
H28   H     H_    0.996149 0.072102 0.938787 0.131193
H29   H     H_    0.024673 0.947230 0.920888 0.120567
H30   H     H_    0.958008 0.022074 0.839162 0.155517

loop_
_geom_bond_atom_site_label_1
_geom_bond_atom_site_label_2
_ccdc_geom_bond_type
V4    O20   S    
C46   H20   S    
C5    C21   S    
C31   C33   A    
C10   C13   S    
O13   V3    S    
O31   C45   S    
O4    C2    A    
V1    O19   S    
C49   H26   S    
C23   C25   A    
C3    C34   S    
C39   H11   S    
C48   H24   S    
C4    C33   S    
C47   O33   D    
O9    V1    S    
C9    C15   S    
C38   O24   D    
C10   C16   S    
C15   C39   S    
C11   C13   S    
C1    C28   S    
O3    C1    A    
C50   H29   S    
C12   O22   S    
C7    C14   S    
O12   V4    S    
C17   C41   S    
C45   H19   S    
O36   C50   S    
O7    C3    A    
C44   H16   S    
C35   H4    S    
C9    C11   S    
O5    C7    A    
O7    V1    S    
C24   C27   A    
O6    C8    A    
O35   C49   S    
O8    V2    S    
C25   C27   A    
C45   H18   S    
C26   C28   A    
C17   C22   A    
C16   C40   S    
O3    V1    S    
C18   C42   S    
C43   O29   D    
C10   C12   S    
C20   C44   S    
C29   O35   S    
C24   C26   A    
O22   C36   S    
C2    O12   A    
C26   C48   S    
C17   C19   A    
C18   C20   A    
C44   O30   D    
C49   H25   S    
C29   C34   A    
C20   C22   A    
O11   V3    S    
C30   C33   A    
C29   C31   A    
O17   V3    S    
C24   O32   S    
C30   C32   A    
C38   H10   S    
C42   O28   D    
C36   H6    S    
C40   O26   D    
O8    C4    A    
C50   H30   S    
C37   O23   D    
C42   H14   S    
C25   C47   S    
C1    O11   A    
O15   V3    S    
C32   C34   A    
C30   O36   S    
C36   H7    S    
C18   C21   A    
C35   H3    S    
C41   H13   S    
C45   H17   S    
O10   V2    S    
O1    V3    S    
C39   O25   D    
C11   O21   S    
C19   C43   S    
C19   C21   A    
C2    C27   S    
C10   C38   S    
O14   V4    S    
C41   O27   D    
O18   V4    S    
C46   H22   S    
O15   C5    A    
O16   C6    A    
O1    C3    A    
C12   C14   S    
V2    O20   S    
O16   V4    S    
C35   H5    S    
C12   C15   S    
C40   H12   S    
C48   O34   D    
C23   C28   A    
O5    V1    S    
O17   C7    A    
O6    V2    S    
C47   H23   S    
O10   C6    A    
O18   C8    A    
C9    C14   S    
O2    V4    S    
C36   H8    S    
C6    C22   S    
C31   H1    S    
C11   C16   S    
C37   H9    S    
V3    O19   S    
C50   H28   S    
C14   C16   S    
C8    C13   S    
O9    C5    A    
O32   C46   S    
O13   V1    S    
C32   H2    S    
O14   V2    S    
O21   C35   S    
O2    C4    A    
C9    C37   S    
O4    V2    S    
C13   C15   S    
C46   H21   S    
C23   O31   S    
C43   H15   S    
C49   H27   S    
