data_mof_unit_39132.cif
_audit_creation_date              2012-12-11T14:55:42-0500
_audit_creation_method            fapswitch 2.2
_symmetry_space_group_name_H-M    P1
_symmetry_Int_Tables_number       1
_space_group_crystal_system       triclinic
_cell_length_a                    28.257828
_cell_length_b                    17.120985
_cell_length_c                    18.259727
_cell_angle_alpha                 89.871068
_cell_angle_beta                  137.085589
_cell_angle_gamma                 90.059526
_cell_volume                      6015.15905377

loop_
_atom_site_label
_atom_site_type_symbol
_atom_type_description
_atom_site_fract_x
_atom_site_fract_y
_atom_site_fract_z
_atom_type_partial_charge
C1    C     C_R   0.685030 0.896859 0.798896 -0.184252
C2    C     C_3   0.249192 0.650796 0.044298 -0.140680
C3    C     C_3   0.694831 0.718439 0.929408 -0.140046
C4    C     C_3   0.171456 0.744307 0.963619 -0.163194
C5    C     C_3   0.808832 0.234988 0.063570 -0.146921
C6    C     C_3   0.826093 0.738474 0.032208 -0.147772
C7    C     C_3   0.202690 0.220940 0.937422 -0.148279
C8    C     C_3   0.226830 0.710483 0.078495 -0.144901
C9    C     C_3   0.747308 0.268784 0.950633 -0.157861
C10   C     C_3   0.766752 0.704409 0.918172 -0.165671
C11   C     C_3   0.267566 0.252679 0.049300 -0.137673
C12   C     C_3   0.739252 0.204740 0.075970 -0.140544
C13   C     C_3   0.288360 0.299039 0.004023 -0.164345
C14   C     C_3   0.247739 0.744224 0.960434 -0.180436
C15   C     C_3   0.264273 0.197323 0.908460 -0.164351
C16   C     C_3   0.753458 0.752940 0.042133 -0.165973
C17   C     C_3   0.279333 0.768761 0.106174 0.208646
C18   C     C_3   0.705012 0.197427 0.925263 0.200030
C19   C     C_3   0.719384 0.769408 0.893070 0.205459
C20   C     C_3   0.308842 0.182822 0.066862 0.206469
C21   C     C_3   0.781205 0.276485 0.100673 0.208539
C22   C     C_3   0.195019 0.686046 0.931647 0.188787
C23   C     C_3   0.223456 0.267175 0.892391 0.200057
C24   C     C_3   0.743298 0.652628 0.957059 -0.181468
C25   C     C_3   0.801349 0.688200 0.068579 0.210528
C26   C     C_3   0.582109 0.273415 0.708604 -0.474065
C27   C     C_3   0.527439 0.303932 0.593081 -0.242662
C28   C     C_3   0.480647 0.365533 0.575556 -0.945483
C29   C     C_3   0.427506 0.724655 0.334862 -0.475388
C30   C     C_3   0.386124 0.667352 0.336460 -0.194594
C31   C     C_3   0.388372 0.584318 0.309102 -0.953217
C32   C     C_3   0.444221 0.250593 0.285163 -0.452906
C33   C     C_3   0.425169 0.317327 0.315178 -0.244896
C34   C     C_3   0.470714 0.388839 0.353573 -0.947910
C35   C     C_3   0.224603 0.803159 0.992859 -0.174403
C36   C     C_3   0.570337 0.724896 0.662437 -0.479103
C37   C     C_3   0.616288 0.663099 0.677366 -0.241272
C38   C     C_3   0.573759 0.599639 0.591518 -0.980260
C39   C     C_3   0.083483 0.768528 0.723329 -0.488028
C40   C     C_3   0.042301 0.808755 0.617640 -0.271531
C41   C     C_3   0.018811 0.889906 0.616266 -0.944920
C42   C     C_3   0.916867 0.224178 0.334585 -0.474908
C43   C     C_3   0.875459 0.191580 0.353385 -0.192169
C44   C     C_3   0.867440 0.102962 0.340057 -0.954088
C45   C     C_3   0.917750 0.768928 0.275934 -0.487623
C46   C     C_3   0.765998 0.162526 0.036959 -0.155843
C47   C     C_3   0.964151 0.809124 0.382996 -0.271283
C48   C     C_3   0.993417 0.885220 0.384486 -0.939659
C49   C     C_3   0.070653 0.223614 0.663097 -0.474012
C50   C     C_3   0.113042 0.163552 0.667389 -0.229712
C51   C     C_3   0.068314 0.098569 0.584465 -0.980207
C52   C     C_3   0.777936 0.804107 0.005464 -0.171587
C53   C     C_3   0.244281 0.150317 0.955634 -0.177140
C54   C     C_R   0.711329 0.755861 0.609287 0.112721
C55   C     C_R   0.384704 0.142117 0.638477 0.131548
C56   C     C_R   0.291684 0.754615 0.401309 0.118346
C57   C     C_R   0.330078 0.080297 0.185005 -0.162488
C58   C     C_R   0.718671 0.243456 0.635864 0.120238
C59   C     C_R   0.208807 0.254887 0.599168 0.115067
C60   C     C_R   0.875967 0.656275 0.622103 0.134408
C61   C     C_R   0.869217 0.330530 0.609077 0.133689
C62   C     C_R   0.116561 0.641606 0.362824 0.131219
C63   C     C_R   0.387714 0.245387 0.732202 -0.231536
C64   C     C_R   0.733178 0.625909 0.587209 -0.219563
C65   C     C_R   0.739432 0.369964 0.604531 -0.219153
C66   C     C_R   0.271002 0.623554 0.423687 -0.221167
C67   C     C_R   0.885645 0.753237 0.728765 -0.231000
C68   C     C_R   0.314830 0.897211 0.200402 -0.189750
C69   C     C_R   0.230071 0.124086 0.577470 -0.222638
C70   C     C_R   0.112380 0.743702 0.266238 -0.230942
C71   C     C_R   0.879994 0.231356 0.715499 -0.230008
C72   C     C_R   0.418628 0.206439 0.709044 -0.176906
C73   C     C_R   0.689574 0.678224 0.572466 -0.194344
C74   C     C_R   0.699299 0.322062 0.603572 -0.176726
C75   C     C_R   0.314890 0.677759 0.441412 -0.193025
C76   C     C_R   0.911394 0.719593 0.694535 -0.174082
C77   C     C_R   0.185990 0.177971 0.559692 -0.195872
C78   C     C_R   0.081800 0.704976 0.290228 -0.172227
C79   C     C_R   0.677402 0.087440 0.812838 -0.161825
C80   C     C_R   0.901570 0.262952 0.673947 -0.176475
C81   C     C_R   0.329948 0.106390 0.613912 -0.280568
C82   C     C_R   0.781361 0.775049 0.679609 -0.285132
C83   C     C_R   0.786095 0.220045 0.694532 -0.283874
C84   C     C_R   0.220990 0.772198 0.329064 -0.292942
C85   C     C_R   0.825683 0.616415 0.605366 -0.275904
C86   C     C_R   0.279271 0.273053 0.670208 -0.285097
C87   C     C_R   0.171436 0.605838 0.387877 -0.280039
C88   C     C_R   0.821994 0.371845 0.598882 -0.279245
C89   C     C_R   0.295977 0.147862 0.629971 0.189619
C90   C     C_R   0.185451 0.396450 0.798338 -0.181551
C91   C     C_R   0.823444 0.725174 0.687126 0.192609
C92   C     C_R   0.823831 0.264970 0.688148 0.193075
C93   C     C_R   0.177921 0.719718 0.316671 0.193619
C94   C     C_R   0.796639 0.652639 0.632853 0.191172
C95   C     C_R   0.322483 0.220910 0.682640 0.191933
C96   C     C_R   0.204926 0.646988 0.370637 0.189308
C97   C     C_R   0.797368 0.338160 0.635223 0.188485
C98   C     C_R   0.359074 0.069819 0.489642 -0.114596
C99   C     C_R   0.672478 0.896894 0.589105 -0.113658
C100  C     C_R   0.674230 0.103298 0.597056 -0.111689
C101  C     C_R   0.826637 0.582880 0.185371 -0.157846
C102  C     C_R   0.327852 0.895231 0.411011 -0.142240
C103  C     C_R   0.850611 0.581682 0.474743 -0.114532
C104  C     C_R   0.172121 0.395183 0.588947 -0.139436
C105  C     C_R   0.141617 0.569718 0.511498 -0.116433
C106  C     C_R   0.847891 0.412877 0.469064 -0.130460
C107  C     C_R   0.411167 0.804992 0.507015 -0.148853
C108  C     C_R   0.595977 0.197414 0.518847 -0.168046
C109  C     C_R   0.590977 0.804574 0.498610 -0.146951
C110  C     C_R   0.442020 0.160952 0.579977 -0.157131
C111  C     C_R   0.937510 0.329564 0.569884 -0.189477
C112  C     C_R   0.815046 0.399943 0.198658 -0.184886
C113  C     C_R   0.059914 0.661727 0.422143 -0.169978
C114  C     C_R   0.089200 0.304456 0.494966 -0.140507
C115  C     C_R   0.936339 0.668538 0.569650 -0.172065
C116  C     C_R   0.600973 0.186813 0.726001 0.148829
C117  C     C_R   0.396081 0.804586 0.289913 0.163794
C118  C     C_R   0.411072 0.174012 0.269778 0.159372
C119  C     C_R   0.603222 0.804308 0.709510 0.157689
C120  C     C_R   0.095974 0.680642 0.730445 0.158193
C121  C     C_R   0.894715 0.305457 0.288570 0.150393
C122  C     C_R   0.902207 0.681968 0.269142 0.152708
C123  C     C_R   0.170823 0.580615 0.814926 -0.164372
C124  C     C_R   0.104282 0.303525 0.708592 0.148270
C125  C     C_R   0.671958 0.820051 0.800809 -0.000959
C126  C     C_R   0.352900 0.142381 0.169816 -0.027140
C127  C     C_R   0.327736 0.820678 0.197436 -0.006666
C128  C     C_R   0.661260 0.157380 0.824946 -0.025091
C129  C     C_R   0.173300 0.319244 0.800768 -0.001442
C130  C     C_R   0.845564 0.648737 0.170539 -0.028570
C131  C     C_R   0.827464 0.324330 0.194907 -0.007601
C132  C     C_R   0.150748 0.645899 0.829527 -0.021837
C133  C     C_R   0.395607 0.123546 0.573127 0.059054
C134  C     C_3   0.720018 0.310729 0.988465 -0.169186
C135  C     C_R   0.660038 0.817967 0.563165 0.067016
C136  C     C_R   0.665116 0.183371 0.584697 0.069090
C137  C     C_R   0.341869 0.817181 0.442458 0.073815
C138  C     C_R   0.886188 0.636641 0.556513 0.067363
C139  C     C_R   0.158328 0.317029 0.558342 0.066280
C140  C     C_R   0.105818 0.623656 0.428591 0.064324
C141  C     C_R   0.882994 0.355944 0.549552 0.077440
C142  C     C_3   0.677238 0.238287 0.962133 -0.171189
C143  C     C_3   0.302571 0.709893 0.074033 -0.120478
C144  C     C_3   0.329804 0.228345 0.021550 -0.160831
H1    H     H_    0.735355 0.924574 0.852349 0.100335
H2    H     H_    0.209680 0.067445 0.538933 0.128254
H3    H     H_    0.525842 0.733870 0.576090 0.201004
H4    H     H_    0.986049 0.885159 0.629055 0.260276
H5    H     H_    0.064661 0.927135 0.680279 0.265661
H6    H     H_    0.987380 0.918883 0.537604 0.261728
H7    H     H_    0.076323 0.815158 0.607432 0.208392
H8    H     H_    0.996458 0.773154 0.553306 0.203672
H9    H     H_    0.060196 0.780610 0.751234 0.187355
H10   H     H_    0.133981 0.799105 0.779768 0.206104
H11   H     H_    0.837530 0.086489 0.256553 0.260178
H12   H     H_    0.918995 0.074114 0.396519 0.271591
H13   H     H_    0.089325 0.797559 0.220354 0.123838
H14   H     H_    0.839088 0.081551 0.356962 0.251992
H15   H     H_    0.902487 0.206178 0.435808 0.188029
H16   H     H_    0.823150 0.218285 0.298248 0.187894
H17   H     H_    0.912457 0.185613 0.281004 0.196385
H18   H     H_    0.971105 0.225556 0.412790 0.175401
H19   H     H_    0.023734 0.873291 0.368292 0.258670
H20   H     H_    0.950513 0.926468 0.322879 0.264397
H21   H     H_    0.028810 0.913345 0.464490 0.260890
H22   H     H_    0.932316 0.823029 0.395884 0.209643
H23   H     H_    0.007333 0.770093 0.445883 0.205298
H24   H     H_    0.901616 0.175971 0.757787 0.124523
H25   H     H_    0.937857 0.777798 0.242436 0.188411
H26   H     H_    0.868630 0.802226 0.222963 0.200807
H27   H     H_    0.033004 0.074272 0.586864 0.277176
H28   H     H_    0.037783 0.120247 0.502740 0.261544
H29   H     H_    0.102328 0.050782 0.602840 0.255974
H30   H     H_    0.143114 0.192339 0.657353 0.202865
H31   H     H_    0.149086 0.133808 0.745860 0.207450
H32   H     H_    0.060824 0.199156 0.707366 0.167326
H33   H     H_    0.020086 0.231619 0.578431 0.203845
H34   H     H_    0.410248 0.299683 0.776759 0.124588
H35   H     H_    0.712892 0.569452 0.548227 0.119009
H36   H     H_    0.719941 0.427222 0.567655 0.120205
H37   H     H_    0.291742 0.567109 0.463114 0.128119
H38   H     H_    0.318487 0.031251 0.462093 0.095671
H39   H     H_    0.722646 0.924742 0.650126 0.082092
H40   H     H_    0.723289 0.072816 0.655809 0.081379
H41   H     H_    0.282847 0.047413 0.123717 0.107548
H42   H     H_    0.276988 0.921339 0.347854 0.086966
H43   H     H_    0.801780 0.555620 0.433632 0.082574
H44   H     H_    0.222941 0.421336 0.651718 0.086533
H45   H     H_    0.182195 0.530956 0.539463 0.095257
H46   H     H_    0.797355 0.436023 0.424452 0.083433
H47   H     H_    0.436847 0.749980 0.537893 0.077175
H48   H     H_    0.574957 0.252993 0.509841 0.099804
H49   H     H_    0.568309 0.748169 0.475472 0.093325
H50   H     H_    0.477720 0.204154 0.637506 0.132951
H51   H     H_    0.976107 0.288481 0.630255 0.101978
H52   H     H_    0.264385 0.924698 0.147282 0.103623
H53   H     H_    0.027665 0.707518 0.368044 0.130499
H54   H     H_    0.064609 0.248716 0.469177 0.091541
H55   H     H_    0.969060 0.714462 0.622493 0.127028
H56   H     H_    0.217176 0.698170 0.126382 0.113402
H57   H     H_    0.750995 0.293218 0.898569 0.114983
H58   H     H_    0.771522 0.686118 0.865512 0.118960
H59   H     H_    0.267295 0.273911 0.106338 0.104653
H60   H     H_    0.733959 0.178937 0.125373 0.119421
H61   H     H_    0.255952 0.757085 0.910723 0.117271
H62   H     H_    0.263778 0.176337 0.850425 0.116208
H63   H     H_    0.724770 0.054146 0.872302 0.102283
H64   H     H_    0.747996 0.771494 0.093907 0.113458
H65   H     H_    0.622400 0.237789 0.918874 0.106701
H66   H     H_    0.355953 0.696029 0.115995 0.104713
H67   H     H_    0.381621 0.229134 0.053557 0.108145
H68   H     H_    0.640513 0.710994 0.886961 0.109643
H69   H     H_    0.117527 0.756664 0.920512 0.107774
H70   H     H_    0.863718 0.234740 0.106983 0.107717
H71   H     H_    0.880218 0.744636 0.073440 0.103557
H72   H     H_    0.150041 0.218694 0.902492 0.107160
H73   H     H_    0.701107 0.371963 0.968960 0.108939
H74   H     H_    0.235702 0.424133 0.850467 0.099892
H75   H     H_    0.256159 0.587018 0.060221 0.111524
H76   H     H_    0.306883 0.360422 0.024994 0.108874
H77   H     H_    0.730896 0.589350 0.940903 0.108604
H78   H     H_    0.214699 0.866222 0.971777 0.112411
H79   H     H_    0.784074 0.101017 0.054687 0.103230
H80   H     H_    0.792213 0.866765 0.025710 0.109498
H81   H     H_    0.227265 0.088389 0.937637 0.106942
H82   H     H_    0.800260 0.832855 0.714073 0.115757
H83   H     H_    0.306419 0.053451 0.566619 0.118681
H84   H     H_    0.201208 0.829667 0.293392 0.117200
H85   H     H_    0.779424 0.549921 0.124828 0.105425
H86   H     H_    0.803940 0.161556 0.727191 0.114523
H87   H     H_    0.298761 0.330635 0.705170 0.116386
H88   H     H_    0.801509 0.564333 0.556364 0.110556
H89   H     H_    0.798890 0.425523 0.552929 0.112130
H90   H     H_    0.195486 0.553375 0.436484 0.118827
H91   H     H_    0.637276 0.658649 0.523213 0.130436
H92   H     H_    0.464732 0.232037 0.737589 0.107082
H93   H     H_    0.368078 0.659933 0.493839 0.114305
H94   H     H_    0.649760 0.344281 0.565650 0.107135
H95   H     H_    0.132995 0.159817 0.508403 0.129133
H96   H     H_    0.764951 0.428170 0.145437 0.100991
H97   H     H_    0.954795 0.748204 0.717657 0.107449
H98   H     H_    0.940021 0.230598 0.687025 0.112540
H99   H     H_    0.035180 0.730017 0.260443 0.106304
H100  H     H_    0.451502 0.340175 0.589338 0.259354
H101  H     H_    0.512445 0.415363 0.631350 0.264738
H102  H     H_    0.442481 0.388024 0.491926 0.254198
H103  H     H_    0.553958 0.332407 0.576310 0.196724
H104  H     H_    0.495801 0.255462 0.536405 0.206591
H105  H     H_    0.566935 0.286745 0.748691 0.191473
H106  H     H_    0.629533 0.308336 0.751880 0.183590
H107  H     H_    0.217104 0.546213 0.876241 0.107548
H108  H     H_    0.370378 0.582232 0.231196 0.263279
H109  H     H_    0.442367 0.562299 0.371994 0.264885
H110  H     H_    0.355087 0.545583 0.305325 0.253694
H111  H     H_    0.409554 0.665146 0.418300 0.178964
H112  H     H_    0.331914 0.685856 0.283202 0.198641
H113  H     H_    0.440590 0.699871 0.295386 0.189250
H114  H     H_    0.475644 0.733191 0.418531 0.169460
H115  H     H_    0.526597 0.373370 0.418182 0.251999
H116  H     H_    0.458270 0.415524 0.285530 0.263917
H117  H     H_    0.460897 0.432101 0.386115 0.259936
H118  H     H_    0.908568 0.807053 0.774461 0.123765
H119  H     H_    0.370382 0.334876 0.244263 0.193561
H120  H     H_    0.428916 0.297998 0.376636 0.199739
H121  H     H_    0.499714 0.243822 0.338462 0.196590
H122  H     H_    0.427122 0.269128 0.211209 0.185496
H123  H     H_    0.534350 0.575172 0.584991 0.275040
H124  H     H_    0.547700 0.623719 0.512906 0.262229
H125  H     H_    0.608703 0.551727 0.613084 0.258682
H126  H     H_    0.651421 0.690701 0.676610 0.205898
H127  H     H_    0.647361 0.632866 0.754459 0.211809
H128  H     H_    0.551428 0.702632 0.694546 0.172087
N1    N     N_R   0.625380 0.928280 0.709340 -0.041557
N2    N     N_R   0.613900 0.929750 0.547530 -0.038262
N3    N     N_R   0.613900 0.070250 0.547530 -0.038762
N4    N     N_R   0.386100 0.929750 0.452470 -0.035447
N5    N     N_R   0.886100 0.570250 0.452470 -0.036551
N6    N     N_R   0.113900 0.429750 0.547530 -0.036164
N7    N     N_R   0.113900 0.570250 0.547530 -0.039869
N8    N     N_R   0.886100 0.429750 0.452470 -0.033620
N9    N     N_R   0.437800 0.869550 0.507970 -0.042169
N10   N     N_R   0.562200 0.130450 0.492030 -0.044044
N11   N     N_R   0.562200 0.869550 0.492030 -0.045344
N12   N     N_R   0.374620 0.071720 0.290660 -0.047257
N13   N     N_R   0.437800 0.130450 0.507970 -0.052101
N14   N     N_R   0.937800 0.369550 0.507970 -0.043751
N15   N     N_R   0.062200 0.630450 0.492030 -0.051182
N16   N     N_R   0.062200 0.369550 0.492030 -0.041605
N17   N     N_R   0.937800 0.630450 0.507970 -0.048335
N18   N     N_R   0.573690 0.128980 0.653840 -0.054128
N19   N     N_R   0.426310 0.871020 0.346160 -0.060611
N20   N     N_R   0.426310 0.128980 0.346160 -0.062879
N21   N     N_R   0.573690 0.871020 0.653840 -0.060129
N22   N     N_R   0.073690 0.628980 0.653840 -0.056620
N23   N     N_R   0.374620 0.928280 0.290660 -0.039708
N24   N     N_R   0.926310 0.371020 0.346160 -0.058222
N25   N     N_R   0.926310 0.628980 0.346160 -0.056382
N26   N     N_R   0.073690 0.371020 0.653840 -0.056700
N27   N     N_R   0.625380 0.071720 0.709340 -0.042961
N28   N     N_R   0.125380 0.428280 0.709340 -0.039622
N29   N     N_R   0.874620 0.571720 0.290660 -0.045527
N30   N     N_R   0.874620 0.428280 0.290660 -0.041206
N31   N     N_R   0.125380 0.571720 0.709340 -0.045665
N32   N     N_R   0.386100 0.070250 0.452470 -0.040330
Ni1   Ni    Ni4+2 0.616560 0.000000 0.627280 0.203439
Ni2   Ni    Ni4+2 0.383440 0.000000 0.372720 0.204776
Ni3   Ni    Ni4+2 0.116560 0.500000 0.627280 0.207862
Ni4   Ni    Ni4+2 0.883440 0.500000 0.372720 0.211150
Ni5   Ni    Ni4+2 0.497990 0.870580 0.500000 0.198134
Ni6   Ni    Ni4+2 0.502010 0.129420 0.500000 0.200983
Ni7   Ni    Ni4+2 0.997990 0.370580 0.500000 0.202281
Ni8   Ni    Ni4+2 0.002010 0.629420 0.500000 0.198179

loop_
_geom_bond_atom_site_label_1
_geom_bond_atom_site_label_2
_ccdc_geom_bond_type
N8    Ni4   S    
C20   C144  S    
C45   H26   S    
C42   H17   S    
C102  H42   S    
C86   H87   S    
C6    C25   S    
C41   H5    S    
C61   C80   A    
C39   C120  S    
N30   Ni4   S    
N3    N10   A    
N4    Ni2   S    
C53   H81   S    
C6    H71   S    
C2    C22   S    
C112  N30   A    
C3    C19   S    
C98   N32   A    
C57   H41   S    
C88   C97   A    
C101  C130  A    
N17   Ni8   S    
C49   H33   S    
C45   C47   S    
C11   C20   S    
N13   N32   A    
C105  H45   S    
C110  H50   S    
C70   C93   A    
C103  H43   S    
C17   C127  S    
C55   C133  S    
C49   C124  S    
C60   C76   A    
C29   H113  S    
C82   C91   A    
C72   H92   S    
N19   N23   A    
C43   C44   S    
C37   C38   S    
C26   H105  S    
C27   H103  S    
N7    Ni3   S    
C10   H58   S    
N22   N31   A    
C65   H36   S    
C52   H80   S    
C7    C53   S    
N1    Ni1   S    
C57   C126  A    
C90   N28   A    
C16   C25   S    
C144  H67   S    
C31   H110  S    
C8    C17   S    
C48   H20   S    
C83   H86   S    
C134  H73   S    
C5    C46   S    
C78   H99   S    
C70   H13   S    
C76   H97   S    
C120  N22   A    
C113  N15   A    
C105  C140  A    
C11   C13   S    
C114  N16   A    
C79   H63   S    
C116  N18   A    
C84   C93   A    
C112  C131  A    
C38   H125  S    
C15   H62   S    
C86   C95   A    
C64   C94   A    
N23   Ni2   S    
C5    C21   S    
N12   N20   A    
C28   H100  S    
C6    C52   S    
N5    Ni4   S    
C60   C138  S    
N6    Ni3   S    
C91   C94   A    
C123  C132  A    
C109  C135  A    
C69   C77   A    
C24   H77   S    
N24   N30   A    
C88   H89   S    
C82   H82   S    
C33   H120  S    
C36   C37   S    
C43   H15   S    
C109  N11   A    
N5    N17   A    
C66   C75   A    
C13   C23   S    
C13   C144  S    
C36   C119  S    
C18   C128  S    
C90   C129  A    
N12   Ni2   S    
C71   C92   A    
C12   C142  S    
C112  H96   S    
C124  C129  A    
C64   C73   A    
C109  H49   S    
C55   C81   A    
C99   H39   S    
C7    H72   S    
N32   Ni2   S    
C56   C75   A    
C3    C24   S    
C69   C89   A    
C25   C130  S    
C99   N2    A    
C92   C97   A    
C104  H44   S    
C44   H12   S    
C12   C46   S    
C79   N27   A    
C39   C40   S    
C64   H35   S    
N27   Ni1   S    
C28   H102  S    
C10   C24   S    
C115  H55   S    
C65   C74   A    
C50   H31   S    
C102  C137  A    
N7    N15   A    
C74   H94   S    
C19   C125  S    
C38   H123  S    
N25   Ni8   S    
C5    C9    S    
C29   C30   S    
C4    C22   S    
N24   Ni7   S    
C36   H128  S    
C34   H116  S    
C32   H121  S    
N1    N21   A    
C100  N3    A    
N28   Ni3   S    
C61   C141  S    
C30   H112  S    
C8    H56   S    
C106  H46   S    
C124  N26   A    
C58   C74   A    
C34   H117  S    
C62   C78   A    
N2    N11   A    
C45   H25   S    
C42   H18   S    
C122  N25   A    
C14   C22   S    
N21   Ni5   S    
C58   C83   A    
C56   C137  S    
C41   H4    S    
C7    C23   S    
C54   C135  S    
C111  N14   A    
C12   H60   S    
C13   H76   S    
N8    N14   A    
C90   H74   S    
C111  C141  A    
C9    C18   S    
C49   C50   S    
C114  H54   S    
C107  H47   S    
N25   N29   A    
C108  H48   S    
C37   H127  S    
C142  H65   S    
C62   C140  S    
C3    C16   S    
C100  C136  A    
C42   C121  S    
C111  H51   S    
N19   Ni5   S    
C44   H14   S    
C119  N21   A    
C98   C133  A    
C26   C27   S    
C63   H34   S    
N6    N16   A    
C39   H9    S    
C15   C53   S    
C51   H28   S    
N9    Ni5   S    
C30   C31   S    
C68   N23   A    
C63   C95   A    
C23   C129  S    
C21   C131  S    
C26   H106  S    
C1    H1    S    
C19   C52   S    
N15   Ni8   S    
N16   Ni7   S    
C81   C89   A    
C4    C35   S    
C117  N19   A    
C69   H2    S    
C118  N20   A    
N26   N28   A    
C18   C46   S    
C56   C84   A    
C143  H66   S    
C31   H109  S    
C35   H78   S    
C47   H22   S    
C41   H6    S    
C39   H10   S    
C46   H79   S    
C98   H38   S    
C20   C126  S    
N26   Ni7   S    
C134  C142  S    
C54   C73   A    
N3    Ni1   S    
C36   H3    S    
C59   C139  S    
C10   C19   S    
C67   C91   A    
C50   C51   S    
C99   C135  A    
C68   H52   S    
C11   H59   S    
C117  C127  A    
C68   C127  A    
C9    H57   S    
C119  C125  A    
C66   H37   S    
N18   Ni6   S    
C2    H75   S    
C103  C138  A    
C42   C43   S    
C21   C134  S    
C54   C82   A    
C106  C141  A    
C66   C96   A    
C14   C143  S    
C4    H69   S    
C2    C8    S    
C16   C52   S    
C32   C118  S    
C20   C53   S    
C6    C10   S    
C60   C85   A    
N11   Ni5   S    
C45   C122  S    
C62   C87   A    
C33   H119  S    
C29   H114  S    
C104  C139  A    
C17   C143  S    
C32   C33   S    
C27   H104  S    
C110  N13   A    
C89   C95   A    
C5    H70   S    
C80   H98   S    
C31   H108  S    
C100  H40   S    
C73   H91   S    
N22   Ni8   S    
C63   C72   A    
N4    N9    A    
C14   H61   S    
C77   H95   S    
C101  H85   S    
C17   C35   S    
C49   H32   S    
N2    Ni1   S    
C79   C128  A    
C107  C137  A    
C70   C78   A    
C4    C8    S    
C59   C77   A    
C48   H19   S    
C7    C11   S    
C83   C92   A    
C40   H8    S    
C87   H90   S    
C1    C125  A    
C108  C136  A    
C57   N12   A    
N13   Ni6   S    
C51   H29   S    
C38   H124  S    
C115  N17   A    
C32   H122  S    
C1    N1    A    
C55   C72   A    
C9    C134  S    
C15   C23   S    
C2    C143  S    
C107  N9    A    
C85   H88   S    
C121  C131  A    
N10   Ni6   S    
C71   C80   A    
C48   H21   S    
C18   C142  S    
N20   Ni6   S    
C24   C25   S    
C43   H16   S    
C104  N6    A    
C14   C35   S    
N31   Ni3   S    
N29   Ni4   S    
C58   C136  S    
C29   C117  S    
C12   C21   S    
C40   H7    S    
C123  N31   A    
C123  H107  S    
C61   C88   A    
C47   H23   S    
C85   C94   A    
C47   C48   S    
C115  C138  A    
C87   C96   A    
C33   C34   S    
C113  C140  A    
C114  C139  A    
C40   C41   S    
C93   C96   A    
C71   H24   S    
C105  N7    A    
C106  N8    A    
C37   H126  S    
C103  N5    A    
C84   H84   S    
C67   H118  S    
C108  N10   A    
C3    H68   S    
C81   H83   S    
C22   C132  S    
C120  C132  A    
C44   H11   S    
C101  N29   A    
N18   N27   A    
C16   H64   S    
N14   Ni7   S    
C50   H30   S    
C51   H27   S    
C59   C86   A    
C65   C97   A    
C34   H115  S    
C28   H101  S    
C26   C116  S    
C75   H93   S    
C15   C144  S    
C116  C128  A    
C27   C28   S    
C121  N24   A    
C113  H53   S    
C30   H111  S    
C110  C133  A    
C67   C76   A    
C118  C126  A    
C102  N4    A    
C122  C130  A    
