data_mof_unit_30128.cif
_audit_creation_date              2012-12-11T15:35:03-0500
_audit_creation_method            fapswitch 2.2
_symmetry_space_group_name_H-M    P1
_symmetry_Int_Tables_number       1
_space_group_crystal_system       triclinic
_cell_length_a                    30.589195
_cell_length_b                    7.244809
_cell_length_c                    25.926643
_cell_angle_alpha                 89.997497
_cell_angle_beta                  112.019978
_cell_angle_gamma                 89.996758
_cell_volume                      5326.54894549

loop_
_atom_site_label
_atom_site_type_symbol
_atom_type_description
_atom_site_fract_x
_atom_site_fract_y
_atom_site_fract_z
_atom_type_partial_charge
O1    O     O_R   0.295360 0.592990 0.320420 -0.532915
O2    O     O_R   0.704640 0.407010 0.679580 -0.532916
O3    O     O_R   0.204640 0.092990 0.179580 -0.532937
O4    O     O_R   0.795360 0.907010 0.820420 -0.532937
O5    O     O_R   0.294060 0.265620 0.213230 -0.541537
O6    O     O_R   0.705940 0.734380 0.786770 -0.541537
O7    O     O_R   0.205940 0.765620 0.286770 -0.541550
O8    O     O_R   0.794060 0.234380 0.713230 -0.541551
C1    C     C_R   0.305065 0.432891 0.200582 0.705612
C2    C     C_R   0.694935 0.567109 0.799418 0.705610
C3    C     C_R   0.194933 0.932901 0.299418 0.705576
C4    C     C_R   0.805067 0.067099 0.700582 0.705577
O9    O     O_R   0.300850 0.263360 0.322080 -0.532457
O10   O     O_R   0.699150 0.736640 0.677920 -0.532457
O11   O     O_R   0.199150 0.763360 0.177920 -0.532443
O12   O     O_R   0.800850 0.236640 0.822080 -0.532443
O13   O     O_R   0.211480 0.091820 0.289210 -0.533546
O14   O     O_R   0.788520 0.908180 0.710790 -0.533546
O15   O     O_R   0.288520 0.591820 0.210790 -0.533518
O16   O     O_R   0.711480 0.408180 0.789210 -0.533517
C5    C     C_R   0.313278 0.431447 0.343231 0.681904
C6    C     C_R   0.686722 0.568553 0.656769 0.681903
C7    C     C_R   0.186723 0.931463 0.156770 0.681949
C8    C     C_R   0.813277 0.068537 0.843230 0.681949
O17   O     O_3   0.220670 0.426670 0.239090 -0.374478
O18   O     O_3   0.779330 0.573330 0.760910 -0.374478
O19   O     O_3   0.279330 0.926670 0.260910 -0.374464
O20   O     O_3   0.720670 0.073330 0.739090 -0.374465
V1    V     V_3+5 0.255440 0.152290 0.252020 1.405355
V2    V     V_3+5 0.744560 0.847710 0.747980 1.405357
V3    V     V_3+5 0.244560 0.652290 0.247980 1.405356
V4    V     V_3+5 0.755440 0.347710 0.752020 1.405358
C9    C     C_R   0.850143 0.063927 0.899661 -0.038503
C10   C     C_R   0.149857 0.936073 0.100339 -0.038504
C11   C     C_R   0.649853 0.564014 0.600338 -0.038529
C12   C     C_R   0.350146 0.435987 0.399662 -0.038529
C13   C     C_R   0.873418 0.129880 0.997517 -0.152187
C14   C     C_R   0.126582 0.870115 0.002483 -0.152187
C15   C     C_R   0.626548 0.630530 0.502507 -0.152193
C16   C     C_R   0.373452 0.369479 0.497493 -0.152192
C17   C     C_R   0.838767 0.119598 0.944422 -0.166564
C18   C     C_R   0.161232 0.880398 0.055578 -0.166562
C19   C     C_R   0.661206 0.620077 0.555593 -0.166502
C20   C     C_R   0.338793 0.379928 0.444407 -0.166502
C21   C     C_R   0.897009 0.018616 0.908354 -0.196001
C22   C     C_R   0.102991 0.981386 0.091645 -0.196002
C23   C     C_R   0.602999 0.518483 0.591634 -0.195967
C24   C     C_R   0.397001 0.481517 0.408366 -0.195968
C25   C     C_R   0.933737 0.030908 0.962252 0.062065
C26   C     C_R   0.066263 0.969092 0.037747 0.062065
C27   C     C_R   0.566261 0.530970 0.537747 0.062052
C28   C     C_R   0.433739 0.469036 0.462254 0.062052
C29   C     C_R   0.921002 0.087909 0.007373 0.119283
C30   C     C_R   0.078998 0.912088 0.992627 0.119283
C31   C     C_R   0.578974 0.588367 0.492644 0.119264
C32   C     C_R   0.421025 0.411643 0.507356 0.119264
C33   C     C_R   0.982443 0.991094 0.972554 0.011847
C34   C     C_R   0.017557 0.008905 0.027446 0.011847
C35   C     C_R   0.517563 0.490988 0.527440 0.011836
C36   C     C_R   0.482437 0.509021 0.472561 0.011837
C37   C     C_R   0.002956 0.065501 0.070515 -0.167154
C38   C     C_R   0.997044 0.934496 0.929485 -0.167154
C39   C     C_R   0.497018 0.566000 0.429510 -0.167135
C40   C     C_R   0.502981 0.434013 0.570491 -0.167134
C41   C     C_R   0.955897 0.104095 0.061393 0.127903
C42   C     C_R   0.044103 0.895901 0.938607 0.127903
C43   C     C_R   0.544068 0.604764 0.438637 0.127970
C44   C     C_R   0.455931 0.395251 0.561364 0.127969
H1    H     H_    0.096662 0.020771 0.128250 0.092051
H2    H     H_    0.903339 0.979235 0.871749 0.092050
H3    H     H_    0.403316 0.521180 0.371773 0.092039
H4    H     H_    0.596684 0.478814 0.628227 0.092038
H5    H     H_    0.862355 0.173886 0.030587 0.136623
H6    H     H_    0.137645 0.826106 0.969413 0.136623
H7    H     H_    0.637594 0.674840 0.469452 0.136624
H8    H     H_    0.362405 0.325172 0.530548 0.136624
H9    H     H_    0.027694 0.081983 0.112488 0.127109
H10   H     H_    0.972306 0.918012 0.887512 0.127109
H11   H     H_    0.472270 0.582667 0.387548 0.127101
H12   H     H_    0.527729 0.417351 0.612452 0.127101
C45   C     C_R   0.092095 0.967766 0.479320 0.573210
C46   C     C_R   0.907907 0.032227 0.520683 0.573209
C47   C     C_R   0.407874 0.469332 0.020677 0.573206
C48   C     C_R   0.592122 0.530657 0.979318 0.573206
N1    N     N_R   0.071762 0.959295 0.422324 -0.553808
N2    N     N_R   0.928239 0.040699 0.577678 -0.553808
N3    N     N_R   0.428211 0.459437 0.077652 -0.553815
N4    N     N_R   0.571785 0.540553 0.922343 -0.553814
C49   C     C_R   0.023633 0.964887 0.395430 0.569600
C50   C     C_R   0.976369 0.035108 0.604573 0.569599
C51   C     C_R   0.476351 0.463585 0.104532 0.569666
C52   C     C_R   0.523645 0.536406 0.895463 0.569667
C53   C     C_R   0.994089 0.981427 0.425828 -0.027670
C54   C     C_R   0.005913 0.018566 0.574174 -0.027670
C55   C     C_R   0.505907 0.480022 0.074142 -0.027694
C56   C     C_R   0.494089 0.519967 0.925853 -0.027694
C57   C     C_R   0.014515 0.991178 0.484294 -0.016738
C58   C     C_R   0.985486 0.008815 0.515709 -0.016738
C59   C     C_R   0.485477 0.491216 0.015700 -0.016716
C60   C     C_R   0.514519 0.508773 0.984296 -0.016715
C61   C     C_R   0.063906 0.983553 0.511413 -0.029053
C62   C     C_R   0.936096 0.016440 0.488589 -0.029052
C63   C     C_R   0.436072 0.485108 0.988591 -0.029067
C64   C     C_R   0.563925 0.514881 0.011404 -0.029067
C65   C     C_R   0.944731 0.989075 0.399204 -0.142430
C66   C     C_R   0.055271 0.010919 0.600798 -0.142430
C67   C     C_R   0.555281 0.486148 0.100754 -0.142418
C68   C     C_R   0.444715 0.513841 0.899241 -0.142418
C69   C     C_R   0.916100 0.006389 0.430188 -0.142084
C70   C     C_R   0.083901 0.993604 0.569814 -0.142084
C71   C     C_R   0.583924 0.503385 0.069781 -0.142090
C72   C     C_R   0.416073 0.496604 0.930214 -0.142090
O21   O     O_2   0.139470 0.963653 0.504903 -0.523814
O22   O     O_2   0.860532 0.036338 0.495099 -0.523815
O23   O     O_2   0.360491 0.466619 0.995112 -0.523814
O24   O     O_2   0.639506 0.533369 0.004883 -0.523816
O25   O     O_2   0.004355 0.953822 0.339427 -0.525877
O26   O     O_2   0.995647 0.046175 0.660575 -0.525878
O27   O     O_2   0.495628 0.451181 0.160510 -0.525841
O28   O     O_2   0.504368 0.548812 0.839486 -0.525843
H13   H     H_    0.928027 0.981906 0.354303 0.169897
H14   H     H_    0.071975 0.018088 0.645699 0.169897
H15   H     H_    0.571990 0.477839 0.145639 0.169884
H16   H     H_    0.428006 0.522150 0.854356 0.169884
H17   H     H_    0.878236 0.011701 0.408189 0.170525
H18   H     H_    0.121766 0.988292 0.591813 0.170525
H19   H     H_    0.621800 0.507504 0.091772 0.170507
H20   H     H_    0.378196 0.492485 0.908223 0.170507
C73   C     C_R   0.898139 0.901363 0.644670 -0.092663
C74   C     C_R   0.101864 0.098639 0.355335 -0.092663
C75   C     C_R   0.601700 0.401762 0.855108 -0.092668
C76   C     C_R   0.398295 0.598240 0.144884 -0.092668
H21   H     H_    0.920770 0.783742 0.647310 0.128610
H22   H     H_    0.079234 0.216262 0.352697 0.128607
H23   H     H_    0.578931 0.284463 0.852285 0.128643
H24   H     H_    0.421063 0.715543 0.147704 0.128639
C77   C     C_R   0.868741 0.903423 0.675410 0.098135
C78   C     C_R   0.131261 0.096581 0.324594 0.098138
C79   C     C_R   0.631098 0.403885 0.824365 0.098234
C80   C     C_R   0.368898 0.596121 0.175629 0.098241
C81   C     C_R   0.838450 0.057434 0.670777 -0.062826
C82   C     C_R   0.161551 0.942565 0.329224 -0.062829
C83   C     C_R   0.661556 0.557466 0.829223 -0.062738
C84   C     C_R   0.338442 0.442534 0.170774 -0.062742
C85   C     C_R   0.840033 0.206177 0.636459 -0.240157
C86   C     C_R   0.159966 0.793818 0.363540 -0.240157
C87   C     C_R   0.660149 0.705766 0.863768 -0.240096
C88   C     C_R   0.339851 0.294226 0.136232 -0.240095
C89   C     C_R   0.869567 0.201577 0.606305 -0.093067
C90   C     C_R   0.130433 0.798416 0.393695 -0.093068
C91   C     C_R   0.630626 0.701095 0.893938 -0.093033
C92   C     C_R   0.369372 0.298895 0.106061 -0.093036
H25   H     H_    0.869742 0.317101 0.579880 0.136849
H26   H     H_    0.130257 0.682889 0.420118 0.136846
H27   H     H_    0.630594 0.816246 0.920551 0.136861
H28   H     H_    0.369406 0.183738 0.079451 0.136857
C93   C     C_R   0.898557 0.048618 0.609865 0.339170
C94   C     C_R   0.101444 0.951379 0.390137 0.339174
C95   C     C_R   0.601463 0.548538 0.890150 0.339177
C96   C     C_R   0.398534 0.451457 0.109845 0.339183
C97   C     C_3   0.943952 0.163906 0.110490 -0.763255
H29   H     H_    0.928325 0.304431 0.103011 0.211413
H30   H     H_    0.918597 0.065147 0.116694 0.215288
H31   H     H_    0.975474 0.168683 0.149837 0.217478
C98   C     C_3   0.056048 0.836086 0.889510 -0.763257
H32   H     H_    0.071675 0.695562 0.896990 0.211413
H33   H     H_    0.024526 0.831308 0.850163 0.217478
H34   H     H_    0.081403 0.934845 0.883306 0.215290
C99   C     C_3   0.555991 0.664994 0.389560 -0.763349
H35   H     H_    0.581361 0.566416 0.383304 0.215307
H36   H     H_    0.524463 0.669884 0.350220 0.217393
H37   H     H_    0.571592 0.805548 0.397099 0.211422
C100  C     C_3   0.444008 0.335028 0.610441 -0.763353
H38   H     H_    0.418638 0.433609 0.616696 0.215309
H39   H     H_    0.428407 0.194474 0.602903 0.211422
H40   H     H_    0.475535 0.330140 0.649781 0.217395
H41   H     H_    0.817680 0.325800 0.632109 0.140234
H42   H     H_    0.182318 0.674192 0.367888 0.140234
H43   H     H_    0.682635 0.825059 0.868285 0.140183
H44   H     H_    0.317367 0.174927 0.131719 0.140184
H45   H     H_    0.197197 0.843281 0.061855 0.115124
H46   H     H_    0.802803 0.156713 0.938145 0.115124
H47   H     H_    0.302840 0.342628 0.438122 0.115136
H48   H     H_    0.697160 0.657377 0.561878 0.115137
C101  C     C_3   0.871576 0.742204 0.713390 -0.721005
H49   H     H_    0.877278 0.792399 0.755909 0.197240
H50   H     H_    0.838713 0.659405 0.696743 0.220382
H51   H     H_    0.901323 0.648553 0.716900 0.196846
C102  C     C_3   0.128427 0.257809 0.286617 -0.721007
H52   H     H_    0.122722 0.207624 0.244096 0.197244
H53   H     H_    0.098685 0.351470 0.283114 0.196846
H54   H     H_    0.161293 0.340595 0.303264 0.220379
C103  C     C_3   0.628089 0.243247 0.786133 -0.721321
H55   H     H_    0.622474 0.294120 0.743702 0.196922
H56   H     H_    0.660854 0.159807 0.802666 0.220637
H57   H     H_    0.598224 0.150036 0.782453 0.196994
C104  C     C_3   0.371906 0.756770 0.213857 -0.721322
H58   H     H_    0.377528 0.705910 0.256291 0.196925
H59   H     H_    0.401766 0.849996 0.217529 0.196994
H60   H     H_    0.339137 0.840194 0.197326 0.220634

loop_
_geom_bond_atom_site_label_1
_geom_bond_atom_site_label_2
_ccdc_geom_bond_type
O17   V3    S    
C59   C63   A    
C92   C96   A    
O1    C5    A    
C98   H32   S    
N3    C51   A    
O19   V1    S    
C9    C21   A    
C99   H35   S    
C82   C86   A    
O3    C7    A    
C10   C18   A    
C67   H15   S    
C84   C88   A    
C11   C23   A    
C73   C93   A    
C97   H29   S    
C101  H49   S    
C25   C33   A    
C33   C38   A    
C5    C12   S    
C45   C61   A    
C100  H38   S    
C43   C99   S    
C104  H60   S    
O7    C3    A    
C6    C11   S    
C35   C40   A    
C76   C96   A    
C47   C63   A    
C36   C39   A    
C50   O26   S    
O9    V1    S    
O10   V2    S    
N3    C96   S    
C14   C18   A    
C75   H23   S    
C66   C70   A    
O4    C8    A    
C55   C59   A    
C101  H50   S    
C88   C92   A    
C54   C58   A    
C57   C58   A    
C19   H48   S    
C52   C56   A    
O13   V1    S    
C4    C81   S    
C86   H42   S    
O2    V4    S    
N4    C95   S    
O3    V1    S    
C89   H25   S    
C22   H1    S    
C77   C81   A    
C28   C36   A    
C53   C65   A    
C86   C90   A    
C88   H44   S    
C79   C83   A    
C1    O15   A    
C60   C64   A    
C15   C31   A    
C76   C80   A    
N4    C52   A    
C37   H9    S    
C16   C32   A    
O2    C6    A    
C87   H43   S    
C10   C22   A    
C91   H27   S    
O8    C4    A    
C104  H58   S    
C11   C19   A    
C16   C20   A    
C77   C101  S    
C81   C85   A    
C13   C29   A    
C7    C10   S    
C34   C37   A    
O11   C7    A    
C56   C68   A    
O15   V3    S    
C35   C36   A    
O12   C8    A    
C13   C17   A    
C40   H12   S    
C74   H22   S    
C68   H16   S    
C97   H30   S    
C1    C84   S    
C50   C54   A    
O5    V1    S    
C100  H39   S    
C18   H45   S    
C39   C43   A    
O7    V3    S    
N2    C93   S    
C38   C42   A    
C65   H13   S    
O8    V4    S    
C47   O23   S    
C46   O22   S    
C92   H28   S    
C78   C82   A    
C2    O16   A    
N1    C49   A    
O18   V4    S    
C101  H51   S    
C23   C27   A    
C103  H56   S    
C61   C70   A    
C32   C44   A    
C16   H8    S    
C63   C72   A    
C26   C34   A    
O1    V3    S    
C102  H54   S    
C87   C91   A    
C80   C104  S    
O5    C1    A    
C58   C62   A    
C53   C57   A    
C31   C43   A    
C59   C60   A    
C14   C30   A    
C21   C25   A    
C76   H24   S    
C103  H57   S    
C57   C61   A    
C66   H14   S    
C46   C62   A    
O9    C5    A    
C26   C30   A    
C75   C95   A    
C20   H47   S    
C55   C67   A    
C70   H18   S    
C73   H21   S    
C69   H17   S    
O6    V2    S    
C49   O25   S    
C83   C87   A    
C98   H34   S    
C15   H7    S    
N2    C50   A    
O14   V2    S    
C48   C64   A    
C99   H37   S    
C51   O27   S    
C48   O24   S    
C12   C20   A    
C78   C102  S    
C27   C35   A    
N1    C94   S    
C24   H3    S    
C45   O21   S    
C74   C78   A    
C40   C44   A    
C97   H31   S    
C29   C41   A    
O16   V4    S    
C100  H40   S    
C68   C72   A    
C13   H5    S    
C54   C66   A    
C90   C94   A    
C42   C98   S    
C21   H2    S    
C67   C71   A    
C38   H10   S    
C48   N4    A    
C3    O13   A    
C47   N3    A    
O6    C2    A    
C64   C71   A    
C15   C19   A    
C44   C100  S    
O11   V3    S    
C79   C103  S    
C39   H11   S    
O12   V4    S    
C22   C26   A    
C8    C9    S    
C74   C94   A    
C9    C17   A    
O10   C6    A    
C104  H59   S    
C52   O28   S    
C46   N2    A    
C71   H19   S    
C41   C97   S    
C33   C34   A    
C65   C69   A    
C25   C29   A    
C56   C60   A    
O20   V2    S    
C14   H6    S    
C12   C24   A    
C27   C31   A    
C2    C83   S    
C49   C53   A    
C102  H52   S    
C17   H46   S    
C3    C82   S    
C45   N1    A    
C23   H4    S    
C72   H20   S    
C75   C79   A    
C51   C55   A    
C37   C41   A    
C24   C28   A    
C73   C77   A    
C98   H33   S    
C103  H55   S    
C90   H26   S    
C4    O14   A    
C85   C89   A    
C62   C69   A    
C85   H41   S    
C102  H53   S    
C80   C84   A    
C30   C42   A    
C89   C93   A    
O4    V2    S    
C28   C32   A    
C91   C95   A    
C99   H36   S    
