data_mof_unit_9801.cif
_audit_creation_date              2013-03-05T15:43:09-0500
_audit_creation_method            fapswitch 2.2
_symmetry_space_group_name_H-M    P1
_symmetry_Int_Tables_number       1
_space_group_crystal_system       triclinic
_cell_length_a                    6.946141
_cell_length_b                    13.734579
_cell_length_c                    17.949399
_cell_angle_alpha                 112.33359
_cell_angle_beta                  95.518319
_cell_angle_gamma                 90.318417
_cell_volume                      1574.97123509

loop_
_atom_site_label
_atom_site_type_symbol
_atom_site_description
_atom_site_fract_x
_atom_site_fract_y
_atom_site_fract_z
_atom_type_partial_charge
O1    O     O_R   0.484560 0.544530 0.414330 -0.566686
O2    O     O_R   0.197040 0.638810 0.585080 -0.568562
O3    O     O_R   0.026800 0.455470 0.585670 -0.565487
C1    C     C_R   0.374032 0.678904 0.610447 0.796649
O4    O     O_R   0.155000 0.556150 0.414940 -0.565850
O5    O     O_R   0.984450 0.372220 0.414320 -0.564423
C2    C     C_R   0.317605 0.564881 0.386478 0.836100
O6    O     O_R   0.526900 0.627780 0.585680 -0.571566
O7    O     O_3   0.339170 0.439750 0.499990 -0.233646
V1    V     V_3+5 0.064350 0.511180 0.500000 1.138808
O8    O     O_R   0.654880 0.361190 0.414920 -0.497810
C3    C     C_R   0.817019 0.323149 0.387713 0.806019
O9    O     O_R   0.696930 0.443850 0.585060 -0.551108
C4    C     C_R   0.873157 0.433572 0.612302 0.842034
V2    V     V_3+5 0.564340 0.488820 0.500000 1.187454
O10   O     O_3   0.839390 0.560250 0.500010 -0.296863
C5    C     C_R   0.041767 0.861187 0.822769 -0.092970
C6    C     C_R   0.906297 0.398598 0.680271 -0.098960
C7    C     C_R   0.921528 0.822775 0.683249 -0.057372
C8    C     C_R   0.973188 0.788817 0.745851 -0.082503
C9    C     C_R   0.053984 0.969124 0.837251 -0.118588
C10   C     C_R   0.998907 0.006397 0.774496 0.065771
C11   C     C_R   0.934047 0.930132 0.696685 0.040457
C12   C     C_R   0.003822 0.115925 0.786074 0.025138
C13   C     C_R   0.946012 0.146464 0.719520 0.018817
C14   C     C_R   0.886141 0.066393 0.643335 -0.079971
C15   C     C_R   0.880144 0.960971 0.632513 -0.106211
C16   C     C_R   0.062055 0.195593 0.862275 -0.133328
C17   C     C_R   0.064733 0.302221 0.874822 -0.041974
C18   C     C_R   0.013539 0.333169 0.809223 -0.003816
C19   C     C_R   0.950215 0.255814 0.731114 0.036614
C20   C     C_R   0.029869 0.440063 0.819593 -0.039002
C21   C     C_R   0.977063 0.471957 0.756124 -0.101673
C22   C     C_R   0.895100 0.291375 0.667383 -0.098130
H1    H     H_    0.831020 0.902694 0.572982 0.086845
H2    H     H_    0.846361 0.238383 0.606605 0.107954
H3    H     H_    0.994926 0.554424 0.766097 0.050949
H4    H     H_    0.869222 0.764822 0.624101 0.107484
H5    H     H_    0.957712 0.705784 0.734309 0.051871
H6    H     H_    0.103815 0.021079 0.898239 0.045494
H7    H     H_    0.840720 0.082022 0.590147 0.124571
H8    H     H_    0.103195 0.177449 0.914708 0.100228
H9    H     H_    0.088401 0.500375 0.876310 0.138906
H10   H     H_    0.090857 0.235548 0.292872 0.112610
H11   H     H_    0.837090 0.028942 0.194510 0.150531
C23   C     C_2   0.133421 0.039618 0.181286 -0.203954
C24   C     C_2   0.971116 0.076588 0.216165 -0.040427
C25   C     C_2   0.813478 0.213949 0.325871 0.178797
C26   C     C_2   0.966867 0.181539 0.282144 -0.107713
H12   H     H_    0.267880 0.086832 0.201030 0.137104
C27   C     C_R   0.409337 0.785217 0.677226 -0.099468
C28   C     C_R   0.539041 0.473340 0.825382 -0.098672
C29   C     C_R   0.531116 0.887361 0.816934 -0.057076
C30   C     C_R   0.479560 0.790684 0.754311 -0.080145
C31   C     C_R   0.396506 0.880132 0.663296 -0.119010
C32   C     C_R   0.451020 0.980995 0.726808 0.075690
C33   C     C_R   0.516821 0.981806 0.804262 0.045133
C34   C     C_R   0.444488 0.080692 0.716833 -0.021987
C35   C     C_R   0.501154 0.178023 0.784299 0.025717
C36   C     C_R   0.561687 0.172477 0.859720 -0.064735
C37   C     C_R   0.569669 0.076712 0.869146 -0.108800
C38   C     C_R   0.385559 0.085888 0.641383 -0.140010
C39   C     C_R   0.380840 0.181143 0.630355 0.297676
C40   C     C_R   0.431753 0.277158 0.696352 -0.043254
C41   C     C_R   0.495584 0.277513 0.774180 0.015501
C42   C     C_R   0.415197 0.373412 0.685821 -0.023388
C43   C     C_R   0.467834 0.469224 0.748984 -0.104936
C44   C     C_R   0.550207 0.377883 0.838355 -0.096980
H13   H     H_    0.619418 0.076971 0.928358 0.071158
H14   H     H_    0.599128 0.384946 0.899036 0.089134
H15   H     H_    0.449833 0.541015 0.738119 0.050909
H16   H     H_    0.584320 0.888268 0.875908 0.113591
H17   H     H_    0.496325 0.719551 0.766188 0.053397
H18   H     H_    0.346123 0.872254 0.602547 0.053086
H19   H     H_    0.606039 0.241235 0.913150 0.103234
H20   H     H_    0.345231 0.015919 0.588377 0.121213
H21   H     H_    0.357584 0.376015 0.628617 0.157926
H22   H     H_    0.333759 0.665966 0.193740 0.125219
H23   H     H_    0.614677 0.589988 0.307670 0.111279
C45   C     C_2   0.314006 0.601777 0.318581 -0.217179
C46   C     C_2   0.476243 0.610107 0.284893 -0.084888
H24   H     H_    0.773013 0.635819 0.206813 0.073436
C47   C     C_2   0.634795 0.655399 0.183443 -0.197891
C48   C     C_2   0.472326 0.646215 0.216697 -0.081061
H25   H     H_    0.175913 0.621654 0.295336 0.075370
O11   O     O_R   0.421600 0.630430 0.917010 -0.569252
O12   O     O_R   0.793840 0.702190 0.087630 -0.537689
O13   O     O_R   0.964010 0.886170 0.088190 -0.563539
C49   C     C_R   0.631231 0.692993 0.115929 0.876220
O14   O     O_R   0.751460 0.619510 0.917500 -0.547017
O15   O     O_R   0.921330 0.802900 0.916840 -0.572353
C50   C     C_R   0.574514 0.579159 0.892577 0.820316
O16   O     O_R   0.464290 0.713700 0.088350 -0.556713
O17   O     O_3   0.609200 0.818520 0.002630 -0.288756
V3    V     V_3+5 0.884140 0.747190 0.002530 1.152362
O18   O     O_R   0.251150 0.814630 0.917340 -0.571628
C51   C     C_R   0.074837 0.824517 0.889925 0.805153
O19   O     O_R   0.293530 0.897310 0.087470 -0.549345
C52   C     C_R   0.131190 0.934483 0.115298 0.841688
V4    V     V_3+5 0.384070 0.769710 0.002370 1.133995
O20   O     O_3   0.109180 0.698190 0.002460 -0.255844
N1    N     N_R   0.653768 0.141922 0.318422 0.081458
O21   O     O_R   0.481124 0.176619 0.330695 -0.335471
O22   O     O_R   0.687164 0.047966 0.316694 -0.333776
N2    N     N_R   0.327047 0.178212 0.550185 0.077229
O23   O     O_R   0.445708 0.217851 0.516162 -0.318950
O24   O     O_R   0.177961 0.119760 0.506108 -0.349246
C53   C     C_2   0.119604 0.378887 0.958849 0.823056
O25   O     O_2   0.020914 0.454622 0.988953 -0.615294
O26   O     O_R   0.280123 0.361525 0.004774 -0.773933
H26   H     H_    0.302689 0.418529 0.061175 0.309528

loop_
_geom_bond_atom_site_label_1
_geom_bond_atom_site_label_2
_geom_bond_distance
_ccdc_geom_bond_type
H10   C26   1.086980 S    
C34   C38   1.404951 A    
C31   C32   1.439787 A    
C13   C19   1.435467 A    
C4    C6    1.471308 S    
O2    C1    1.310064 A    
C7    C8    1.389791 A    
C1    O6    1.296154 A    
O14   V3    1.982777 S    
C24   C26   1.480210 S    
C29   C30   1.392053 A    
C53   O25   1.223073 D    
N2    O24   1.301284 A    
C14   C15   1.385630 A    
C17   C18   1.412474 A    
C16   C17   1.394270 A    
O5    C3    1.294112 A    
C18   C19   1.425497 A    
V2    O10   2.142801 S    
C5    C8    1.395106 A    
C32   C33   1.416959 A    
O26   H26   1.013991 S    
C31   H18   1.076899 S    
O8    V2    1.990715 S    
C53   O26   1.398266 S    
O12   V3    2.001528 S    
C17   C53   1.485525 S    
O1    V2    1.998044 S    
C11   C15   1.391369 A    
C39   N2    1.436775 S    
O11   V4    1.982349 S    
O7    V1    2.151111 S    
C43   H15   1.081074 S    
C28   C44   1.417322 A    
C3    C25   1.487040 S    
C42   C43   1.389890 A    
O13   V3    1.977149 S    
C35   C36   1.408734 A    
O9    C4    1.302576 A    
C49   O16   1.292614 A    
C38   H20   1.076139 S    
O17   V3    2.151079 S    
H11   C24   1.084587 S    
C47   C49   1.485158 S    
C1    C27   1.496099 S    
C12   C13   1.433413 A    
O4    C2    1.306574 A    
C8    H5    1.081600 S    
C29   C33   1.401988 A    
C27   C31   1.419356 A    
C15   H1    1.084299 S    
C34   C35   1.442420 A    
C21   H3    1.081858 S    
C36   C37   1.389182 A    
C40   C42   1.408577 A    
C7    C11   1.401496 A    
C45   H25   1.086835 S    
C7    H4    1.083088 S    
C30   H17   1.080870 S    
O14   C50   1.310030 A    
C47   C48   1.353125 D    
O17   V4    1.696886 S    
C41   C44   1.440318 A    
C25   N1    1.444291 S    
O18   C51   1.302761 A    
C38   C39   1.395687 A    
C19   C22   1.426946 A    
O15   C51   1.289592 A    
N1    O22   1.301650 A    
C6    C22   1.401665 A    
O16   V4    2.006407 S    
C28   C43   1.392346 A    
C25   C26   1.360137 D    
O19   C52   1.304856 A    
O6    V2    1.981686 S    
O19   V4    1.990638 S    
O12   C49   1.306629 A    
C10   C12   1.437995 A    
C28   C50   1.494783 S    
O2    V1    1.982748 S    
C46   C48   1.483305 S    
H23   C46   1.086888 S    
C37   H13   1.084191 S    
C42   H21   1.079225 S    
C23   C24   1.349560 D    
O1    C2    1.292767 A    
C12   C16   1.408166 A    
C45   C46   1.353100 D    
O5    V1    1.977146 S    
O8    C3    1.303182 A    
C33   C37   1.396036 A    
O3    C4    1.289087 A    
N2    O23   1.301240 A    
C23   H12   1.083214 S    
C36   H19   1.076160 S    
C27   C30   1.396003 A    
C20   C21   1.387436 A    
C23   C52   1.478042 S    
O9    V2    2.003325 S    
C13   C14   1.412436 A    
O4    V1    2.001565 S    
O3    V1    1.996801 S    
O11   C50   1.295993 A    
C35   C41   1.445526 A    
C18   C20   1.410445 A    
C9    H6    1.076137 S    
O18   V4    2.003354 S    
C40   C41   1.422590 A    
C16   H8    1.075561 S    
V4    O20   2.142842 S    
C20   H9    1.078705 S    
C32   C34   1.447254 A    
C22   H2    1.075760 S    
O7    V2    1.699601 S    
N1    O21   1.300421 A    
C6    C21   1.390578 A    
C5    C9    1.404978 A    
O13   C52   1.289556 A    
O15   V3    1.996629 S    
C39   C40   1.412238 A    
H22   C48   1.086919 S    
C44   H14   1.076747 S    
H24   C47   1.086817 S    
C10   C11   1.418699 A    
V1    O10   1.705173 S    
C9    C10   1.426460 A    
C29   H16   1.082560 S    
C5    C51   1.472727 S    
V3    O20   1.705233 S    
C14   H7    1.074993 S    
C2    C45   1.485358 S    
