data_mof_unit_24345.cif
_audit_creation_date              2012-12-11T14:13:30-0500
_audit_creation_method            fapswitch 2.2
_symmetry_space_group_name_H-M    P1
_symmetry_Int_Tables_number       1
_space_group_crystal_system       triclinic
_cell_length_a                    17.27851
_cell_length_b                    17.279131
_cell_length_c                    17.355435
_cell_angle_alpha                 90.0
_cell_angle_beta                  90.000071
_cell_angle_gamma                 90.000215
_cell_volume                      5181.59767611

loop_
_atom_site_label
_atom_site_type_symbol
_atom_type_description
_atom_site_fract_x
_atom_site_fract_y
_atom_site_fract_z
_atom_type_partial_charge
C1    C     C_R   0.605184 0.303953 0.104135 0.496497
C2    C     C_R   0.188480 0.096907 0.623013 0.538178
C3    C     C_3   0.374449 0.019248 0.682837 -0.923113
C4    C     C_3   0.920252 0.310297 0.680236 0.235518
C5    C     C_3   0.980375 0.374819 0.682122 -0.922316
C6    C     C_3   0.689954 0.920505 0.680711 0.235756
C7    C     C_3   0.625498 0.980696 0.682730 -0.923009
C8    C     C_3   0.079633 0.310193 0.319580 0.235646
C9    C     C_3   0.019490 0.374696 0.317663 -0.922560
C10   C     C_3   0.310127 0.920434 0.319443 0.235722
C11   C     C_3   0.374605 0.980604 0.317472 -0.922816
C12   C     C_3   0.920352 0.689799 0.319589 0.235602
C13   C     C_R   0.902992 0.188585 0.622825 0.537954
C14   C     C_3   0.980490 0.625292 0.317671 -0.922547
C15   C     C_3   0.689854 0.079586 0.319475 0.235690
C16   C     C_3   0.625378 0.019416 0.317507 -0.922781
C17   C     C_R   0.811505 0.903082 0.622987 0.538188
C18   C     C_R   0.096971 0.188550 0.377112 0.538058
C19   C     C_R   0.188526 0.903053 0.377067 0.538079
C20   C     C_R   0.903029 0.811451 0.377111 0.538059
C21   C     C_R   0.811470 0.096950 0.377075 0.538084
C22   C     C_R   0.605736 0.696525 0.100409 -0.195831
C23   C     C_R   0.303469 0.605734 0.100399 -0.195877
C24   C     C_R   0.394264 0.303475 0.100410 -0.195827
C25   C     C_R   0.696047 0.605176 0.104147 0.496486
C26   C     C_R   0.696530 0.394266 0.100400 -0.195879
C27   C     C_R   0.605732 0.303479 0.899578 -0.195847
C28   C     C_R   0.303464 0.394264 0.899615 -0.195878
C29   C     C_R   0.394268 0.696521 0.899578 -0.195853
C30   C     C_R   0.696534 0.605736 0.899611 -0.195870
C31   C     C_R   0.094849 0.186471 0.624722 -0.178221
C32   C     C_R   0.813386 0.095004 0.624484 -0.178081
C33   C     C_R   0.905131 0.813512 0.624692 -0.178201
C34   C     C_R   0.186616 0.904991 0.624478 -0.178113
C35   C     C_R   0.094916 0.813470 0.375378 -0.178103
C36   C     C_R   0.394816 0.696046 0.104135 0.496498
C37   C     C_R   0.813437 0.905050 0.375429 -0.178199
C38   C     C_R   0.905079 0.186534 0.375385 -0.178102
C39   C     C_R   0.186566 0.094954 0.375435 -0.178217
C40   C     C_R   0.683074 0.317472 0.116636 -0.042915
C41   C     C_R   0.682530 0.683063 0.116653 -0.042921
C42   C     C_R   0.316926 0.682527 0.116635 -0.042918
C43   C     C_R   0.317470 0.316938 0.116655 -0.042926
C44   C     C_R   0.683083 0.682533 0.883390 -0.042918
C45   C     C_R   0.682523 0.316945 0.883322 -0.042896
C46   C     C_R   0.316914 0.317466 0.883398 -0.042916
C47   C     C_R   0.303954 0.394824 0.104149 0.496493
C48   C     C_R   0.317477 0.683055 0.883322 -0.042893
C49   C     C_R   0.166611 0.835255 0.657080 -0.073137
C50   C     C_R   0.164539 0.166413 0.657402 -0.073307
C51   C     C_R   0.833388 0.164743 0.657081 -0.073143
C52   C     C_R   0.835433 0.833563 0.657360 -0.073317
C53   C     C_R   0.166543 0.164677 0.342812 -0.073173
C54   C     C_R   0.164629 0.833506 0.342735 -0.073256
C55   C     C_R   0.833459 0.835327 0.342806 -0.073194
C56   C     C_R   0.835364 0.166500 0.342745 -0.073256
C57   C     C_2   0.810917 0.719193 0.839440 -0.132205
C58   C     C_R   0.605191 0.696051 0.895882 0.496468
C59   C     C_2   0.280847 0.810839 0.839248 -0.132243
C60   C     C_2   0.189072 0.280801 0.839468 -0.132185
C61   C     C_2   0.719154 0.189160 0.839251 -0.132245
C62   C     C_2   0.810889 0.280823 0.160636 -0.132221
C63   C     C_2   0.280817 0.189135 0.160670 -0.132234
C64   C     C_2   0.189109 0.719177 0.160630 -0.132214
C65   C     C_2   0.719183 0.810867 0.160665 -0.132233
C66   C     C_2   0.235406 0.154131 0.222083 -0.135544
C67   C     C_2   0.845904 0.235402 0.222035 -0.135490
C68   C     C_2   0.764593 0.845873 0.222078 -0.135528
C69   C     C_R   0.696044 0.394829 0.895839 0.496501
C70   C     C_2   0.154090 0.764599 0.222027 -0.135493
C71   C     C_2   0.235455 0.845822 0.777813 -0.135589
C72   C     C_2   0.845955 0.764629 0.778061 -0.135458
C73   C     C_2   0.764546 0.154176 0.777816 -0.135572
C74   C     C_2   0.154025 0.235358 0.778098 -0.135475
C75   C     C_2   0.741514 0.740553 0.865930 -0.122693
C76   C     C_2   0.259465 0.741464 0.865778 -0.122692
C77   C     C_2   0.258480 0.259444 0.865949 -0.122704
C78   C     C_2   0.740536 0.258536 0.865780 -0.122691
C79   C     C_2   0.741496 0.259456 0.134127 -0.122699
C80   C     C_R   0.394807 0.303947 0.895888 0.496462
C81   C     C_2   0.259450 0.258525 0.134165 -0.122674
C82   C     C_2   0.258503 0.740544 0.134125 -0.122701
C83   C     C_2   0.740551 0.741477 0.134160 -0.122674
C84   C     C_2   0.210455 0.198777 0.280388 -0.204459
C85   C     C_2   0.801259 0.210416 0.280327 -0.204422
C86   C     C_2   0.789548 0.801227 0.280382 -0.204448
C87   C     C_2   0.198734 0.789588 0.280319 -0.204421
C88   C     C_2   0.210517 0.801161 0.719512 -0.204476
C89   C     C_2   0.801323 0.789637 0.719769 -0.204388
C90   C     C_2   0.789483 0.198837 0.719514 -0.204462
C91   C     C_R   0.303956 0.605171 0.895839 0.496501
C92   C     C_2   0.198650 0.210345 0.719805 -0.204388
C93   C     C_3   0.553241 0.196905 0.159217 0.239145
C94   C     C_3   0.517723 0.117908 0.142655 -0.903417
C95   C     C_3   0.803089 0.553225 0.159240 0.239107
C96   C     C_3   0.882092 0.517712 0.142687 -0.903402
C97   C     C_3   0.446759 0.803091 0.159220 0.239151
C98   C     C_3   0.482276 0.882090 0.142663 -0.903434
C99   C     C_3   0.196921 0.446777 0.159256 0.239114
C100  C     C_3   0.117913 0.482285 0.142715 -0.903416
C101  C     C_3   0.553260 0.803119 0.840828 0.239199
C102  C     C_R   0.097003 0.811417 0.622830 0.537974
C103  C     C_3   0.517725 0.882103 0.857411 -0.903485
C104  C     C_3   0.803080 0.446786 0.840736 0.239057
C105  C     C_3   0.882090 0.482289 0.857283 -0.903330
C106  C     C_3   0.446734 0.196874 0.840844 0.239213
C107  C     C_3   0.482270 0.117891 0.857434 -0.903501
C108  C     C_3   0.196923 0.553213 0.840734 0.239059
C109  C     C_3   0.117911 0.517715 0.857279 -0.903321
C110  C     C_3   0.079722 0.689719 0.680261 0.235568
C111  C     C_3   0.019587 0.625208 0.682156 -0.922382
C112  C     C_3   0.309987 0.079433 0.680811 0.235823
H1    H     H_    0.580226 0.752302 0.090012 0.187101
H2    H     H_    0.759080 0.066192 0.631258 0.204295
H3    H     H_    0.863075 0.338734 0.673888 0.109926
H4    H     H_    0.982432 0.405033 0.625667 0.276997
H5    H     H_    0.965062 0.417376 0.727272 0.219678
H6    H     H_    0.038512 0.351489 0.695922 0.241120
H7    H     H_    0.722518 0.924620 0.736004 0.087352
H8    H     H_    0.661425 0.863364 0.674484 0.109907
H9    H     H_    0.595142 0.982760 0.626351 0.277032
H10   H     H_    0.583041 0.965454 0.727997 0.219824
H11   H     H_    0.648915 0.038812 0.696451 0.241131
H12   H     H_    0.075498 0.277724 0.264234 0.087251
H13   H     H_    0.934025 0.759269 0.631613 0.204005
H14   H     H_    0.136802 0.338661 0.325856 0.109905
H15   H     H_    0.017471 0.404978 0.374084 0.277002
H16   H     H_    0.034751 0.417199 0.272447 0.219725
H17   H     H_    0.961347 0.351342 0.303938 0.241122
H18   H     H_    0.277610 0.924554 0.264123 0.087304
H19   H     H_    0.338629 0.863282 0.325698 0.109909
H20   H     H_    0.404927 0.982646 0.373870 0.277025
H21   H     H_    0.417084 0.965355 0.272229 0.219777
H22   H     H_    0.351216 0.038731 0.303750 0.241132
H23   H     H_    0.924482 0.722261 0.264238 0.087267
H24   H     H_    0.240928 0.933792 0.631235 0.204309
H25   H     H_    0.863182 0.661337 0.325881 0.109912
H26   H     H_    0.982518 0.595018 0.374095 0.277000
H27   H     H_    0.965217 0.582781 0.272466 0.219727
H28   H     H_    0.038630 0.648647 0.303930 0.241132
H29   H     H_    0.722356 0.075479 0.264145 0.087308
H30   H     H_    0.661356 0.136739 0.325750 0.109917
H31   H     H_    0.595090 0.017338 0.373922 0.277035
H32   H     H_    0.582869 0.034689 0.272299 0.219780
H33   H     H_    0.648764 0.961298 0.303739 0.241116
H34   H     H_    0.066052 0.759204 0.368508 0.204086
H35   H     H_    0.759155 0.933894 0.368593 0.204179
H36   H     H_    0.933943 0.240800 0.368518 0.204085
H37   H     H_    0.240850 0.066114 0.368607 0.204183
H38   H     H_    0.834088 0.661661 0.848788 0.136864
H39   H     H_    0.338376 0.834016 0.848614 0.136895
H40   H     H_    0.165902 0.338334 0.848814 0.136860
H41   H     H_    0.247692 0.580222 0.089997 0.187099
H42   H     H_    0.661624 0.165983 0.848616 0.136885
H43   H     H_    0.834061 0.338355 0.151286 0.136876
H44   H     H_    0.338346 0.165956 0.151306 0.136884
H45   H     H_    0.165936 0.661645 0.151279 0.136873
H46   H     H_    0.661654 0.834046 0.151301 0.136879
H47   H     H_    0.227302 0.091770 0.222435 0.140264
H48   H     H_    0.908270 0.227322 0.222391 0.140216
H49   H     H_    0.772694 0.908234 0.222430 0.140253
H50   H     H_    0.091724 0.772678 0.222382 0.140214
H51   H     H_    0.227349 0.908183 0.777446 0.140310
H52   H     H_    0.419773 0.247698 0.090013 0.187105
H53   H     H_    0.908322 0.772699 0.777714 0.140181
H54   H     H_    0.772652 0.091816 0.777450 0.140292
H55   H     H_    0.091657 0.227287 0.777759 0.140175
H56   H     H_    0.722401 0.799857 0.857714 0.142414
H57   H     H_    0.200164 0.722345 0.857533 0.142437
H58   H     H_    0.277592 0.200139 0.857735 0.142406
H59   H     H_    0.799836 0.277654 0.857536 0.142437
H60   H     H_    0.722380 0.200153 0.142351 0.142431
H61   H     H_    0.200150 0.277647 0.142405 0.142435
H62   H     H_    0.277619 0.799846 0.142350 0.142429
H63   H     H_    0.752308 0.419777 0.089998 0.187093
H64   H     H_    0.799851 0.722356 0.142399 0.142431
H65   H     H_    0.223510 0.260022 0.281485 0.123695
H66   H     H_    0.740010 0.223456 0.281422 0.123679
H67   H     H_    0.776495 0.739982 0.281477 0.123683
H68   H     H_    0.259983 0.776547 0.281417 0.123689
H69   H     H_    0.223558 0.739913 0.718439 0.123674
H70   H     H_    0.740075 0.776593 0.718656 0.123693
H71   H     H_    0.776440 0.260084 0.718441 0.123665
H72   H     H_    0.259895 0.223401 0.718678 0.123731
H73   H     H_    0.509884 0.232717 0.190565 0.082472
H74   H     H_    0.580224 0.247701 0.909969 0.187056
H75   H     H_    0.603998 0.188463 0.197648 0.065563
H76   H     H_    0.563455 0.076835 0.123927 0.256068
H77   H     H_    0.489181 0.095156 0.195273 0.208957
H78   H     H_    0.473612 0.122222 0.096364 0.266975
H79   H     H_    0.767271 0.509865 0.190577 0.082490
H80   H     H_    0.811525 0.603975 0.197681 0.065574
H81   H     H_    0.923172 0.563446 0.123978 0.256070
H82   H     H_    0.904835 0.489159 0.195303 0.208937
H83   H     H_    0.877788 0.473613 0.096385 0.266956
H84   H     H_    0.490116 0.767278 0.190567 0.082478
H85   H     H_    0.247690 0.419779 0.910025 0.187113
H86   H     H_    0.396001 0.811531 0.197652 0.065563
H87   H     H_    0.436544 0.923160 0.123928 0.256067
H88   H     H_    0.510810 0.904843 0.195284 0.208969
H89   H     H_    0.526393 0.877778 0.096377 0.266966
H90   H     H_    0.232741 0.490139 0.190587 0.082498
H91   H     H_    0.188493 0.396027 0.197698 0.065567
H92   H     H_    0.076836 0.436550 0.124006 0.256070
H93   H     H_    0.095175 0.510832 0.195336 0.208946
H94   H     H_    0.122210 0.526389 0.096416 0.266946
H95   H     H_    0.509916 0.767311 0.809456 0.082459
H96   H     H_    0.419776 0.752299 0.909970 0.187063
H97   H     H_    0.604025 0.811584 0.802413 0.065572
H98   H     H_    0.563442 0.923171 0.876186 0.256082
H99   H     H_    0.489210 0.904880 0.804789 0.208995
H100  H     H_    0.473590 0.877762 0.903677 0.266968
H101  H     H_    0.767263 0.490156 0.809413 0.082499
H102  H     H_    0.811506 0.396043 0.802285 0.065575
H103  H     H_    0.923169 0.436546 0.875971 0.256071
H104  H     H_    0.904824 0.510858 0.804673 0.208898
H105  H     H_    0.877798 0.526376 0.903598 0.266948
H106  H     H_    0.490076 0.232678 0.809466 0.082459
H107  H     H_    0.752309 0.580222 0.910019 0.187115
H108  H     H_    0.395967 0.188403 0.802433 0.065577
H109  H     H_    0.436557 0.076831 0.876235 0.256078
H110  H     H_    0.510765 0.095101 0.804807 0.209020
H111  H     H_    0.526421 0.122241 0.903684 0.266958
H112  H     H_    0.232740 0.509841 0.809414 0.082503
H113  H     H_    0.188502 0.603956 0.802280 0.065570
H114  H     H_    0.076837 0.563459 0.875977 0.256077
H115  H     H_    0.095170 0.489159 0.804664 0.208902
H116  H     H_    0.122201 0.473621 0.903586 0.266932
H117  H     H_    0.075615 0.722137 0.735639 0.087222
H118  H     H_    0.065947 0.240707 0.631659 0.203988
H119  H     H_    0.136894 0.661270 0.673925 0.109921
H120  H     H_    0.017526 0.594985 0.625706 0.277003
H121  H     H_    0.034889 0.582656 0.727313 0.219689
H122  H     H_    0.961453 0.648548 0.695949 0.241111
H123  H     H_    0.277378 0.075277 0.736075 0.087339
H124  H     H_    0.338525 0.136576 0.674653 0.109887
H125  H     H_    0.404895 0.017280 0.626502 0.277006
H126  H     H_    0.416829 0.034424 0.728196 0.219819
H127  H     H_    0.351027 0.961105 0.696433 0.241171
H128  H     H_    0.924364 0.277892 0.735621 0.087223
N1    N     N_R   0.574080 0.369570 0.076720 -0.091146
N2    N     N_R   0.130430 0.074080 0.576720 -0.089502
N3    N     N_R   0.925920 0.130430 0.576720 -0.089492
N4    N     N_R   0.869570 0.925920 0.576720 -0.089499
N5    N     N_R   0.074080 0.130430 0.423280 -0.089479
N6    N     N_R   0.130430 0.925920 0.423280 -0.089510
N7    N     N_R   0.925920 0.869570 0.423280 -0.089480
N8    N     N_R   0.869570 0.074080 0.423280 -0.089507
N9    N     N_R   0.574050 0.630410 0.076720 -0.077055
N10   N     N_R   0.369590 0.574050 0.076720 -0.077064
N11   N     N_R   0.425950 0.369590 0.076720 -0.077054
N12   N     N_R   0.630430 0.574080 0.076720 -0.091153
N13   N     N_R   0.630410 0.425950 0.076720 -0.077062
N14   N     N_R   0.574050 0.369590 0.923280 -0.077047
N15   N     N_R   0.369590 0.425950 0.923280 -0.077068
N16   N     N_R   0.425950 0.630410 0.923280 -0.077048
N17   N     N_R   0.630410 0.574050 0.923280 -0.077066
N18   N     N_R   0.074050 0.130410 0.576720 -0.076918
N19   N     N_R   0.869590 0.074050 0.576720 -0.077037
N20   N     N_R   0.925950 0.869590 0.576720 -0.076929
N21   N     N_R   0.130410 0.925950 0.576720 -0.077046
N22   N     N_R   0.074050 0.869590 0.423280 -0.076955
N23   N     N_R   0.425920 0.630430 0.076720 -0.091148
N24   N     N_R   0.869590 0.925950 0.423280 -0.077004
N25   N     N_R   0.925950 0.130410 0.423280 -0.076958
N26   N     N_R   0.130410 0.074050 0.423280 -0.077010
N27   N     N_R   0.369570 0.425920 0.076720 -0.091156
N28   N     N_R   0.574080 0.630430 0.923280 -0.091143
N29   N     N_R   0.630430 0.425920 0.923280 -0.091152
N30   N     N_R   0.425920 0.369570 0.923280 -0.091142
N31   N     N_R   0.369570 0.574080 0.923280 -0.091153
N32   N     N_R   0.074080 0.869570 0.576720 -0.089492
Ni1   Ni    Ni4+2 0.500000 0.370760 0.000000 0.250345
Ni2   Ni    Ni4+2 0.629240 0.500000 0.000000 0.250316
Ni3   Ni    Ni4+2 0.500000 0.629240 0.000000 0.250343
Ni4   Ni    Ni4+2 0.370760 0.500000 0.000000 0.250313
Ni5   Ni    Ni4+2 0.000000 0.870760 0.500000 0.260626
Ni6   Ni    Ni4+2 0.129240 0.000000 0.500000 0.260445
Ni7   Ni    Ni4+2 1.000000 0.129240 0.500000 0.260638
Ni8   Ni    Ni4+2 0.870760 0.000000 0.500000 0.260460
O1    O     O_3   0.574339 0.231973 0.088792 -0.625985
O2    O     O_3   0.262560 0.066035 0.616041 -0.642671
O3    O     O_3   0.933822 0.262660 0.615661 -0.642481
O4    O     O_3   0.737431 0.933957 0.615990 -0.642685
O5    O     O_3   0.066129 0.262624 0.384219 -0.642520
O6    O     O_3   0.262602 0.933912 0.384122 -0.642641
O7    O     O_3   0.933872 0.737377 0.384219 -0.642527
O8    O     O_3   0.737395 0.066092 0.384138 -0.642641
O9    O     O_3   0.768031 0.574330 0.088812 -0.626006
O10   O     O_3   0.425662 0.768026 0.088794 -0.625989
O11   O     O_3   0.231970 0.425673 0.088823 -0.626009
O12   O     O_3   0.574349 0.768029 0.911244 -0.625993
O13   O     O_3   0.768030 0.425674 0.911167 -0.625998
O14   O     O_3   0.425648 0.231971 0.911257 -0.625995
O15   O     O_3   0.231970 0.574327 0.911165 -0.625998
O16   O     O_3   0.066167 0.737345 0.615674 -0.642494

loop_
_geom_bond_atom_site_label_1
_geom_bond_atom_site_label_2
_ccdc_geom_bond_type
C106  H108  S    
C10   H18   S    
N32   Ni5   S    
C105  H103  S    
N25   Ni7   S    
C30   N17   A    
C68   C86   D    
C72   H53   S    
C48   C76   S    
C98   H89   S    
C36   C42   A    
C95   C96   S    
C42   C82   S    
C28   N15   A    
C59   C71   S    
C47   O11   S    
C11   H20   S    
C4    O3    S    
C93   O1    S    
C97   C98   S    
C109  H115  S    
C39   N26   A    
C2    O2    S    
C18   O5    S    
C39   C53   A    
C68   H49   S    
N26   Ni6   S    
C33   C52   A    
C36   O10   S    
C60   C74   S    
C28   C46   A    
N17   Ni2   S    
C93   C94   S    
C23   C42   A    
C71   H51   S    
N29   Ni2   S    
C63   C81   D    
C53   C84   S    
C103  H99   S    
C97   H84   S    
C16   H32   S    
C38   N25   A    
C94   H76   S    
C73   C90   D    
C27   H74   S    
C23   N10   A    
C91   N31   A    
N13   Ni2   S    
C11   H21   S    
C51   C90   S    
C54   C87   S    
C108  H112  S    
C25   N12   A    
C65   C83   D    
C22   C41   A    
C106  C107  S    
N1    Ni1   S    
C15   C16   S    
C41   C83   S    
C31   H118  S    
C106  O14   S    
N4    Ni8   S    
C111  H122  S    
C108  C109  S    
C103  H98   S    
C12   O7    S    
C97   O10   S    
C60   H40   S    
C29   N16   A    
C74   C92   D    
N6    Ni6   S    
C10   O6    S    
C110  C111  S    
C74   H55   S    
N21   N32   A    
C78   H59   S    
C2    C50   A    
C18   C53   A    
N24   Ni8   S    
C87   H68   S    
C10   H19   S    
C17   O4    S    
C108  O15   S    
C22   H1    S    
C82   H62   S    
N21   Ni6   S    
N5    N26   A    
C17   N4    A    
C44   C58   A    
C8    C9    S    
N9    N12   A    
C48   C91   A    
N4    N20   A    
C64   H45   S    
N9    Ni3   S    
N16   Ni3   S    
C45   C78   S    
C64   C70   S    
C66   C84   D    
C101  H95   S    
C61   C78   D    
N7    N24   A    
C1    C40   A    
C95   H79   S    
C107  H110  S    
C58   O12   S    
C27   C45   A    
C96   H82   S    
C63   C66   S    
C101  C103  S    
C105  H104  S    
C13   C51   A    
C83   H64   S    
C61   H42   S    
C35   C54   A    
C111  H120  S    
N2    N18   A    
N30   Ni1   S    
C30   C44   A    
C52   C89   S    
C24   H52   S    
N17   N28   A    
C14   H27   S    
C7    H9    S    
C20   C55   A    
C99   O11   S    
C70   C87   D    
C70   H50   S    
C17   C52   A    
C6    H8    S    
C66   H47   S    
C21   O8    S    
C109  H116  S    
C21   N8    A    
C107  H111  S    
C110  H119  S    
C20   N7    A    
C61   C73   S    
N31   Ni4   S    
N27   Ni4   S    
N16   N31   A    
C6    O4    S    
C60   C77   D    
C67   C85   D    
C9    H16   S    
N8    Ni8   S    
C29   C48   A    
C45   C69   A    
N10   Ni4   S    
C36   N23   A    
C14   H26   S    
C62   C79   D    
C16   H31   S    
C22   N9    A    
C92   H72   S    
C11   H22   S    
C25   C41   A    
C49   C102  A    
C100  H94   S    
C103  H100  S    
C77   H58   S    
C102  O16   S    
N8    N25   A    
C96   H83   S    
N14   Ni1   S    
C104  O13   S    
C112  H124  S    
C19   O6    S    
C110  O16   S    
C12   H23   S    
N22   Ni5   S    
C8    H12   S    
C5    H5    S    
C16   H33   S    
C20   O7    S    
C81   H61   S    
C79   H60   S    
N7    Ni5   S    
C44   C75   S    
C94   H78   S    
C32   C51   A    
C110  H117  S    
C21   C56   A    
C15   H30   S    
C2    N2    A    
C99   C100  S    
C34   H24   S    
C3    C112  S    
C109  H114  S    
C65   C68   S    
N19   Ni8   S    
C57   H38   S    
C33   H13   S    
C26   C40   A    
C4    H128  S    
C40   C79   S    
C15   O8    S    
N5    Ni7   S    
N3    N19   A    
C1    O1    S    
C37   H35   S    
C29   H96   S    
C64   C82   D    
C46   C80   A    
C67   H48   S    
C1    N1    A    
C95   H80   S    
C3    H125  S    
C8    O5    S    
C62   C67   S    
C19   C54   A    
C80   O14   S    
C96   H81   S    
C106  H106  S    
C12   C14   S    
N23   Ni3   S    
C23   H41   S    
C5    H4    S    
C43   C81   S    
C69   O13   S    
C9    H17   S    
N1    N13   A    
N2    Ni6   S    
C31   C50   A    
N3    Ni7   S    
C93   H75   S    
C6    H7    S    
C35   N22   A    
C62   H43   S    
C8    H14   S    
C112  O2    S    
C9    H15   S    
C50   C92   S    
C34   C49   A    
C34   N21   A    
C99   H91   S    
C4    H3    S    
C3    H127  S    
C97   H86   S    
C32   N19   A    
C13   O3    S    
N11   Ni1   S    
C14   H28   S    
C65   H46   S    
C26   N13   A    
N6    N22   A    
C104  C105  S    
C63   H44   S    
C46   C77   S    
C100  H93   S    
C108  H113  S    
C6    C7    S    
C59   H39   S    
C112  H123  S    
C49   C88   S    
C39   H37   S    
N14   N29   A    
C105  H105  S    
C28   H85   S    
C98   H88   S    
N15   Ni4   S    
C75   H56   S    
C101  H97   S    
C89   H70   S    
C57   C75   D    
C55   C86   S    
C102  N32   A    
C94   H77   S    
C104  H102  S    
C99   H90   S    
C104  H101  S    
C47   N27   A    
N20   Ni5   S    
C100  H92   S    
C18   N5    A    
C98   H87   S    
C56   C85   S    
C13   N3    A    
N12   Ni2   S    
C26   H63   S    
N28   Ni3   S    
C91   O15   S    
C86   H67   S    
C111  H121  S    
C85   H66   S    
N11   N27   A    
C31   N18   A    
C80   N30   A    
C95   O9    S    
C57   C72   S    
C76   H57   S    
C73   H54   S    
C27   N14   A    
N10   N23   A    
C37   N24   A    
C58   N28   A    
C10   C11   S    
C38   H36   S    
C3    H126  S    
C69   N29   A    
C71   C88   D    
C37   C55   A    
C5    H6    S    
C4    C5    S    
C38   C56   A    
C90   H71   S    
C24   N11   A    
C33   N20   A    
C25   O9    S    
N18   Ni7   S    
C24   C43   A    
C15   H29   S    
C12   H25   S    
C30   H107  S    
C72   C89   D    
C7    H10   S    
C32   H2    S    
C88   H69   S    
C43   C47   A    
C59   C76   D    
C35   H34   S    
C101  O12   S    
C19   N6    A    
C7    H11   S    
C84   H65   S    
C107  H109  S    
N15   N30   A    
C93   H73   S    
