data_mof_unit_10528.cif
_audit_creation_date              2012-12-10T17:27:50-0500
_audit_creation_method            fapswitch 2.2
_symmetry_space_group_name_H-M    P1
_symmetry_Int_Tables_number       1
_space_group_crystal_system       triclinic
_cell_length_a                    10.619574
_cell_length_b                    12.002609
_cell_length_c                    12.829722
_cell_angle_alpha                 93.669184
_cell_angle_beta                  90.380226
_cell_angle_gamma                 86.367575
_cell_volume                      1628.67354613

loop_
_atom_site_label
_atom_site_type_symbol
_atom_type_description
_atom_site_fract_x
_atom_site_fract_y
_atom_site_fract_z
_atom_type_partial_charge
Br1   Br    Br    0.743852 0.990737 0.694515 -0.553270
C1    C     C_R   0.498167 0.522447 0.700245 0.845911
C2    C     C_R   0.574141 0.621544 0.858230 -0.228230
C3    C     C_R   0.453112 0.457691 0.869232 -0.255383
C4    C     C_R   0.739365 0.500308 0.500545 0.872845
C5    C     C_R   0.474541 0.459226 0.975305 0.140194
C6    C     C_R   0.548233 0.542382 0.024232 0.150411
C7    C     C_R   0.569791 0.542606 0.131596 0.119452
C8    C     C_R   0.443601 0.379237 0.138686 -0.240953
C9    C     C_R   0.425430 0.376896 0.032144 -0.219319
C10   C     C_R   0.380602 0.954410 0.404645 -0.288105
C11   C     C_R   0.391751 0.838402 0.413537 0.015986
C12   C     C_R   0.932775 0.535593 0.597754 0.094558
C13   C     C_R   0.552707 0.857761 0.541206 -0.003602
C14   C     C_R   0.544964 0.975539 0.535583 0.015340
C15   C     C_R   0.457255 0.023947 0.465838 0.048568
C16   C     C_R   0.506399 0.477768 0.299797 0.897560
C17   C     C_R   0.448246 0.141150 0.459081 -0.057648
C18   C     C_R   0.608188 0.162632 0.587114 -0.010453
C19   C     C_R   0.621261 0.046524 0.596919 0.156711
C20   C     C_R   0.260628 0.499791 0.499808 0.916908
C21   C     C_R   0.866313 0.568971 0.690808 -0.149261
C22   C     C_R   0.930850 0.601021 0.781769 -0.109341
C23   C     C_R   0.871398 0.501271 0.504872 -0.111715
C24   C     C_R   0.062002 0.600042 0.781496 -0.119999
C25   C     C_R   0.128818 0.567200 0.690230 -0.153598
C26   C     C_R   0.064570 0.534745 0.597228 0.045317
C27   C     C_3   0.153064 0.527839 0.254091 -0.794390
C28   C     C_3   0.608010 0.733092 0.201367 -0.722991
C29   C     C_R   0.935708 0.466072 0.413624 -0.273530
C30   C     C_R   0.065052 0.466882 0.411556 0.201687
C31   C     C_R   0.128222 0.500389 0.503353 -0.132011
C32   C     C_R   0.511341 0.463576 0.188304 -0.117357
C33   C     C_R   0.504531 0.537193 0.811213 -0.040306
C34   C     C_R   0.598189 0.622954 0.964281 -0.196686
H1    H     H_    0.884838 0.440431 0.343352 0.136943
H2    H     H_    0.764657 0.569829 0.693912 0.123517
H3    H     H_    0.879038 0.626263 0.852660 0.140667
H4    H     H_    0.112165 0.624526 0.852187 0.140464
H5    H     H_    0.230542 0.567113 0.693345 0.128991
H6    H     H_    0.399102 0.318756 0.183111 0.175689
H7    H     H_    0.656883 0.686315 0.997851 0.177303
H8    H     H_    0.092777 0.370312 0.273675 0.227904
H9    H     H_    0.061682 0.568872 0.229854 0.241224
H10   H     H_    0.206377 0.496882 0.182861 0.243758
H11   H     H_    0.209152 0.590174 0.298185 0.255696
H12   H     H_    0.370251 0.312662 0.994624 0.157446
H13   H     H_    0.709406 0.585804 0.240671 0.223435
H14   H     H_    0.606235 0.755265 0.286664 0.256547
H15   H     H_    0.511413 0.748906 0.169278 0.235743
H16   H     H_    0.672637 0.788547 0.165233 0.228632
H17   H     H_    0.615048 0.682697 0.812273 0.169516
H18   H     H_    0.398863 0.392973 0.831044 0.155976
H19   H     H_    0.381606 0.179484 0.405781 0.138342
H20   H     H_    0.666492 0.217350 0.633864 0.170292
H21   H     H_    0.312518 0.989393 0.350515 0.146586
H22   H     H_    0.332544 0.784918 0.366343 0.135515
H23   H     H_    0.618548 0.817402 0.593620 0.172213
N1    N     N_R   0.523130 0.207800 0.519340 -0.123122
N2    N     N_R   0.476870 0.792180 0.480660 -0.116557
N3    N     N_2   0.131424 0.435102 0.317043 -0.314634
N4    N     N_2   0.654639 0.617471 0.181369 -0.317175
O1    O     O_R   0.506170 0.421690 0.658830 -0.617977
O2    O     O_R   0.491330 0.609320 0.646410 -0.624394
O3    O     O_R   0.690660 0.406170 0.506210 -0.614059
O4    O     O_R   0.675810 0.593790 0.493790 -0.624226
O5    O     O_R   0.508670 0.390680 0.353590 -0.618359
O6    O     O_R   0.493830 0.578310 0.341170 -0.615770
O7    O     O_R   0.324190 0.406210 0.506210 -0.611519
O8    O     O_R   0.309340 0.593830 0.493790 -0.623646
Zn1   Zn    Zn3+2 0.509910 0.374720 0.508290 0.955163
Zn2   Zn    Zn3+2 0.490090 0.625280 0.491710 0.940575

loop_
_geom_bond_atom_site_label_1
_geom_bond_atom_site_label_2
_ccdc_geom_bond_type
C5    C9    A    
C10   C11   A    
C5    C6    A    
C29   H1    S    
C3    H18   S    
C22   H3    S    
C13   N2    A    
C8    C9    A    
C30   N3    S    
H13   N4    S    
C30   C31   A    
C2    C34   A    
C20   O8    A    
C2    H17   S    
C27   H11   S    
C27   N3    S    
C1    C33   S    
C22   C24   A    
C24   C25   A    
C6    C7    A    
C4    O4    A    
C28   H14   S    
C24   H4    S    
C8    C32   A    
C28   N4    S    
C25   H5    S    
C25   C26   A    
C29   C30   A    
C4    C23   S    
C16   C32   S    
C11   H22   S    
C12   C23   A    
C4    O3    A    
C1    O2    A    
C12   C21   A    
O5    Zn1   S    
C28   H15   S    
O2    Zn2   S    
C28   H16   S    
C14   C19   A    
C13   H23   S    
C20   C31   S    
C3    C33   A    
C27   H10   S    
C16   O5    A    
C23   C29   A    
C17   H19   S    
C14   C15   A    
C11   N2    A    
C17   N1    A    
C6    C34   A    
C20   O7    A    
N1    Zn1   S    
C1    O1    A    
H8    N3    S    
C15   C17   A    
C3    C5    A    
C10   C15   A    
C18   H20   S    
C9    H12   S    
O7    Zn1   S    
C34   H7    S    
N2    Zn2   S    
C13   C14   A    
C12   C26   A    
C16   O6    A    
O8    Zn2   S    
O6    Zn2   S    
C2    C33   A    
C18   N1    A    
C26   C31   A    
O3    Zn1   S    
C21   H2    S    
C8    H6    S    
C27   H9    S    
C21   C22   A    
O4    Zn2   S    
C10   H21   S    
C18   C19   A    
C7    N4    S    
O1    Zn1   S    
C7    C32   A    
Br1   C19   S    
