data_mof_unit_55475.cif
_audit_creation_date              2012-12-10T18:52:15-0500
_audit_creation_method            fapswitch 2.2
_symmetry_space_group_name_H-M    P1
_symmetry_Int_Tables_number       1
_space_group_crystal_system       triclinic
_cell_length_a                    15.718475
_cell_length_b                    10.719297
_cell_length_c                    9.88393
_cell_angle_alpha                 89.987759
_cell_angle_beta                  89.954195
_cell_angle_gamma                 90.875136
_cell_volume                      1665.15843823

loop_
_atom_site_label
_atom_site_type_symbol
_atom_type_description
_atom_site_fract_x
_atom_site_fract_y
_atom_site_fract_z
_atom_type_partial_charge
C1    C     C_R   0.499888 0.259993 0.499960 0.872064
C2    C     C_R   0.500112 0.740007 0.500040 0.872063
C3    C     C_R   0.499907 0.936148 0.376604 -0.183566
C4    C     C_R   0.500093 0.063852 0.623396 -0.183566
C5    C     C_R   0.500100 0.872535 0.500021 -0.014828
C6    C     C_R   0.499900 0.127465 0.499979 -0.014827
C7    C     C_R   0.553544 0.578114 0.072024 -0.014626
C8    C     C_R   0.446456 0.421886 0.927976 -0.014626
C9    C     C_R   0.553536 0.578076 0.927758 -0.013591
C10   C     C_R   0.446464 0.421924 0.072242 -0.013590
C11   C     C_R   0.337963 0.499755 0.500029 0.916069
C12   C     C_R   0.662037 0.500245 0.499970 0.916070
C13   C     C_3   0.970480 0.406570 0.579744 -0.209707
C14   C     C_3   0.029520 0.593432 0.420239 -0.209680
C15   C     C_3   0.026349 0.391248 0.452629 0.155222
C16   C     C_3   0.973652 0.608754 0.547355 0.155192
C17   C     C_1   0.249054 0.499713 0.500176 -0.168556
C18   C     C_1   0.750946 0.500286 0.499821 -0.168556
C19   C     C_3   0.028370 0.516406 0.627851 -0.205105
C20   C     C_3   0.971630 0.483597 0.372133 -0.205100
C21   C     C_3   0.082884 0.499831 0.500193 0.141947
C22   C     C_3   0.917117 0.500170 0.499791 0.141956
C23   C     C_1   0.173763 0.499776 0.500273 -0.078234
C24   C     C_1   0.826238 0.500222 0.499718 -0.078232
C25   C     C_R   0.499830 0.063862 0.376583 -0.183495
C26   C     C_R   0.500170 0.936138 0.623417 -0.183496
H1    H     H_    0.944539 0.329915 0.643910 0.140136
H2    H     H_    0.055462 0.670081 0.356067 0.140119
H3    H     H_    0.946582 0.469493 0.268178 0.139670
H4    H     H_    0.053415 0.530527 0.731807 0.139684
H5    H     H_    0.499752 0.112238 0.280324 0.164071
H6    H     H_    0.500248 0.887762 0.719676 0.164070
H7    H     H_    0.499772 0.887779 0.280360 0.164005
H8    H     H_    0.500228 0.112221 0.719640 0.164005
N1    N     N_R   0.499980 0.499970 0.857200 -0.124676
N2    N     N_R   0.500020 0.500030 0.142800 -0.124676
O1    O     O_R   0.499990 0.316750 0.614620 -0.626298
O2    O     O_R   0.500010 0.683250 0.385380 -0.626298
O3    O     O_R   0.500000 0.316780 0.385290 -0.626278
O4    O     O_R   0.500000 0.683220 0.614710 -0.626278
O5    O     O_R   0.376780 0.499970 0.614640 -0.611069
O6    O     O_R   0.623220 0.500030 0.385360 -0.611070
O7    O     O_R   0.376780 0.500000 0.385310 -0.611282
O8    O     O_R   0.623220 0.500000 0.614690 -0.611281
Zn1   Zn    Zn3+2 0.500000 0.499980 0.653120 0.966230
Zn2   Zn    Zn3+2 0.500000 0.500020 0.346880 0.966229
C27   C     C_3   0.059652 0.267516 0.399201 -0.420264
C28   C     C_3   0.986361 0.179505 0.358550 -0.342176
C29   C     C_3   0.019650 0.054903 0.308166 -0.872465
H9    H     H_    0.058891 0.069030 0.215764 0.264418
H10   H     H_    0.058828 0.010211 0.387419 0.263456
H11   H     H_    0.965282 0.991640 0.283333 0.250228
H12   H     H_    0.944032 0.162436 0.446901 0.219537
H13   H     H_    0.948245 0.222886 0.276902 0.222852
H14   H     H_    0.101114 0.286502 0.310187 0.210513
H15   H     H_    0.098457 0.223471 0.479575 0.208830
C30   C     C_3   0.940343 0.732485 0.600779 -0.420334
C31   C     C_3   0.013614 0.820576 0.641280 -0.342069
C32   C     C_3   0.980295 0.945245 0.691461 -0.872364
H16   H     H_    0.941088 0.989826 0.612152 0.263389
H17   H     H_    0.941073 0.931243 0.783924 0.264380
H18   H     H_    0.034654 0.008552 0.716135 0.250222
H19   H     H_    0.051746 0.777311 0.722983 0.222805
H20   H     H_    0.055944 0.837546 0.552897 0.219504
H21   H     H_    0.901471 0.776451 0.520452 0.208906
H22   H     H_    0.898948 0.713513 0.689861 0.210496
C33   C     C_1   0.610359 0.660810 0.145105 0.224272
N3    N     N_1   0.656157 0.727403 0.202959 -0.219505
C34   C     C_1   0.389641 0.339190 0.854895 0.224273
N4    N     N_1   0.343842 0.272596 0.797041 -0.219504
C35   C     C_1   0.610427 0.660660 0.854474 0.224281
N5    N     N_1   0.656301 0.727150 0.796476 -0.222086
C36   C     C_1   0.389573 0.339340 0.145526 0.224281
N6    N     N_1   0.343699 0.272850 0.203524 -0.222092

loop_
_geom_bond_atom_site_label_1
_geom_bond_atom_site_label_2
_ccdc_geom_bond_type
C25   H5    S    
C26   H6    S    
C7    N2    A    
C15   C27   S    
C30   H22   S    
C28   H13   S    
C8    C34   S    
C17   C23   T    
C18   C24   T    
C14   C21   S    
C19   C21   S    
O6    Zn2   S    
C10   C36   S    
C6    C25   A    
C3    H7    S    
C36   N6    T    
C12   O6    A    
C29   H10   S    
N2    Zn2   S    
C1    O1    A    
C32   H16   S    
O4    Zn1   S    
C20   H3    S    
C31   H20   S    
C28   H12   S    
C4    H8    S    
C32   H17   S    
C13   C19   S    
C33   N3    T    
C14   C20   S    
C3    C25   A    
C4    C6    A    
C31   C32   S    
C1    C6    S    
C15   C20   S    
C8    N1    A    
C2    O2    A    
C27   C28   S    
C29   H11   S    
C11   O7    A    
O3    Zn2   S    
C28   C29   S    
C20   C22   S    
C21   C23   S    
C22   C24   S    
C2    C5    S    
O1    Zn1   S    
N1    Zn1   S    
O8    Zn1   S    
C27   H14   S    
C31   H19   S    
C7    C9    A    
C11   C17   S    
C32   H18   S    
C16   C22   S    
C9    C35   S    
C30   H21   S    
C3    C5    A    
C4    C26   A    
C13   C15   S    
C35   N5    T    
C12   O8    A    
C30   C31   S    
C16   C19   S    
C13   C22   S    
C11   O5    A    
C14   C16   S    
C16   C30   S    
C34   N4    T    
O7    Zn2   S    
O2    Zn2   S    
C1    O3    A    
C7    C33   S    
C5    C26   A    
C2    O4    A    
C15   C21   S    
C8    C10   A    
C29   H9    S    
C12   C18   S    
C9    N1    A    
O5    Zn1   S    
C13   H1    S    
C10   N2    A    
C14   H2    S    
C19   H4    S    
C27   H15   S    
