data_mof_unit_46689.cif
_audit_creation_date              2013-03-05T16:08:45-0500
_audit_creation_method            fapswitch 2.2
_symmetry_space_group_name_H-M    P1
_symmetry_Int_Tables_number       1
_space_group_crystal_system       triclinic
_cell_length_a                    26.5987
_cell_length_b                    11.598778
_cell_length_c                    10.769103
_cell_angle_alpha                 90.006954
_cell_angle_beta                  90.008462
_cell_angle_gamma                 91.044214
_cell_volume                      3321.85017506

loop_
_atom_site_label
_atom_site_type_symbol
_atom_site_description
_atom_site_fract_x
_atom_site_fract_y
_atom_site_fract_z
_atom_type_partial_charge
O1    O     O_R   0.500000 0.334450 0.602530 -0.605995
O2    O     O_R   0.500000 0.665550 0.397470 -0.616374
O3    O     O_R   0.500000 0.665550 0.602530 -0.606338
O4    O     O_R   0.500000 0.334450 0.397470 -0.615591
C1    C     C_R   0.500142 0.281100 0.499992 0.906415
C2    C     C_R   0.499790 0.718895 0.499999 0.910037
O5    O     O_R   0.428750 0.500000 0.602520 -0.610161
O6    O     O_R   0.571250 0.500000 0.397480 -0.601624
O7    O     O_R   0.571250 0.500000 0.602520 -0.608915
O8    O     O_R   0.428750 0.500000 0.397480 -0.602808
C3    C     C_R   0.404803 0.499765 0.500204 1.034958
C4    C     C_R   0.595197 0.500238 0.500229 1.034280
Zn1   Zn    Zn3+2 0.500000 0.500000 0.636920 1.003524
Zn2   Zn    Zn3+2 0.500000 0.500000 0.363080 0.999131
C5    C     C_R   0.175304 0.374252 0.654602 0.590993
C6    C     C_R   0.823936 0.637132 0.652513 0.590432
C7    C     C_R   0.187987 0.558069 0.736790 0.684075
C8    C     C_R   0.811845 0.455268 0.739910 0.687229
O9    O     O_2   0.197359 0.272078 0.636115 -0.464656
O10   O     O_2   0.801468 0.738304 0.631021 -0.463226
O11   O     O_2   0.221912 0.617159 0.806065 -0.489416
O12   O     O_2   0.778032 0.396911 0.810171 -0.490090
N1    N     N_R   0.203632 0.474732 0.655890 -0.330671
N2    N     N_R   0.796004 0.536145 0.656424 -0.330609
C9    C     C_R   0.275709 0.600322 0.576925 0.379667
C10   C     C_R   0.725036 0.406288 0.579549 0.380865
C11   C     C_R   0.269355 0.403906 0.503752 0.323941
C12   C     C_R   0.729942 0.601445 0.502150 0.322836
C13   C     C_R   0.326330 0.605027 0.536410 0.293254
C14   C     C_R   0.674451 0.398765 0.539094 0.293436
C15   C     C_R   0.321429 0.402073 0.481522 0.365505
C16   C     C_R   0.677858 0.600708 0.479571 0.367721
C17   C     C_R   0.249650 0.491887 0.581258 -0.070031
C18   C     C_R   0.750244 0.515793 0.581664 -0.070932
C19   C     C_R   0.103675 0.483008 0.721967 -0.208158
C20   C     C_R   0.895928 0.531432 0.722950 -0.211804
C21   C     C_R   0.123284 0.377617 0.680319 -0.102488
C22   C     C_R   0.875977 0.635443 0.678734 -0.101056
C23   C     C_R   0.136308 0.575176 0.753398 -0.163109
C24   C     C_R   0.863556 0.439624 0.757301 -0.172329
C25   C     C_R   0.090279 0.282944 0.657241 0.358014
C26   C     C_R   0.908624 0.730401 0.654264 0.364198
C27   C     C_R   0.116299 0.678567 0.801779 0.317636
C28   C     C_R   0.883934 0.337793 0.808338 0.323778
C29   C     C_R   0.350020 0.502498 0.503725 -0.361593
C30   C     C_R   0.650011 0.499596 0.503830 -0.362279
C31   C     C_R   0.968022 0.411184 0.757736 -0.025390
C32   C     C_R   0.031784 0.604750 0.755565 -0.029294
C33   C     C_R   0.980037 0.618144 0.728294 -0.006567
C34   C     C_R   0.019535 0.397363 0.729958 0.001575
C35   C     C_R   0.947850 0.520860 0.738403 -0.073845
C36   C     C_R   0.051833 0.494528 0.738034 -0.078600
C37   C     C_R   0.936591 0.320713 0.802568 0.474293
C38   C     C_R   0.063576 0.695932 0.797508 0.474983
C39   C     C_R   0.961003 0.719717 0.674771 0.339886
C40   C     C_R   0.037977 0.295399 0.676559 0.347864
C41   C     C_1   0.500072 0.160947 0.499979 -0.174980
C42   C     C_1   0.499703 0.839036 0.499988 -0.173021
C43   C     C_1   0.499931 0.059134 0.499956 -0.000367
C44   C     C_1   0.499752 0.940845 0.499957 -0.000811
N3    N     N_1   0.500000 0.500000 0.180630 -0.075189
N4    N     N_1   0.500000 0.500000 0.819370 -0.074273
C45   C     C_1   0.499999 0.500002 0.069738 0.054278
C46   C     C_1   0.499999 0.500001 0.930265 0.055973
O13   O     O_3   0.344261 0.309260 0.424282 -0.609323
C47   C     C_3   0.337178 0.206089 0.493341 0.135479
H1    H     H_    0.352361 0.134877 0.436284 0.159256
H2    H     H_    0.296853 0.184107 0.508913 0.215074
C48   C     C_3   0.365588 0.209588 0.617575 -0.433999
H3    H     H_    0.404724 0.240444 0.601969 0.236276
H4    H     H_    0.347139 0.270493 0.682091 0.228104
C49   C     C_3   0.366531 0.090619 0.677965 -0.871324
H5    H     H_    0.327602 0.057941 0.694702 0.274545
H6    H     H_    0.386559 0.096398 0.768283 0.274787
H7    H     H_    0.386557 0.028959 0.617400 0.260371
O14   O     O_3   0.654238 0.691707 0.420899 -0.608809
C50   C     C_3   0.660945 0.796477 0.487409 0.134418
H8    H     H_    0.644182 0.865611 0.430158 0.158532
H9    H     H_    0.701196 0.821170 0.499199 0.215402
C51   C     C_3   0.634226 0.793754 0.613961 -0.433609
H10   H     H_    0.595298 0.759953 0.602305 0.235763
H11   H     H_    0.654321 0.735584 0.678369 0.228770
C52   C     C_3   0.632564 0.913812 0.671661 -0.872186
H12   H     H_    0.671279 0.949412 0.684387 0.273726
H13   H     H_    0.613855 0.908652 0.763704 0.275392
H14   H     H_    0.610923 0.972764 0.611408 0.259984
O15   O     O_3   0.354019 0.707575 0.536967 -0.636472
C53   C     C_3   0.340704 0.776118 0.433304 0.042501
H15   H     H_    0.347754 0.867758 0.459112 0.168063
H16   H     H_    0.300115 0.768648 0.407928 0.163119
C54   C     C_3   0.373003 0.747859 0.320007 -0.352665
H17   H     H_    0.413289 0.756284 0.345075 0.242597
H18   H     H_    0.365054 0.657827 0.289693 0.235733
C55   C     C_3   0.362333 0.829073 0.212111 -0.895551
H19   H     H_    0.322241 0.821318 0.183893 0.277339
H20   H     H_    0.386237 0.806263 0.131554 0.273086
H21   H     H_    0.371026 0.919729 0.239085 0.261133
O16   O     O_3   0.647507 0.295262 0.542354 -0.635355
C56   C     C_3   0.661080 0.225248 0.440075 0.042317
H22   H     H_    0.655027 0.133893 0.468260 0.169082
H23   H     H_    0.701505 0.234209 0.413543 0.161822
C57   C     C_3   0.628025 0.249468 0.326970 -0.352538
H24   H     H_    0.587915 0.240333 0.353466 0.240725
H25   H     H_    0.635215 0.338946 0.293866 0.235385
C58   C     C_3   0.638702 0.165915 0.221170 -0.895274
H26   H     H_    0.678617 0.174245 0.191641 0.276991
H27   H     H_    0.614273 0.185878 0.140652 0.273254
H28   H     H_    0.630705 0.075727 0.250991 0.259750
O17   O     O_3   0.239042 0.330744 0.434394 -0.693616
H29   H     H_    0.205932 0.367518 0.424039 0.347189
O18   O     O_3   0.759770 0.674263 0.431201 -0.694052
H30   H     H_    0.793130 0.638462 0.421714 0.347574
O19   O     O_3   0.250256 0.700292 0.603151 -0.756314
H31   H     H_    0.274654 0.763318 0.622168 0.368359
O20   O     O_3   0.751281 0.307970 0.608153 -0.757140
H32   H     H_    0.727390 0.244126 0.627815 0.368401
O21   O     O_3   0.109021 0.182686 0.607450 -0.718148
H33   H     H_    0.083090 0.120645 0.613633 0.345747
O22   O     O_3   0.889302 0.829488 0.603108 -0.715950
H34   H     H_    0.915539 0.890969 0.602902 0.348772
O23   O     O_3   0.147156 0.762583 0.852491 -0.739376
H35   H     H_    0.172102 0.784320 0.787851 0.370650
O24   O     O_3   0.853585 0.254609 0.862343 -0.735121
H36   H     H_    0.828501 0.230583 0.798917 0.371183
O25   O     O_3   0.959300 0.228900 0.862393 -0.634360
C59   C     C_3   0.939926 0.119733 0.825150 0.187610
H37   H     H_    0.970194 0.074209 0.776175 0.163251
H38   H     H_    0.908007 0.122142 0.758481 0.143536
C60   C     C_3   0.925338 0.050107 0.940786 -0.345581
H39   H     H_    0.958124 0.046371 0.004539 0.220052
H40   H     H_    0.894358 0.093178 0.990688 0.274966
C61   C     C_3   0.908620 0.927548 0.907667 -0.902421
H41   H     H_    0.875989 0.928761 0.843348 0.296597
H42   H     H_    0.897368 0.880493 0.993320 0.272709
H43   H     H_    0.940088 0.881307 0.863631 0.282083
O26   O     O_3   0.041109 0.788173 0.857406 -0.632096
C62   C     C_3   0.061113 0.897452 0.822423 0.198049
H44   H     H_    0.030761 0.945647 0.776985 0.166713
H45   H     H_    0.092071 0.895505 0.753019 0.138740
C63   C     C_3   0.077229 0.963608 0.939331 -0.344980
H46   H     H_    0.045084 0.966510 0.005105 0.220125
H47   H     H_    0.108397 0.918513 0.986223 0.276737
C64   C     C_3   0.094229 0.086629 0.909227 -0.903886
H48   H     H_    0.126340 0.086314 0.843332 0.300000
H49   H     H_    0.106404 0.131094 0.995741 0.273098
H50   H     H_    0.062625 0.134834 0.868304 0.275597
O27   O     O_3   0.993912 0.801053 0.624995 -0.657147
C65   C     C_3   0.008543 0.763752 0.505266 0.066419
H51   H     H_    0.976495 0.769863 0.439082 0.164844
H52   H     H_    0.021482 0.672793 0.506080 0.096943
C66   C     C_3   0.052602 0.838158 0.458684 -0.336144
H53   H     H_    0.083072 0.839460 0.529361 0.215809
H54   H     H_    0.067771 0.799727 0.372195 0.190418
C67   C     C_3   0.036613 0.961002 0.431188 -0.820672
H55   H     H_    0.009050 0.961218 0.353718 0.240539
H56   H     H_    0.069970 0.013951 0.403490 0.258757
H57   H     H_    0.019401 0.999811 0.514835 0.290908
O28   O     O_3   0.004526 0.219710 0.618994 -0.665596
C68   C     C_3   0.994646 0.259545 0.496553 0.086726
H58   H     H_    0.015341 0.205791 0.429013 0.170017
H59   H     H_    0.006789 0.350996 0.479154 0.088704
C69   C     C_3   0.938216 0.251996 0.468970 -0.367897
H60   H     H_    0.917202 0.298424 0.542015 0.210560
H61   H     H_    0.930692 0.295116 0.378860 0.192139
C70   C     C_3   0.918953 0.127663 0.461364 -0.774033
H62   H     H_    0.935674 0.083797 0.380056 0.243639
H63   H     H_    0.877424 0.126315 0.450717 0.260073
H64   H     H_    0.928735 0.080477 0.547071 0.260439

loop_
_geom_bond_atom_site_label_1
_geom_bond_atom_site_label_2
_geom_bond_distance
_ccdc_geom_bond_type
C64   H50   1.109327 S    
C47   H2    1.110695 S    
O15   C53   1.419187 S    
C70   H62   1.109788 S    
C2    C42   1.393533 S    
C19   C23   1.405985 A    
O18   H30   0.991805 S    
C65   C66   1.527491 S    
O3    C2    1.265835 A    
O24   H36   0.991149 S    
C50   H8    1.111317 S    
C11   C17   1.425545 A    
C32   C38   1.415908 A    
C58   H27   1.110435 S    
C7    N1    1.371532 A    
C52   H12   1.110927 S    
O1    C1    1.265775 A    
C19   C21   1.410898 A    
C63   H47   1.109793 S    
C60   H39   1.111299 S    
C32   C36   1.406863 A    
C48   H3    1.107450 S    
C51   C52   1.526185 S    
C68   H58   1.110522 S    
C57   H25   1.110701 S    
C26   O22   1.382066 S    
C41   C43   1.180838 T    
C47   C48   1.536610 S    
C42   C44   1.180831 T    
C64   H48   1.110567 S    
O16   C56   1.419016 S    
C64   H49   1.110214 S    
C57   C58   1.525735 S    
C48   H4    1.111380 S    
C7    C23   1.403876 A    
C66   C67   1.523434 S    
N3    C45   1.194211 T    
O7    Zn1   1.931079 S    
C10   O20   1.382643 S    
C5    C21   1.412387 A    
C20   C24   1.406752 A    
C40   O28   1.384887 S    
C5    O9    1.346681 S    
C28   C37   1.419467 A    
C10   C18   1.425576 A    
Zn1   N4    1.964822 S    
O27   C65   1.416780 S    
C61   H41   1.110660 S    
C33   C35   1.408161 A    
C34   C36   1.407262 A    
C66   H53   1.111646 S    
C68   H59   1.118979 S    
C27   O23   1.375517 S    
N4    C46   1.194244 T    
O3    Zn1   1.955611 S    
C6    O10   1.346601 S    
C31   C37   1.414736 A    
C60   C61   1.523971 S    
C5    N1    1.376291 A    
C47   H1    1.111299 S    
C12   C18   1.425287 A    
C43   C44   1.371932 S    
C6    N2    1.376247 A    
C49   H5    1.110905 S    
C21   C25   1.415266 A    
O2    C2    1.265692 A    
C16   C30   1.400262 A    
C49   H7    1.111076 S    
C58   H28   1.111140 S    
C31   C34   1.414441 A    
C69   H61   1.111565 S    
C50   H9    1.110460 S    
C12   O18   1.379317 S    
C9    C13   1.415552 A    
C62   C63   1.531400 S    
C11   C15   1.406216 A    
C57   H24   1.107619 S    
C61   H43   1.108841 S    
C12   C16   1.406371 A    
C63   H46   1.111351 S    
C67   H57   1.109590 S    
C51   H11   1.111385 S    
O8    Zn2   1.931079 S    
C54   H17   1.107571 S    
O4    C1    1.265760 A    
C31   C35   1.405135 A    
C59   C60   1.530512 S    
N1    C17   1.474870 S    
C33   C39   1.413632 A    
Zn2   N3    1.964823 S    
C34   C40   1.411057 A    
C13   C29   1.400893 A    
C4    C30   1.458656 S    
C48   C49   1.526159 S    
O5    C3    1.272605 A    
C25   C40   1.416626 A    
C9    O19   1.382458 S    
C26   C39   1.418208 A    
C54   H18   1.110677 S    
C69   C70   1.523804 S    
C62   H45   1.112682 S    
C27   C38   1.421138 A    
C39   O27   1.383382 S    
C56   H22   1.111167 S    
C53   C54   1.531230 S    
C24   C28   1.419267 A    
O6    C4    1.276644 A    
C38   O26   1.393225 S    
C52   H14   1.110968 S    
C67   H55   1.110597 S    
C68   C69   1.530969 S    
O14   C50   1.418946 S    
C63   C64   1.523892 S    
C55   H20   1.110442 S    
O23   H35   0.991223 S    
C20   C35   1.398613 A    
C37   O25   1.391938 S    
C61   H42   1.110196 S    
C49   H6    1.110326 S    
C32   C33   1.418642 A    
C56   H23   1.115623 S    
C53   H16   1.115458 S    
C10   C14   1.415376 A    
C70   H64   1.106524 S    
O28   C68   1.423260 S    
C8    N2    1.371257 A    
C3    C29   1.458567 S    
O1    Zn1   1.955524 S    
C59   H38   1.112532 S    
O19   H31   0.990011 S    
C62   H44   1.104597 S    
C50   C51   1.537178 S    
C15   O13   1.389756 S    
O6    Zn2   1.930972 S    
C52   H13   1.110311 S    
C8    O12   1.348222 S    
C67   H56   1.110680 S    
C14   C30   1.400834 A    
C65   H52   1.115698 S    
C51   H10   1.107583 S    
C16   O14   1.390031 S    
C23   C27   1.419867 A    
O22   H34   0.988652 S    
C22   C26   1.414886 A    
C69   H60   1.110052 S    
C58   H26   1.110877 S    
C14   O16   1.387354 S    
C28   O24   1.375760 S    
C55   H21   1.111100 S    
C1    C41   1.393598 S    
C20   C22   1.409667 A    
O21   H33   0.989899 S    
C54   C55   1.525743 S    
O25   C59   1.416242 S    
C59   H37   1.104857 S    
C65   H51   1.114339 S    
C66   H54   1.111573 S    
O4    Zn2   1.955612 S    
C55   H19   1.110882 S    
O2    Zn2   1.955523 S    
O7    C4    1.272537 A    
N2    C18   1.474640 S    
C13   O15   1.387534 S    
O8    C3    1.276576 A    
C45   C46   1.501993 S    
O5    Zn1   1.930972 S    
C56   C57   1.531128 S    
C8    C24   1.403172 A    
C53   H15   1.111244 S    
C11   O17   1.379426 S    
C70   H63   1.110351 S    
O13   C47   1.418678 S    
C15   C29   1.399955 A    
C9    C17   1.425732 A    
C19   C36   1.398593 A    
O26   C62   1.416766 S    
C25   O21   1.381797 S    
O17   H29   0.991786 S    
O20   H32   0.989919 S    
C6    C22   1.413168 A    
C60   H40   1.110151 S    
C7    O11   1.348214 S    
