data_mof_unit_30598.cif
_audit_creation_date              2013-03-05T15:52:48-0500
_audit_creation_method            fapswitch 2.2
_symmetry_space_group_name_H-M    P1
_symmetry_Int_Tables_number       1
_space_group_crystal_system       triclinic
_cell_length_a                    6.958075
_cell_length_b                    14.759728
_cell_length_c                    21.316534
_cell_angle_alpha                 74.717414
_cell_angle_beta                  90.457575
_cell_angle_gamma                 90.068615
_cell_volume                      2111.70954604

loop_
_atom_site_label
_atom_site_type_symbol
_atom_site_description
_atom_site_fract_x
_atom_site_fract_y
_atom_site_fract_z
_atom_type_partial_charge
O1    O     O_R   0.648150 0.130050 0.214300 -0.593826
O2    O     O_R   0.351850 0.869950 0.785700 -0.593826
O3    O     O_R   0.320490 0.006660 0.340150 -0.592648
O4    O     O_R   0.679510 0.993340 0.659850 -0.592642
O5    O     O_R   0.146100 0.869940 0.285700 -0.592305
O6    O     O_R   0.853900 0.130060 0.714300 -0.592307
C1    C     C_R   0.489098 0.002708 0.366829 0.940733
C2    C     C_R   0.510902 0.997287 0.633172 0.940729
O7    O     O_R   0.318690 0.137980 0.218120 -0.593887
O8    O     O_R   0.681310 0.862020 0.781880 -0.593885
O9    O     O_R   0.144280 0.002190 0.162800 -0.596594
O10   O     O_R   0.855720 0.997810 0.837200 -0.596609
C3    C     C_R   0.486876 0.175610 0.205779 0.926495
C4    C     C_R   0.513123 0.824390 0.794222 0.926494
O11   O     O_R   0.649960 0.997790 0.337200 -0.596487
O12   O     O_R   0.350040 0.002210 0.662800 -0.596486
O13   O     O_3   0.479300 0.955290 0.231990 -0.276012
O14   O     O_3   0.520700 0.044710 0.768010 -0.276018
V1    V     V_3+5 0.206040 0.008290 0.253340 1.157575
V2    V     V_3+5 0.793960 0.991710 0.746660 1.157568
O15   O     O_R   0.814320 0.993320 0.159850 -0.599017
O16   O     O_R   0.185680 0.006680 0.840150 -0.599008
C5    C     C_R   0.982294 0.998064 0.133060 0.922681
C6    C     C_R   0.017706 0.001936 0.866940 0.922653
O17   O     O_R   0.816120 0.862000 0.281880 -0.594433
O18   O     O_R   0.183880 0.138000 0.718120 -0.594431
C7    C     C_R   0.985056 0.824392 0.294521 0.953734
C8    C     C_R   0.014944 0.175608 0.705478 0.953723
V3    V     V_3+5 0.705540 0.991700 0.246660 1.157836
V4    V     V_3+5 0.294460 0.008300 0.753340 1.157834
O19   O     O_3   0.982150 0.044700 0.268010 -0.274728
O20   O     O_3   0.017850 0.955300 0.731990 -0.274724
C9    C     C_R   0.993814 0.722582 0.321927 -0.150772
C10   C     C_R   0.006188 0.277416 0.678062 -0.150774
C11   C     C_R   0.985873 0.565277 0.307203 0.324579
C12   C     C_R   0.014010 0.434733 0.692767 0.324597
C13   C     C_R   0.996472 0.662781 0.281142 -0.205527
C14   C     C_R   0.003389 0.337230 0.718837 -0.205555
C15   C     C_R   0.993670 0.685517 0.389241 -0.247837
C16   C     C_R   0.006464 0.314467 0.610747 -0.247793
C17   C     C_R   0.005572 0.587800 0.417624 0.083611
C18   C     C_R   0.994546 0.412180 0.582351 0.083617
C19   C     C_R   0.981716 0.527700 0.375923 0.075227
C20   C     C_R   0.018312 0.472293 0.624047 0.075228
C21   C     C_R   0.024580 0.548378 0.486479 -0.024057
C22   C     C_R   0.975590 0.451589 0.513493 -0.024084
C23   C     C_R   0.909329 0.398557 0.470339 0.319243
C24   C     C_R   0.090861 0.601405 0.529632 0.319236
C25   C     C_R   0.936250 0.433319 0.403470 -0.280565
C26   C     C_R   0.063844 0.566666 0.596498 -0.280584
H1    H     H_    0.899082 0.388148 0.372602 0.167310
H2    H     H_    0.101006 0.611840 0.627365 0.167314
H3    H     H_    0.024711 0.265855 0.581303 0.142543
H4    H     H_    0.975537 0.734123 0.418696 0.142556
H5    H     H_    0.002121 0.307404 0.771085 0.115175
H6    H     H_    0.997625 0.692620 0.228894 0.115180
C27   C     C_3   0.890965 0.929933 0.988850 -0.168055
C28   C     C_3   0.109036 0.070071 0.011149 -0.168003
C29   C     C_3   0.063913 0.919250 0.035773 0.085012
C30   C     C_3   0.936091 0.080754 0.964225 0.085025
H7    H     H_    0.803993 0.872575 0.978762 0.131419
H8    H     H_    0.196008 0.127427 0.021238 0.131420
C31   C     C_3   0.989613 0.999003 0.062573 -0.115979
C32   C     C_3   0.010389 0.001000 0.937425 -0.115993
C33   C     C_3   0.814690 0.011798 0.015501 -0.160560
C34   C     C_3   0.185311 0.988206 0.984497 -0.160567
H9    H     H_    0.663183 0.023190 0.027551 0.117724
H10   H     H_    0.336817 0.976814 0.972448 0.117727
C35   C     C_3   0.643887 0.054789 0.468867 -0.214064
C36   C     C_3   0.356115 0.945200 0.531134 -0.214071
C37   C     C_3   0.479691 0.087493 0.506853 -0.224618
C38   C     C_3   0.520309 0.912497 0.493149 -0.224641
H11   H     H_    0.460675 0.159414 0.512834 0.136707
H12   H     H_    0.539326 0.840577 0.487167 0.136733
H13   H     H_    0.755422 0.102347 0.441658 0.144164
H14   H     H_    0.244579 0.897643 0.558344 0.144143
C39   C     C_3   0.504375 0.997351 0.562777 -0.160848
C40   C     C_3   0.495625 0.002639 0.437224 -0.160858
C41   C     C_3   0.666884 0.964909 0.525306 0.414883
C42   C     C_3   0.333118 0.035080 0.474696 0.414866
C43   C     C_R   0.491600 0.277275 0.178344 -0.092288
C44   C     C_R   0.508394 0.722725 0.821658 -0.092290
C45   C     C_R   0.452782 0.433940 0.190608 -0.158998
C46   C     C_R   0.547152 0.566058 0.809395 -0.158987
C47   C     C_R   0.454722 0.337225 0.217691 -0.171921
C48   C     C_R   0.545232 0.662773 0.782311 -0.171907
C49   C     C_R   0.515779 0.314007 0.111380 -0.247950
C50   C     C_R   0.484223 0.685996 0.888623 -0.247952
C51   C     C_R   0.488687 0.410756 0.081626 0.130085
C52   C     C_R   0.511289 0.589245 0.918378 0.130087
C53   C     C_R   0.474162 0.471013 0.123229 0.141035
C54   C     C_R   0.525789 0.528987 0.876774 0.141016
C55   C     C_R   0.487040 0.450187 0.012533 -0.049775
C56   C     C_R   0.512931 0.549814 0.987470 -0.049776
C57   C     C_R   0.540644 0.605126 0.032773 0.332256
C58   C     C_R   0.459316 0.394874 0.967232 0.332247
C59   C     C_R   0.498062 0.567153 0.098276 -0.290635
C60   C     C_R   0.501882 0.432847 0.901729 -0.290629
H15   H     H_    0.505547 0.611692 0.131445 0.151560
H16   H     H_    0.494383 0.388308 0.868559 0.151553
H17   H     H_    0.442115 0.734078 0.916303 0.135494
H18   H     H_    0.557904 0.265928 0.083699 0.135492
H19   H     H_    0.566190 0.690718 0.730484 0.102786
H20   H     H_    0.433747 0.309278 0.269516 0.102794
H21   H     H_    0.437089 0.479882 0.222414 0.125452
H22   H     H_    0.562813 0.520115 0.777587 0.125456
C61   C     C_3   0.854716 0.920169 0.553983 -1.023267
H23   H     H_    0.934093 0.897152 0.515988 0.241094
H24   H     H_    0.941400 0.971642 0.571697 0.270128
H25   H     H_    0.825389 0.857967 0.595133 0.246476
C62   C     C_3   0.145278 0.079813 0.446022 -1.023273
H26   H     H_    0.065890 0.102814 0.484021 0.241089
H27   H     H_    0.174590 0.142024 0.404877 0.246483
H28   H     H_    0.058609 0.028340 0.428303 0.270134
C63   C     C_3   0.644415 0.698139 0.017362 -1.070607
H29   H     H_    0.747109 0.700190 0.057211 0.259673
H30   H     H_    0.733854 0.708852 0.973181 0.258843
H31   H     H_    0.540003 0.756363 0.012967 0.239886
C64   C     C_3   0.355553 0.301860 0.982648 -1.070555
H32   H     H_    0.252838 0.299807 0.942804 0.259685
H33   H     H_    0.459968 0.243638 0.987036 0.239870
H34   H     H_    0.266134 0.291142 0.026834 0.258840
C65   C     C_3   0.974385 0.503626 0.260895 -1.043090
H35   H     H_    0.993335 0.544586 0.209534 0.258969
H36   H     H_    0.089275 0.449513 0.272719 0.253589
H37   H     H_    0.831757 0.468890 0.264647 0.255098
C66   C     C_3   0.025346 0.496401 0.739067 -1.043101
H38   H     H_    0.006252 0.455456 0.790424 0.258968
H39   H     H_    0.167976 0.531128 0.735356 0.255103
H40   H     H_    0.910481 0.550523 0.727197 0.253581
C67   C     C_3   0.782460 0.312531 0.490610 -1.050271
H41   H     H_    0.661991 0.317626 0.455272 0.251464
H42   H     H_    0.865816 0.248240 0.491179 0.246117
H43   H     H_    0.712970 0.306441 0.538175 0.263529
C68   C     C_3   0.217857 0.687385 0.509368 -1.050298
H44   H     H_    0.338410 0.682206 0.544686 0.251489
H45   H     H_    0.287234 0.693497 0.461783 0.263531
H46   H     H_    0.134638 0.751701 0.508842 0.246120
N1    N     N_3   0.132530 0.829329 0.076018 -0.231042
H47   H     H_    0.174131 0.789153 0.044731 0.105979
H48   H     H_    0.256859 0.842355 0.100069 0.106520
N2    N     N_3   0.867492 0.170678 0.923976 -0.231040
H49   H     H_    0.825496 0.210779 0.955265 0.105963
H50   H     H_    0.743418 0.157635 0.899814 0.106509

loop_
_geom_bond_atom_site_label_1
_geom_bond_atom_site_label_2
_geom_bond_distance
_ccdc_geom_bond_type
C28   H8    1.105349 S    
C68   H46   1.110030 S    
C34   H10   1.110447 S    
C31   C33   1.550833 S    
C55   C56   1.437677 A    
O11   V3    1.996495 S    
O13   V3    1.715629 S    
C24   C68   1.514048 S    
C62   H26   1.108629 S    
O4    C2    1.294300 A    
C67   H43   1.108866 S    
V1    O19   1.706412 S    
C50   H17   1.077792 S    
C54   C60   1.388199 A    
C68   H44   1.111751 S    
C23   C25   1.395932 A    
C21   C22   1.434206 A    
C7    C9    1.462850 S    
O9    V1    1.998983 S    
C9    C15   1.394434 A    
C10   C16   1.394438 A    
C11   C13   1.401464 A    
C46   C48   1.391648 A    
C38   C41   1.541089 S    
O3    C1    1.294301 A    
C29   C34   1.539584 S    
C40   C42   1.537271 S    
C27   C29   1.539994 S    
C15   H4    1.078792 S    
C28   C30   1.539982 S    
C63   H29   1.112148 S    
C3    C43   1.460245 S    
C18   C22   1.434301 A    
C35   C37   1.554363 S    
O7    C3    1.293645 A    
C38   C40   1.543353 S    
C58   C64   1.509175 S    
C30   N2    1.456095 S    
O5    C7    1.295329 A    
C13   H6    1.084428 S    
C28   C34   1.559700 S    
O6    C8    1.295332 A    
C14   H5    1.084430 S    
C57   C63   1.509176 S    
C25   H1    1.082808 S    
C58   C60   1.394701 A    
C26   H2    1.082811 S    
C61   H23   1.108639 S    
O3    V1    2.003022 S    
O14   V4    1.715628 S    
C51   C53   1.416025 A    
C11   C19   1.423600 A    
C5    C31   1.500206 S    
C8    C10   1.462857 S    
C2    O12   1.301019 A    
C36   C39   1.540242 S    
C17   C19   1.420411 A    
C35   C40   1.540243 S    
C18   C20   1.420412 A    
C48   H19   1.083567 S    
C37   C42   1.541087 S    
C59   H15   1.085894 S    
O7    V1    2.022468 S    
C52   C56   1.433839 A    
C46   H22   1.084038 S    
C64   H33   1.110453 S    
O17   V3    2.014201 S    
C36   C42   1.545627 S    
C65   H35   1.111179 S    
C38   H12   1.110212 S    
O8    C4    1.293649 A    
O8    V2    2.022467 S    
C37   H11   1.110212 S    
C19   C25   1.398629 A    
C65   H37   1.110211 S    
C1    O11   1.301017 A    
C33   H9    1.110450 S    
C44   C48   1.395507 A    
O15   V3    1.999197 S    
C9    C13   1.392863 A    
C45   H21   1.084039 S    
C23   C67   1.514049 S    
C32   C34   1.550816 S    
C66   H39   1.110199 S    
C49   H18   1.077799 S    
C52   C54   1.416038 A    
C29   N1    1.456087 S    
N1    H47   1.045076 S    
C63   H31   1.110447 S    
O10   V2    1.998983 S    
O1    V3    2.014965 S    
C39   C41   1.537275 S    
C41   C61   1.514713 S    
C62   H27   1.109883 S    
C35   C41   1.545631 S    
C53   C59   1.388198 A    
C24   C26   1.395932 A    
C43   C49   1.398379 A    
C47   H20   1.083566 S    
C1    C40   1.500642 S    
C45   C47   1.391649 A    
C50   C52   1.413603 A    
C30   C33   1.539592 S    
O18   V4    2.014201 S    
C55   C58   1.431250 A    
C60   H16   1.085899 S    
O15   C5    1.298631 A    
C36   H14   1.105755 S    
C2    C39   1.500640 S    
C61   H25   1.109884 S    
O16   C6    1.298627 A    
C12   C20   1.423597 A    
C12   C66   1.510272 S    
O1    C3    1.295601 A    
C4    C44   1.460245 S    
O13   V1    2.153905 S    
C66   H38   1.111186 S    
C37   C39   1.543352 S    
N2    H50   1.045188 S    
C45   C53   1.404762 A    
C27   C32   1.548776 S    
V2    O20   1.706413 S    
C21   C24   1.429456 A    
C20   C26   1.398634 A    
C28   C31   1.548776 S    
C68   H45   1.108851 S    
C63   H30   1.108996 S    
C22   C23   1.429480 A    
O16   V4    1.999193 S    
C10   C14   1.392862 A    
O18   C8    1.296194 A    
C27   C33   1.559704 S    
C16   C18   1.411569 A    
C67   H42   1.110016 S    
C64   H32   1.112160 S    
C57   C59   1.394707 A    
C27   H7    1.105353 S    
O5    V1    2.019796 S    
O17   C7    1.296192 A    
O6    V2    2.019797 S    
O10   C6    1.297982 A    
C29   C31   1.529692 S    
C30   C32   1.529688 S    
O2    V4    2.014967 S    
C11   C65   1.510280 S    
C66   H40   1.110259 S    
V3    O19   2.166451 S    
C12   C14   1.401476 A    
V4    O20   2.166450 S    
N1    H48   1.045312 S    
C61   H24   1.109082 S    
C44   C50   1.398381 A    
C42   C62   1.514706 S    
O9    C5    1.297984 A    
C64   H34   1.108995 S    
C35   H13   1.105755 S    
C62   H28   1.109081 S    
O14   V2    2.153904 S    
C51   C55   1.433838 A    
C56   C57   1.431260 A    
O2    C4    1.295595 A    
C65   H36   1.110264 S    
O4    V2    2.003025 S    
C15   C17   1.411582 A    
C6    C32   1.500198 S    
C16   H3    1.078778 S    
C49   C51   1.413600 A    
C17   C21   1.434295 A    
N2    H49   1.045083 S    
C36   C38   1.554360 S    
C46   C54   1.404761 A    
O12   V4    1.996495 S    
C43   C47   1.395514 A    
C67   H41   1.111721 S    
