data_mof_unit_38742.cif
_audit_creation_date              2012-12-10T18:33:33-0500
_audit_creation_method            fapswitch 2.2
_symmetry_space_group_name_H-M    P1
_symmetry_Int_Tables_number       1
_space_group_crystal_system       triclinic
_cell_length_a                    8.714367
_cell_length_b                    15.116083
_cell_length_c                    13.868103
_cell_angle_alpha                 89.904987
_cell_angle_beta                  97.948651
_cell_angle_gamma                 90.170639
_cell_volume                      1809.24425047

loop_
_atom_site_label
_atom_site_type_symbol
_atom_type_description
_atom_site_fract_x
_atom_site_fract_y
_atom_site_fract_z
_atom_type_partial_charge
C1    C     C_R   0.499000 0.329892 0.499993 0.814026
C2    C     C_R   0.499160 0.670165 0.499826 0.814370
C3    C     C_R   0.570867 0.568661 0.113957 -0.279883
C4    C     C_R   0.381593 0.457885 0.881863 -0.280046
C5    C     C_R   0.570520 0.567030 0.215387 0.078121
C6    C     C_R   0.384440 0.458065 0.780661 0.082168
C7    C     C_R   0.429529 0.433020 0.203343 0.080371
C8    C     C_R   0.615567 0.541903 0.800557 0.081943
C9    C     C_R   0.429212 0.431416 0.101869 -0.281144
C10   C     C_R   0.618396 0.542170 0.902258 -0.281119
C11   C     C_R   0.500024 0.500048 0.054670 0.130347
C12   C     C_R   0.499996 0.500046 0.945302 0.132101
C13   C     C_R   0.203681 0.499954 0.475097 0.882819
C14   C     C_R   0.796323 0.499994 0.524911 0.887967
C15   C     C_2   0.037821 0.499978 0.461353 -0.370067
C16   C     C_2   0.962191 0.499900 0.538681 -0.375559
C17   C     C_R   0.415552 0.096577 0.571125 0.463001
C18   C     C_R   0.425331 0.903448 0.411536 0.462545
C19   C     C_R   0.428474 0.188525 0.572890 -0.259198
C20   C     C_R   0.438390 0.811556 0.412624 -0.264428
C21   C     C_R   0.493097 0.233474 0.499736 -0.099256
C22   C     C_R   0.493437 0.766684 0.498901 -0.097258
C23   C     C_R   0.550381 0.185973 0.425998 -0.224641
C24   C     C_R   0.541326 0.814411 0.584160 -0.215629
C25   C     C_R   0.545271 0.094195 0.426145 -0.188307
C26   C     C_R   0.535976 0.906188 0.582940 -0.180330
C27   C     C_R   0.478080 0.048685 0.498092 -0.003715
C28   C     C_R   0.477943 0.951541 0.497338 -0.002935
Cu1   Cu    Cu3+1 0.500000 0.499990 0.596430 0.935620
Cu2   Cu    Cu3+1 0.500000 0.500010 0.403570 0.933425
H1    H     H_    0.977747 0.500107 0.387213 0.176793
H2    H     H_    0.022256 0.499768 0.612827 0.169238
H3    H     H_    0.384334 0.224826 0.630475 0.163058
H4    H     H_    0.401610 0.775262 0.346073 0.167030
H5    H     H_    0.602353 0.219747 0.369563 0.162872
H6    H     H_    0.586014 0.780867 0.651238 0.159815
H7    H     H_    0.596126 0.058570 0.370758 0.184628
H8    H     H_    0.579506 0.941947 0.648727 0.182932
H9    H     H_    0.624805 0.624270 0.082616 0.130125
H10   H     H_    0.285559 0.425736 0.909520 0.127850
H11   H     H_    0.626620 0.620005 0.259383 0.124028
H12   H     H_    0.293108 0.424694 0.733560 0.115854
H13   H     H_    0.373434 0.380024 0.237743 0.123242
H14   H     H_    0.706917 0.575193 0.769150 0.118371
H15   H     H_    0.375309 0.375807 0.061340 0.129824
H16   H     H_    0.714428 0.574336 0.946473 0.128097
N1    N     N_R   0.500000 0.500020 0.258690 -0.173842
N2    N     N_R   0.500000 0.499980 0.741310 -0.171736
O1    O     O_R   0.500010 0.371450 0.581430 -0.584918
O2    O     O_R   0.499990 0.628550 0.418570 -0.597965
O3    O     O_R   0.500010 0.371460 0.418560 -0.596004
O4    O     O_R   0.499990 0.628540 0.581440 -0.584663
O5    O     O_R   0.274840 0.499990 0.562640 -0.587785
O6    O     O_R   0.725160 0.500010 0.437360 -0.577453
O7    O     O_R   0.274840 0.500000 0.399770 -0.587619
O8    O     O_R   0.725160 0.500000 0.600230 -0.597690
O9    O     O_3   0.354936 0.054976 0.646687 -0.625713
C29   C     C_3   0.201482 0.025848 0.615613 0.058473
H17   H     H_    0.172363 0.976596 0.669839 0.178138
H18   H     H_    0.189663 0.990422 0.544888 0.121149
C30   C     C_3   0.085089 0.102314 0.611928 -0.385278
H19   H     H_    0.103059 0.138760 0.682145 0.231609
H20   H     H_    0.103788 0.148919 0.552598 0.205685
C31   C     C_3   0.918179 0.068675 0.593482 -0.888323
H21   H     H_    0.896961 0.032610 0.523226 0.251415
H22   H     H_    0.837204 0.125530 0.590282 0.267044
H23   H     H_    0.894190 0.023793 0.653147 0.253530
O10   O     O_3   0.373888 0.944547 0.323593 -0.626387
C32   C     C_3   0.220323 0.975531 0.321909 0.057387
H24   H     H_    0.195273 0.019823 0.257701 0.176763
H25   H     H_    0.206647 0.016940 0.386131 0.123236
C33   C     C_3   0.101569 0.899581 0.310895 -0.384931
H26   H     H_    0.120044 0.857833 0.247636 0.231201
H27   H     H_    0.116776 0.857723 0.377444 0.208017
C34   C     C_3   0.935958 0.934753 0.295685 -0.899086
H28   H     H_    0.914994 0.976726 0.358141 0.248390
H29   H     H_    0.852979 0.878484 0.289849 0.261605
H30   H     H_    0.914941 0.974340 0.227616 0.256687

loop_
_geom_bond_atom_site_label_1
_geom_bond_atom_site_label_2
_ccdc_geom_bond_type
C14   O8    A    
Cu2   O3    S    
C9    H15   S    
C32   C33   S    
Cu1   O1    S    
C1    C21   S    
C5    N1    A    
C24   H6    S    
C6    N2    A    
C19   C21   A    
C24   C26   A    
C18   O10   S    
C15   C16   D    
C30   H20   S    
C32   H25   S    
C2    O2    A    
C25   H7    S    
C4    H10   S    
O10   C32   S    
C2    C22   S    
C14   C16   S    
C7    H13   S    
C4    C12   A    
C20   H4    S    
Cu2   O6    S    
C29   C30   S    
Cu2   O2    S    
C3    H9    S    
C32   H24   S    
C33   C34   S    
C10   C12   A    
C29   H18   S    
C13   O5    A    
Cu1   N2    S    
C17   C27   A    
C31   H23   S    
Cu2   N1    S    
C18   C28   A    
C33   H27   S    
C19   H3    S    
C26   H8    S    
C29   H17   S    
C31   H22   S    
C30   C31   S    
C34   H28   S    
C8    N2    A    
C10   H16   S    
Cu1   Cu2   S    
C1    O3    A    
C9    C11   A    
C2    O4    A    
C4    C6    A    
C14   O6    A    
C20   C22   A    
C23   H5    S    
C21   C23   A    
C22   C24   A    
C16   H2    S    
C7    C9    A    
C5    H11   S    
C8    H14   S    
C33   H26   S    
C3    C5    A    
C11   C12   S    
C15   H1    S    
Cu1   O8    S    
C25   C27   A    
C7    N1    A    
Cu2   O7    S    
C26   C28   A    
C31   H21   S    
C13   C15   S    
O9    C29   S    
Cu1   O5    S    
C17   C19   A    
C18   C20   A    
C23   C25   A    
C30   H19   S    
C34   H30   S    
C3    C11   A    
C8    C10   A    
C6    H12   S    
C34   H29   S    
C27   C28   S    
C1    O1    A    
C17   O9    S    
C13   O7    A    
Cu1   O4    S    
