data_mof_unit_28943.cif
_audit_creation_date              2012-12-11T14:28:15-0500
_audit_creation_method            fapswitch 2.2
_symmetry_space_group_name_H-M    P1
_symmetry_Int_Tables_number       1
_space_group_crystal_system       triclinic
_cell_length_a                    11.054337
_cell_length_b                    19.360909
_cell_length_c                    18.617716
_cell_angle_alpha                 89.976812
_cell_angle_beta                  90.282125
_cell_angle_gamma                 89.65725
_cell_volume                      3984.48107508

loop_
_atom_site_label
_atom_site_type_symbol
_atom_type_description
_atom_site_fract_x
_atom_site_fract_y
_atom_site_fract_z
_atom_type_partial_charge
C1    C     C_R   0.316140 0.939111 0.637438 0.497156
C2    C     C_R   0.319849 0.970546 0.852158 0.530079
C3    C     C_R   0.316496 0.063862 0.362240 0.541441
C4    C     C_R   0.320700 0.031754 0.145498 0.572399
C5    C     C_R   0.817726 0.465268 0.645513 0.524417
C6    C     C_R   0.819849 0.470555 0.852148 0.517651
C7    C     C_R   0.816328 0.563459 0.361613 0.544369
C8    C     C_R   0.820700 0.531761 0.145490 0.573368
C9    C     C_3   0.214765 0.753456 0.448991 0.252603
C10   C     C_3   0.035811 0.703656 0.007671 0.258004
C11   C     C_3   0.162353 0.302158 0.525551 0.248754
C12   C     C_3   0.121679 0.312155 0.980419 0.303360
C13   C     C_3   0.706325 0.251561 0.451552 0.255738
C14   C     C_3   0.535821 0.203658 0.007677 0.258139
C15   C     C_3   0.686931 0.790467 0.534188 0.225427
C16   C     C_3   0.621678 0.812150 0.980415 0.303075
C17   C     C_3   0.083834 0.747251 0.426862 0.038055
C18   C     C_3   0.074156 0.748281 0.071250 0.002734
C19   C     C_3   0.080301 0.257464 0.572259 0.053706
C20   C     C_3   0.076574 0.255504 0.929625 0.066180
C21   C     C_3   0.575666 0.247552 0.428487 0.032613
C22   C     C_3   0.574167 0.248284 0.071256 0.002200
C23   C     C_3   0.585404 0.754216 0.574172 0.054420
C24   C     C_3   0.576585 0.755498 0.929620 0.065315
C25   C     C_R   0.323815 0.044033 0.438350 -0.034542
C26   C     C_R   0.329467 0.002205 0.072121 0.025871
C27   C     C_R   0.321790 0.965752 0.564444 -0.040678
C28   C     C_R   0.326099 0.008249 0.920954 -0.034191
C29   C     C_R   0.821610 0.545710 0.437112 -0.010650
C30   C     C_R   0.829465 0.502234 0.072099 0.025714
C31   C     C_R   0.817457 0.498033 0.576764 -0.008266
C32   C     C_R   0.826100 0.508279 0.920929 -0.032969
C33   C     C_R   0.548476 0.042828 0.442504 -0.048623
C34   C     C_R   0.555106 0.005354 0.067372 0.011019
C35   C     C_R   0.546300 0.959941 0.560163 -0.044200
C36   C     C_R   0.543228 0.025768 0.919421 0.020243
C37   C     C_R   0.051174 0.527379 0.443160 -0.029372
C38   C     C_R   0.055109 0.505381 0.067341 0.010836
C39   C     C_R   0.033558 0.527366 0.590279 -0.057585
C40   C     C_R   0.043222 0.525788 0.919386 0.019915
C41   C     C_R   0.655147 0.020468 0.472068 -0.028222
C42   C     C_R   0.659082 0.020619 0.028880 -0.100446
C43   C     C_R   0.654497 0.982382 0.533918 -0.031637
C44   C     C_R   0.652669 0.030447 0.954989 -0.064454
C45   C     C_R   0.151415 0.510670 0.485093 -0.051599
C46   C     C_R   0.159084 0.520633 0.028841 -0.099898
C47   C     C_R   0.143957 0.513334 0.559098 -0.008077
C48   C     C_R   0.152668 0.530456 0.954948 -0.064164
C49   C     C_R   0.433811 0.983247 0.532766 0.026362
C50   C     C_R   0.436789 0.011521 0.957404 0.068554
C51   C     C_R   0.434876 0.024171 0.470616 0.029927
C52   C     C_R   0.440371 0.005585 0.033289 0.089459
C53   C     C_R   0.926702 0.522475 0.548492 -0.014358
C54   C     C_R   0.936787 0.511549 0.957377 0.070923
C55   C     C_R   0.933251 0.532468 0.474309 0.015719
C56   C     C_R   0.940371 0.505612 0.033263 0.089910
C57   C     C_R   0.211665 0.983824 0.530174 0.011203
C58   C     C_R   0.218307 0.014218 0.960255 -0.001476
C59   C     C_R   0.214028 0.030288 0.473702 0.007916
C60   C     C_R   0.219704 0.996800 0.033126 0.006134
C61   C     C_R   0.708392 0.498355 0.535093 0.006901
C62   C     C_R   0.718309 0.514257 0.960229 0.000040
C63   C     C_R   0.708645 0.536259 0.472725 0.002007
C64   C     C_R   0.719701 0.496838 0.033101 0.006153
C65   C     C_R   0.098087 0.954567 0.548705 -0.077884
C66   C     C_R   0.107011 0.030643 0.926967 -0.071699
C67   C     C_R   0.103427 0.057245 0.449222 -0.089946
C68   C     C_R   0.109505 0.977241 0.065206 -0.076831
C69   C     C_R   0.598058 0.462905 0.552138 -0.078779
C70   C     C_R   0.607018 0.530677 0.926933 -0.071600
C71   C     C_R   0.594200 0.556663 0.444573 -0.086139
C72   C     C_R   0.609498 0.477273 0.065173 -0.077122
C73   C     C_R   0.992257 0.976107 0.516199 -0.095554
C74   C     C_R   0.999108 0.015364 0.960742 -0.109636
C75   C     C_R   0.995050 0.028670 0.467085 -0.086098
C76   C     C_R   0.000209 0.986799 0.029129 -0.140447
C77   C     C_R   0.488552 0.480949 0.521188 -0.113805
C78   C     C_R   0.499112 0.515385 0.960698 -0.109487
C79   C     C_R   0.486661 0.529924 0.468243 -0.098988
C80   C     C_R   0.500208 0.486818 0.029085 -0.140411
C81   C     C_R   0.186904 0.772265 0.636661 0.548897
C82   C     C_R   0.181337 0.770778 0.863760 0.574154
C83   C     C_R   0.136285 0.241251 0.357231 0.605530
C84   C     C_R   0.137125 0.240691 0.143002 0.606756
C85   C     C_R   0.683937 0.271858 0.636528 0.560797
C86   C     C_R   0.681338 0.270779 0.863761 0.573125
C87   C     C_R   0.676356 0.730403 0.364053 0.557123
C88   C     C_R   0.637132 0.740688 0.143000 0.613437
C89   C     C_R   0.544649 0.769402 0.646273 0.554308
C90   C     C_R   0.543443 0.769665 0.854956 0.577998
C91   C     C_R   0.538186 0.228916 0.356533 0.562917
C92   C     C_R   0.539064 0.229577 0.143843 0.563580
C93   C     C_R   0.044896 0.269572 0.646129 0.556951
C94   C     C_R   0.043436 0.269668 0.854961 0.575897
C95   C     C_R   0.040614 0.729301 0.355758 0.557427
C96   C     C_R   0.039058 0.729575 0.143839 0.562641
C97   C     C_3   0.049999 0.810451 0.471444 -0.159907
C98   C     C_3   0.205372 0.746128 0.046818 -0.152440
C99   C     C_3   0.122546 0.191657 0.535001 -0.174352
C100  C     C_3   0.161279 0.202178 0.964843 -0.140079
C101  C     C_3   0.544817 0.312318 0.472243 -0.153850
C102  C     C_3   0.705381 0.246134 0.046823 -0.152559
C103  C     C_3   0.618169 0.684922 0.540568 -0.149273
C104  C     C_3   0.661302 0.702178 0.964836 -0.140072
C105  C     C_3   0.184704 0.817129 0.494507 -0.148055
C106  C     C_3   0.166879 0.699471 0.983271 -0.106039
C107  C     C_3   0.207831 0.236471 0.488177 -0.182850
C108  C     C_3   0.207375 0.260080 0.015650 -0.112439
C109  C     C_3   0.679262 0.316421 0.496310 -0.131722
C110  C     C_3   0.666888 0.199476 0.983277 -0.105958
C111  C     C_3   0.723527 0.721038 0.500663 -0.194097
C112  C     C_3   0.707386 0.760082 0.015645 -0.113049
C113  C     C_3   0.159869 0.768190 0.558775 -0.003106
C114  C     C_3   0.143515 0.764964 0.938533 0.017747
C115  C     C_3   0.103962 0.246105 0.433087 0.024309
C116  C     C_3   0.105107 0.243695 0.068061 0.025174
C117  C     C_3   0.650187 0.268016 0.560264 -0.001081
C118  C     C_3   0.643520 0.264968 0.938537 0.017967
C119  C     C_3   0.635995 0.737743 0.438356 0.012709
C120  C     C_3   0.605122 0.743689 0.068056 0.022971
C121  C     C_3   0.026726 0.761789 0.536157 -0.168823
C122  C     C_3   0.181492 0.812063 0.001042 -0.148292
C123  C     C_3   0.019840 0.201574 0.478668 -0.108761
C124  C     C_3   0.060223 0.184986 0.019360 -0.185776
C125  C     C_3   0.516794 0.265044 0.537326 -0.157325
C126  C     C_3   0.681499 0.312068 0.001046 -0.148015
C127  C     C_3   0.531547 0.702049 0.476928 -0.085277
C128  C     C_3   0.560251 0.684977 0.019355 -0.185973
C129  C     C_3   0.060756 0.698422 0.490582 -0.141449
C130  C     C_3   0.047809 0.813947 0.026619 -0.142058
C131  C     C_3   0.978075 0.267477 0.517152 -0.039890
C132  C     C_3   0.975042 0.238242 0.983045 -0.172157
C133  C     C_3   0.546476 0.200199 0.492581 -0.151303
C134  C     C_3   0.547817 0.313951 0.026625 -0.142129
C135  C     C_3   0.498449 0.771284 0.512089 -0.053483
C136  C     C_3   0.475057 0.738226 0.983040 -0.172288
C137  C     C_3   0.193848 0.705436 0.512771 0.250534
C138  C     C_3   0.011829 0.767728 0.962433 0.254128
C139  C     C_3   0.061141 0.311447 0.470403 0.259171
C140  C     C_3   0.021360 0.295976 0.033015 0.230573
C141  C     C_3   0.680176 0.204085 0.515166 0.235313
C142  C     C_3   0.511835 0.267730 0.962440 0.254778
C143  C     C_3   0.601071 0.806897 0.471915 0.250247
C144  C     C_3   0.521363 0.795963 0.033010 0.230529
Cr1   Cr    Cr6+3 0.488160 0.884660 0.750000 1.055410
Cr2   Cr    Cr6+3 0.488160 0.115340 0.250000 1.026562
Cr3   Cr    Cr6+3 0.988160 0.384660 0.750000 1.057302
Cr4   Cr    Cr6+3 0.988160 0.615340 0.250000 1.014610
Cr5   Cr    Cr6+3 0.173480 0.883120 0.750000 1.062201
Cr6   Cr    Cr6+3 0.173480 0.116880 0.250000 1.015753
Cr7   Cr    Cr6+3 0.673480 0.383120 0.750000 1.053977
Cr8   Cr    Cr6+3 0.673480 0.616880 0.250000 1.013719
Cr9   Cr    Cr6+3 0.333410 0.727260 0.750000 1.039385
Cr10  Cr    Cr6+3 0.333410 0.272740 0.250000 1.038992
Cr11  Cr    Cr6+3 0.833410 0.227260 0.750000 1.057730
Cr12  Cr    Cr6+3 0.833410 0.772740 0.250000 1.051532
H1    H     H_    0.246160 0.861142 0.489230 0.144478
H2    H     H_    0.220693 0.655028 0.964624 0.121124
H3    H     H_    0.301689 0.223738 0.472641 0.107279
H4    H     H_    0.300066 0.271405 0.034605 0.135446
H5    H     H_    0.739108 0.362085 0.496642 0.156274
H6    H     H_    0.720700 0.155030 0.964631 0.121123
H7    H     H_    0.814632 0.698947 0.493118 0.092719
H8    H     H_    0.800073 0.771414 0.034599 0.135004
H9    H     H_    0.910374 0.950204 0.527628 0.109975
H10   H     H_    0.916125 0.023300 0.932162 0.116613
H11   H     H_    0.916611 0.046833 0.439456 0.117794
H12   H     H_    0.917301 0.970955 0.054297 0.098855
H13   H     H_    0.406329 0.456428 0.538143 0.129059
H14   H     H_    0.416133 0.523310 0.932110 0.115429
H15   H     H_    0.403815 0.546370 0.442728 0.135114
H16   H     H_    0.417300 0.470961 0.054244 0.098300
H17   H     H_    0.989916 0.851870 0.450584 0.139775
H18   H     H_    0.281866 0.735546 0.084071 0.186087
H19   H     H_    0.148124 0.143926 0.564493 0.159107
H20   H     H_    0.219478 0.164926 0.935554 0.177791
H21   H     H_    0.487393 0.355163 0.451711 0.140116
H22   H     H_    0.781877 0.235555 0.084076 0.186098
H23   H     H_    0.623500 0.636320 0.571983 0.163461
H24   H     H_    0.719510 0.664932 0.935545 0.176787
H25   H     H_    0.951642 0.763101 0.575243 0.195997
H26   H     H_    0.241749 0.856978 0.993806 0.179269
H27   H     H_    0.955059 0.164899 0.455461 0.180757
H28   H     H_    0.032900 0.133774 0.039905 0.160409
H29   H     H_    0.439112 0.270725 0.574442 0.185393
H30   H     H_    0.741751 0.356985 0.993812 0.179973
H31   H     H_    0.463972 0.670488 0.448742 0.190029
H32   H     H_    0.532942 0.633764 0.039901 0.160267
H33   H     H_    0.005516 0.652048 0.489573 0.115429
H34   H     H_    0.990918 0.855748 0.048394 0.127112
H35   H     H_    0.888878 0.282742 0.536837 0.133567
H36   H     H_    0.885102 0.228234 0.961217 0.122630
H37   H     H_    0.482919 0.156768 0.494184 0.107581
H38   H     H_    0.490936 0.355757 0.048400 0.127113
H39   H     H_    0.409788 0.794632 0.523058 0.131546
H40   H     H_    0.385114 0.728210 0.961218 0.122900
H41   H     H_    0.736821 0.034558 0.446528 0.130474
H42   H     H_    0.744044 0.025636 0.056834 0.087956
H43   H     H_    0.736012 0.967523 0.561023 0.159719
H44   H     H_    0.731001 0.043669 0.924319 0.090872
H45   H     H_    0.235065 0.497062 0.459575 0.108008
H46   H     H_    0.244051 0.525647 0.056792 0.087218
H47   H     H_    0.223753 0.506134 0.592212 0.167306
H48   H     H_    0.231001 0.543668 0.924274 0.088807
H49   H     H_    0.560853 0.078504 0.400853 0.172948
H50   H     H_    0.566706 0.992663 0.123459 0.163843
H51   H     H_    0.555990 0.919902 0.597592 0.197332
H52   H     H_    0.541544 0.037395 0.862535 0.133444
H53   H     H_    0.072342 0.527954 0.387246 0.185633
H54   H     H_    0.066715 0.492695 0.123428 0.161324
H55   H     H_    0.032086 0.535732 0.647673 0.141831
H56   H     H_    0.041532 0.537413 0.862496 0.124268
H57   H     H_    0.099717 0.098592 0.412126 0.158531
H58   H     H_    0.107539 0.953446 0.117836 0.156047
H59   H     H_    0.089331 0.911117 0.584173 0.166511
H60   H     H_    0.103497 0.052324 0.873321 0.140679
H61   H     H_    0.583814 0.593565 0.403132 0.161549
H62   H     H_    0.607526 0.453475 0.117801 0.156022
H63   H     H_    0.592029 0.418301 0.586172 0.174303
H64   H     H_    0.603513 0.552353 0.873284 0.137573
O1    O     O_R   0.575450 0.828820 0.667950 -0.510286
O2    O     O_R   0.575450 0.828820 0.832050 -0.426113
O3    O     O_R   0.575450 0.171180 0.332050 -0.563859
O4    O     O_R   0.575450 0.171180 0.167950 -0.503051
O5    O     O_R   0.075450 0.328820 0.667950 -0.467606
O6    O     O_R   0.075450 0.328820 0.832050 -0.430734
O7    O     O_R   0.075450 0.671180 0.332050 -0.547161
O8    O     O_R   0.075450 0.671180 0.167950 -0.504324
O9    O     O_R   0.416860 0.942890 0.674680 -0.517190
O10   O     O_R   0.416860 0.942890 0.825320 -0.493249
O11   O     O_R   0.416860 0.057110 0.325320 -0.486740
O12   O     O_R   0.416860 0.057110 0.174680 -0.501755
O13   O     O_R   0.916860 0.442890 0.674680 -0.515066
O14   O     O_R   0.916860 0.442890 0.825320 -0.502513
O15   O     O_R   0.916860 0.557110 0.325320 -0.497297
O16   O     O_R   0.916860 0.557110 0.174680 -0.502412
O17   O     O_R   0.213790 0.953680 0.668330 -0.515644
O18   O     O_R   0.213790 0.953680 0.831670 -0.517093
O19   O     O_R   0.213790 0.046320 0.331670 -0.502767
O20   O     O_R   0.213790 0.046320 0.168330 -0.521845
O21   O     O_R   0.713790 0.453680 0.668330 -0.548086
O22   O     O_R   0.713790 0.453680 0.831670 -0.520550
O23   O     O_R   0.713790 0.546320 0.331670 -0.510178
O24   O     O_R   0.713790 0.546320 0.168330 -0.521943
O25   O     O_R   0.121360 0.817890 0.672660 -0.513864
O26   O     O_R   0.121360 0.817890 0.827340 -0.425783
O27   O     O_R   0.121360 0.182110 0.327340 -0.551787
O28   O     O_R   0.121360 0.182110 0.172660 -0.507757
O29   O     O_R   0.621360 0.317890 0.672660 -0.510702
O30   O     O_R   0.621360 0.317890 0.827340 -0.426865
O31   O     O_R   0.621360 0.682110 0.327340 -0.535901
O32   O     O_R   0.621360 0.682110 0.172660 -0.504930
O33   O     O_R   0.206850 0.711370 0.665820 -0.436587
O34   O     O_R   0.206850 0.711370 0.834180 -0.518714
O35   O     O_R   0.206850 0.288630 0.334180 -0.482717
O36   O     O_R   0.206850 0.288630 0.165820 -0.503749
O37   O     O_R   0.706850 0.211370 0.665820 -0.422439
O38   O     O_R   0.706850 0.211370 0.834180 -0.515403
O39   O     O_R   0.706850 0.788630 0.334180 -0.429879
O40   O     O_R   0.706850 0.788630 0.165820 -0.498710
O41   O     O_R   0.457710 0.733190 0.672630 -0.498616
O42   O     O_R   0.457710 0.733190 0.827370 -0.552000
O43   O     O_R   0.457710 0.266810 0.327370 -0.506956
O44   O     O_R   0.457710 0.266810 0.172630 -0.522526
O45   O     O_R   0.957710 0.233190 0.672630 -0.502521
O46   O     O_R   0.957710 0.233190 0.827370 -0.552666
O47   O     O_R   0.957710 0.766810 0.327370 -0.517717
O48   O     O_R   0.957710 0.766810 0.172630 -0.523470
O49   O     O_3   0.331690 0.831680 0.750000 -0.348086
O50   O     O_3   0.331690 0.168320 0.250000 -0.311461
O51   O     O_3   0.831690 0.331680 0.750000 -0.334413
O52   O     O_3   0.831690 0.668320 0.250000 -0.324407
Cl1   Cl    Cl    0.295934 0.640615 0.542773 -0.698577
Cl2   Cl    Cl    0.895142 0.782144 0.897384 -0.579465
Cl3   Cl    Cl    0.000798 0.378884 0.417152 -0.578894
Cl4   Cl    Cl    0.936370 0.351349 0.089591 -0.675544
Cl5   Cl    Cl    0.777740 0.136785 0.546350 -0.675213
Cl6   Cl    Cl    0.395141 0.282156 0.897400 -0.580708
Cl7   Cl    Cl    0.566176 0.878413 0.415430 -0.561437
Cl8   Cl    Cl    0.436358 0.851327 0.089585 -0.672371
O53   O     O_3   0.308711 0.751026 0.399057 -0.657944
H65   H     H_    0.301744 0.705580 0.374956 0.335904
O54   O     O_3   0.955750 0.648628 0.011269 -0.706558
H66   H     H_    0.892653 0.661887 0.046279 0.311566
O55   O     O_3   0.237570 0.354342 0.550916 -0.692502
H67   H     H_    0.279227 0.371332 0.507476 0.308730
O56   O     O_3   0.155163 0.378281 0.958598 -0.640851
H68   H     H_    0.231685 0.388541 0.984320 0.329158
O57   O     O_3   0.800219 0.246334 0.401816 -0.656182
H69   H     H_    0.794378 0.199278 0.381212 0.330825
O58   O     O_3   0.455772 0.148624 0.011277 -0.706030
H70   H     H_    0.392664 0.161883 0.046281 0.311422
O59   O     O_3   0.766812 0.836498 0.566102 -0.706983
H71   H     H_    0.817794 0.851879 0.525876 0.307827
O60   O     O_3   0.655150 0.878279 0.958595 -0.640598
H72   H     H_    0.731672 0.888542 0.984317 0.329421

loop_
_geom_bond_atom_site_label_1
_geom_bond_atom_site_label_2
_ccdc_geom_bond_type
C6    C32   S    
Cr1   O10   S    
C7    C29   S    
C119  C143  S    
Cr4   O52   S    
O58   H70   S    
C120  C144  S    
C110  C118  S    
C36   C50   A    
C138  Cl2   S    
C4    O12   A    
C92   O4    A    
C121  H25   S    
C16   C144  S    
Cr8   O24   S    
C12   O56   S    
C57   C59   A    
Cr1   O1    S    
C8    O24   A    
C58   C60   A    
C62   C70   A    
C61   C63   A    
C62   C64   A    
Cr10  O43   S    
C23   C103  S    
C49   C51   A    
C34   C42   A    
C84   O36   A    
C50   C52   A    
C23   C89   S    
C88   O32   A    
C97   C105  S    
C128  H32   S    
C73   C75   A    
C42   C44   A    
C20   C132  S    
C21   C133  S    
C116  C140  S    
Cr3   O6    S    
Cr10  O35   S    
C45   C47   A    
C112  H8    S    
C46   C48   A    
C115  C123  S    
C16   O60   S    
C42   H42   S    
C27   C57   A    
C87   O39   A    
C112  C120  S    
Cr11  O38   S    
C19   C99   S    
C29   C55   A    
C30   C56   A    
C100  C124  S    
C15   C111  S    
Cr11  O51   S    
C104  C128  S    
C12   C20   S    
C13   C21   S    
C85   C117  S    
C92   O44   A    
C41   H41   S    
C63   C71   A    
C113  C137  S    
C36   C44   A    
C33   C51   A    
C80   H16   S    
C37   C45   A    
C130  C138  S    
C91   O43   A    
C39   C47   A    
C40   C48   A    
C20   C94   S    
C133  C141  S    
C24   C90   S    
C28   C58   A    
C72   H62   S    
C98   C106  S    
C33   C41   A    
C111  H7    S    
C10   C18   S    
C76   H12   S    
C95   O7    A    
C2    C28   S    
C32   C62   A    
C93   O5    A    
C134  H38   S    
C129  C137  S    
C126  C134  S    
Cr6   O19   S    
C83   O27   A    
C10   C138  S    
C81   O33   A    
Cr10  O50   S    
C101  C109  S    
C130  H34   S    
C96   O48   A    
C14   C142  S    
C85   O29   A    
Cr5   O26   S    
C69   C77   A    
Cr4   O8    S    
Cr6   O50   S    
C71   C79   A    
C110  H6    S    
Cr6   O28   S    
C33   H49   S    
C74   C76   A    
C96   O8    A    
C105  C113  S    
C65   H59   S    
C89   O1    A    
C78   C80   A    
C9    C105  S    
C66   C74   A    
C78   H14   S    
C124  C132  S    
C125  H29   S    
C36   H52   S    
C97   C121  S    
C59   C67   A    
C95   O47   A    
C129  H33   S    
C35   C49   A    
C123  H27   S    
C35   C43   A    
C132  H36   S    
C24   C136  S    
C135  C143  S    
C6    O14   A    
C84   C116  S    
C139  Cl3   S    
Cr7   O30   S    
Cr2   O11   S    
C100  C108  S    
C82   O26   A    
C39   H55   S    
C83   C115  S    
C103  C127  S    
C11   O55   S    
C73   H9    S    
C3    O11   A    
C104  C112  S    
C88   O40   A    
C1    O17   A    
C87   C119  S    
O59   H71   S    
Cr7   O21   S    
Cr2   O4    S    
C127  H31   S    
Cr12  O48   S    
C37   H53   S    
O57   H69   S    
C38   H54   S    
C15   C143  S    
C44   H44   S    
C40   C54   A    
C102  H22   S    
C10   C106  S    
C67   C75   A    
Cr8   O32   S    
C14   C110  S    
C77   H13   S    
Cr1   O9    S    
C121  C129  S    
C102  C126  S    
C68   C76   A    
C113  C121  S    
C48   H48   S    
C84   O28   A    
Cr4   O15   S    
C85   O37   A    
C14   C22   S    
Cr9   O33   S    
C72   C80   A    
C114  C138  S    
C66   H60   S    
C90   O42   A    
C38   C46   A    
C99   H19   S    
Cr10  O44   S    
C2    O10   A    
C37   C55   A    
Cr3   O14   S    
C38   C56   A    
C133  H37   S    
C14   O58   S    
C22   C92   S    
C6    O22   A    
C25   C59   A    
C17   C97   S    
C27   C49   A    
C119  C127  S    
C29   C63   A    
C30   C64   A    
C41   C43   A    
C31   C61   A    
C142  Cl6   S    
Cr3   O5    S    
C109  C117  S    
Cr10  O36   S    
C11   C19   S    
C127  C135  S    
C136  H40   S    
C128  C136  S    
Cr11  O37   S    
C93   O45   A    
C61   C69   A    
C103  C111  S    
C79   H15   S    
C11   C139  S    
C86   O38   A    
Cr3   O51   S    
C9    C137  S    
C105  H1    S    
C100  H20   S    
C12   C140  S    
C17   C95   S    
C13   C141  S    
C88   C120  S    
C68   H58   S    
C19   C93   S    
Cr12  O39   S    
C77   C79   A    
C32   C54   A    
C7    O15   A    
C126  H30   S    
C97   H17   S    
Cr8   O23   S    
O60   H72   S    
Cr1   O2    S    
C83   O35   A    
C10   O54   S    
C117  C141  S    
O55   H67   S    
C134  C142  S    
C107  H3    S    
O56   H68   S    
C20   C100  S    
Cr2   O50   S    
Cr5   O18   S    
C4    O20   A    
C47   H47   S    
C86   C118  S    
C8    O16   A    
C35   H51   S    
C22   C134  S    
Cr6   O20   S    
C102  C110  S    
C91   O3    A    
C74   H10   S    
C16   C112  S    
C12   C108  S    
C21   C91   S    
Cr5   O25   S    
C116  C124  S    
C123  C131  S    
C69   H63   S    
C57   C65   A    
C4    C26   S    
C120  C128  S    
C124  H28   S    
Cr12  O52   S    
C132  C140  S    
C99   C107  S    
C40   H56   S    
C34   C52   A    
C71   H61   S    
C23   C135  S    
C8    C30   S    
C108  C116  S    
Cr5   O49   S    
C136  C144  S    
C24   C104  S    
C39   C53   A    
C103  H23   S    
Cr11  O46   S    
C101  H21   S    
C94   O6    A    
C135  H39   S    
C46   H46   S    
C60   C68   A    
C81   C113  S    
Cr5   O17   S    
C82   O34   A    
C3    O19   A    
C86   O30   A    
Cr9   O34   S    
C13   O57   S    
C70   C78   A    
C18   C96   S    
Cr7   O29   S    
Cr2   O12   S    
C34   H50   S    
C106  C114  S    
C111  C119  S    
C90   O2    A    
C98   H18   S    
C65   C73   A    
Cr1   O49   S    
C5    C31   S    
C28   C50   A    
C58   C66   A    
C13   C109  S    
C21   C101  S    
C15   C23   S    
C16   C24   S    
C5    O13   A    
Cr4   O7    S    
C53   C55   A    
C19   C131  S    
Cr6   O27   S    
C94   O46   A    
C54   C56   A    
C17   C129  S    
C81   O25   A    
C131  C139  S    
C82   C114  S    
C2    O18   A    
O53   H65   S    
C106  H2    S    
C70   H64   S    
Cr4   O16   S    
C25   C51   A    
C26   C52   A    
C101  C125  S    
C143  Cl7   S    
C9    O53   S    
C144  Cl8   S    
Cr11  O45   S    
C31   C53   A    
Cr9   O42   S    
C107  C115  S    
C98   C122  S    
Cr3   O13   S    
C9    C17   S    
C11   C107  S    
C67   H57   S    
O54   H66   S    
Cr9   O41   S    
C99   C123  S    
C125  C133  S    
C15   O59   S    
Cr9   O49   S    
C115  C139  S    
C118  C142  S    
C43   H43   S    
C108  H4    S    
C131  H35   S    
C118  C126  S    
C22   C102  S    
C140  Cl4   S    
C87   O31   A    
C141  Cl5   S    
C109  H5    S    
Cr7   O22   S    
Cr2   O3    S    
Cr7   O51   S    
C104  H24   S    
Cr12  O47   S    
C26   C60   A    
Cr8   O52   S    
C137  Cl1   S    
C64   C72   A    
C18   C130  S    
C114  C122  S    
C1    O9    A    
C122  H26   S    
C3    C25   S    
C89   O41   A    
C45   H45   S    
C7    O23   A    
C1    C27   S    
C75   H11   S    
C18   C98   S    
C5    O21   A    
C117  C125  S    
C122  C130  S    
Cr8   O31   S    
Cr12  O40   S    
