data_mof_unit_28975.cif
_audit_creation_date              2013-03-05T15:52:20-0500
_audit_creation_method            fapswitch 2.2
_symmetry_space_group_name_H-M    P1
_symmetry_Int_Tables_number       1
_space_group_crystal_system       triclinic
_cell_length_a                    10.645305
_cell_length_b                    10.761493
_cell_length_c                    16.993422
_cell_angle_alpha                 80.133804
_cell_angle_beta                  99.23175
_cell_angle_gamma                 118.657433
_cell_volume                      1676.10995582

loop_
_atom_site_label
_atom_site_type_symbol
_atom_site_description
_atom_site_fract_x
_atom_site_fract_y
_atom_site_fract_z
_atom_type_partial_charge
O1    O     O_R   0.754020 0.497590 0.609930 -0.460427
O2    O     O_R   0.481420 0.271390 0.600630 -0.507856
C1    C     C_R   0.356939 0.220136 0.625467 0.572194
O3    O     O_R   0.263810 0.254550 0.589590 -0.435355
O4    O     O_R   0.300820 0.531200 0.560890 -0.467429
C2    C     C_R   0.367563 0.654792 0.585153 0.579415
O5    O     O_R   0.491480 0.744020 0.564270 -0.483370
O6    O     O_R   0.726290 0.693800 0.583010 -0.486934
C3    C     C_R   0.721516 0.587877 0.633400 0.588373
O7    O     O_R   0.747830 0.500190 0.434090 -0.515952
O8    O     O_R   0.475680 0.273800 0.437630 -0.561198
C4    C     C_R   0.353372 0.230922 0.398347 0.533035
O9    O     O_R   0.257620 0.257160 0.413750 -0.476230
O10   O     O_R   0.295080 0.533620 0.397890 -0.518088
C5    C     C_R   0.365272 0.654564 0.360942 0.522647
O11   O     O_R   0.485280 0.746620 0.388440 -0.519179
O12   O     O_R   0.720550 0.696220 0.420010 -0.461114
C6    C     C_R   0.700523 0.583213 0.389883 0.566700
Cr1   Cr    Cr6+3 0.608440 0.389080 0.519680 1.025988
Cr2   Cr    Cr6+3 0.288640 0.400090 0.490760 1.078591
Cr3   Cr    Cr6+3 0.602940 0.710800 0.489510 1.080964
O13   O     O_3   0.500010 0.499990 0.499980 -0.313382
C7    C     C_R   0.288458 0.739807 0.798941 -0.071309
C8    C     C_R   0.181294 0.621575 0.762648 -0.052144
C9    C     C_R   0.193543 0.598004 0.687593 -0.090831
C10   C     C_R   0.392074 0.833767 0.669679 0.112810
C11   C     C_R   0.396244 0.848791 0.751284 0.145553
C12   C     C_3   0.102329 0.464013 0.790790 0.337151
C13   C     C_3   0.105352 0.439436 0.704602 0.147948
C14   C     C_R   0.309675 0.695610 0.643782 0.007979
H1    H     H_    0.001329 0.401135 0.666682 0.152636
C15   C     C_1   0.773872 0.631516 0.712178 0.044297
C16   C     C_1   0.819963 0.670757 0.777792 0.023420
C17   C     C_1   0.326685 0.149489 0.704407 0.089951
C18   C     C_1   0.290824 0.103656 0.771333 0.074738
C19   C     C_1   0.336132 0.664872 0.277853 -0.052958
C20   C     C_1   0.323077 0.673170 0.207004 -0.065285
C21   C     C_R   0.788538 0.642692 0.147344 0.014094
C22   C     C_R   0.764272 0.515543 0.196133 0.006141
C23   C     C_R   0.726533 0.492979 0.272722 -0.001877
C24   C     C_R   0.699789 0.706184 0.249437 -0.115115
C25   C     C_R   0.737113 0.728372 0.170364 -0.094684
C26   C     C_3   0.855939 0.441855 0.219754 -0.227442
C27   C     C_3   0.815301 0.418350 0.304208 -0.228425
C28   C     C_R   0.710338 0.595800 0.303844 0.002096
H2    H     H_    0.674436 0.781270 0.269329 0.182486
H3    H     H_    0.739117 0.819337 0.130781 0.205137
H4    H     H_    0.972519 0.514063 0.214720 0.156261
H5    H     H_    0.811532 0.341477 0.191505 0.187318
H6    H     H_    0.749265 0.304314 0.325278 0.166896
H7    H     H_    0.908829 0.478584 0.346420 0.169652
C29   C     C_R   0.334693 0.177907 0.156046 0.025879
C30   C     C_R   0.262967 0.242828 0.180082 -0.045947
C31   C     C_R   0.267888 0.254086 0.258788 -0.013073
C32   C     C_R   0.434839 0.158929 0.294168 -0.154080
C33   C     C_R   0.431905 0.148118 0.213096 -0.140711
C34   C     C_3   0.121742 0.248322 0.161737 0.095571
C35   C     C_3   0.131495 0.265837 0.250733 0.111150
C36   C     C_R   0.343506 0.202727 0.317959 0.065083
H8    H     H_    0.503328 0.127986 0.338085 0.126680
H9    H     H_    0.494422 0.102724 0.196932 0.162135
H10   H     H_    0.129059 0.343235 0.120483 0.100013
H11   H     H_    0.150116 0.372323 0.261723 0.076366
O14   O     O_R   0.163320 0.092900 0.874450 -0.484392
O15   O     O_R   0.934650 0.822080 0.882840 -0.495454
C37   C     C_R   0.885910 0.699678 0.857068 0.530666
O16   O     O_R   0.915520 0.604140 0.893670 -0.453414
O17   O     O_R   0.191760 0.638110 0.923230 -0.471276
C38   C     C_R   0.284130 0.750866 0.882723 0.527874
O18   O     O_R   0.406180 0.826930 0.920660 -0.451163
O19   O     O_R   0.358620 0.062870 0.901950 -0.478230
C39   C     C_R   0.251145 0.055989 0.851644 0.520409
O20   O     O_R   0.163910 0.085460 0.050210 -0.452121
O21   O     O_R   0.935200 0.815170 0.045770 -0.446650
C40   C     C_R   0.880861 0.687549 0.081892 0.554532
O22   O     O_R   0.916120 0.596690 0.069430 -0.518903
O23   O     O_R   0.192310 0.631200 0.086170 -0.510116
C41   C     C_R   0.313113 0.700345 0.123718 0.535264
O24   O     O_R   0.406770 0.819480 0.096420 -0.495270
O25   O     O_R   0.359170 0.055960 0.064880 -0.510092
C42   C     C_R   0.287748 0.111380 0.083174 0.558826
Cr4   Cr    Cr6+3 0.052530 0.947560 0.964210 1.130356
Cr5   Cr    Cr6+3 0.059970 0.626800 0.992920 1.085489
Cr6   Cr    Cr6+3 0.373320 0.938440 0.995370 1.104457
O26   O     O_3   0.161940 0.837600 0.984160 -0.328923
N1    N     N_2   0.485977 0.950494 0.617914 -0.473844
H12   H     H_    0.558029 0.041552 0.643702 0.306561
C43   C     C_3   0.419499 0.980711 0.540747 -0.247228
H13   H     H_    0.504410 0.065134 0.504180 0.165250
H14   H     H_    0.340023 0.015150 0.548727 0.137433
H15   H     H_    0.362807 0.886612 0.506691 0.149574
N2    N     N_R   0.000530 0.114522 0.139011 0.127876
O27   O     O_R   0.902374 0.116382 0.083042 -0.320158
O28   O     O_R   0.992757 0.993216 0.172540 -0.302819
N3    N     N_R   0.014557 0.148568 0.294465 0.136752
O29   O     O_R   0.892300 0.150019 0.290616 -0.363383
O30   O     O_R   0.028026 0.040287 0.334347 -0.285015
N4    N     N_R   0.527112 0.953144 0.788657 0.095587
O31   O     O_R   0.555840 0.086034 0.781919 -0.310289
O32   O     O_R   0.627698 0.918369 0.818930 -0.284864
N5    N     N_R   0.956182 0.415435 0.812361 0.096897
O33   O     O_R   0.923493 0.358555 0.885046 -0.257168
O34   O     O_R   0.852062 0.403420 0.757476 -0.330914
N6    N     N_2   0.181607 0.408018 0.852625 -0.447232
H16   H     H_    0.126278 0.303331 0.876039 0.311516
C44   C     C_3   0.336499 0.476723 0.871738 -0.217077
H17   H     H_    0.363501 0.523226 0.929293 0.156329
H18   H     H_    0.394543 0.560712 0.824236 0.184184
H19   H     H_    0.375522 0.396057 0.879258 0.172887
N7    N     N_R   0.175846 0.354234 0.701778 0.087962
O35   O     O_R   0.314969 0.407489 0.714124 -0.387362
O36   O     O_R   0.095737 0.217008 0.705048 -0.330280

loop_
_geom_bond_atom_site_label_1
_geom_bond_atom_site_label_2
_geom_bond_distance
_ccdc_geom_bond_type
C32   C33   1.396490 A    
C11   N4    1.437087 S    
O16   Cr5   2.053724 S    
N5    O33   1.302272 A    
C34   N2    1.461522 S    
C32   C36   1.400670 A    
C24   C25   1.410961 A    
C7    C38   1.458675 S    
N3    O29   1.300055 A    
O25   Cr6   1.941428 S    
N6    C44   1.453303 S    
O15   Cr4   1.941140 S    
C34   H10   1.112035 S    
O4    Cr2   1.943969 S    
O23   C41   1.263412 A    
O8    Cr1   1.938906 S    
C10   C11   1.414710 A    
O11   Cr3   2.052625 S    
C12   C13   1.540186 S    
C21   C25   1.406888 A    
O4    C2    1.277253 A    
N1    C43   1.450165 S    
C44   H17   1.108712 S    
O23   Cr5   1.934807 S    
C5    O11   1.258981 A    
C35   H11   1.109488 S    
C17   C18   1.203716 T    
N7    O35   1.301248 A    
C40   O22   1.261052 A    
C3    C15   1.431198 S    
C4    C36   1.426421 S    
C12   N5    1.471505 S    
O17   C38   1.303701 A    
C24   H2    1.082626 S    
C7    C11   1.424731 A    
O18   Cr6   2.059476 S    
C26   H4    1.112488 S    
C10   N1    1.431800 S    
C31   C36   1.393236 A    
C43   H13   1.108005 S    
C37   O16   1.253826 A    
N5    O34   1.298975 A    
C32   H8    1.082835 S    
C38   O18   1.290641 A    
O21   Cr4   1.919050 S    
O22   Cr5   2.039342 S    
O20   C42   1.262300 A    
N6    H16   1.029352 S    
C16   C37   1.426612 S    
O6    Cr3   1.934845 S    
C21   C40   1.465510 S    
C9    C13   1.502759 S    
C23   C28   1.395187 A    
O1    Cr1   2.057375 S    
O21   C40   1.288665 A    
C35   N3    1.470769 S    
O10   Cr2   1.929589 S    
C13   N7    1.446633 S    
Cr1   O13   1.982292 S    
O1    C3    1.312389 A    
C8    C9    1.379881 A    
C22   C23   1.371206 A    
C30   C34   1.513081 S    
C41   O24   1.253591 A    
O6    C3    1.288053 A    
C22   C26   1.499882 S    
C1    C17   1.426715 S    
C30   C31   1.353969 A    
O12   Cr3   1.926998 S    
C26   C27   1.510196 S    
O24   Cr6   2.049899 S    
C12   N6    1.471633 S    
C43   H15   1.107793 S    
O7    Cr1   2.035122 S    
C7    C8    1.397004 A    
N2    O28   1.300873 A    
O12   C6    1.310036 A    
C33   H9    1.083264 S    
Cr6   O26   1.966855 S    
O14   Cr4   2.038203 S    
C27   H7    1.112288 S    
C2    C14   1.473743 S    
C43   H14   1.107399 S    
C18   C39   1.428753 S    
C10   C14   1.422348 A    
N4    O32   1.301100 A    
O15   C37   1.290489 A    
C1    O3    1.254008 A    
C6    C28   1.461001 S    
C5    C19   1.393196 S    
C29   C30   1.395512 A    
O19   Cr6   1.931467 S    
C31   C35   1.499758 S    
C27   H6    1.109558 S    
C9    C14   1.402761 A    
C19   C20   1.182446 T    
O9    Cr2   2.061918 S    
Cr5   O26   1.980129 S    
O2    Cr1   1.918836 S    
N1    H12   1.029079 S    
O17   Cr5   1.924963 S    
C26   H5    1.111703 S    
C8    C12   1.514730 S    
Cr2   O13   1.966645 S    
O25   C42   1.266770 A    
O8    C4    1.266577 A    
N3    O30   1.302370 A    
C2    O5    1.267519 A    
Cr4   O26   1.982296 S    
C20   C41   1.392702 S    
C15   C16   1.203917 T    
O2    C1    1.279453 A    
O19   C39   1.293017 A    
C13   H1    1.111605 S    
O5    Cr3   2.048361 S    
C34   C35   1.536893 S    
C21   C22   1.402614 A    
C44   H18   1.106652 S    
O7    C6    1.302451 A    
N2    O27   1.300569 A    
O20   Cr4   2.059972 S    
C25   H3    1.081724 S    
O14   C39   1.306623 A    
C29   C42   1.434540 S    
N7    O36   1.300122 A    
O3    Cr2   2.046326 S    
C23   C27   1.497559 S    
C4    O9    1.254679 A    
N4    O31   1.299016 A    
C24   C28   1.413078 A    
O10   C5    1.258670 A    
Cr3   O13   1.979633 S    
C29   C33   1.415390 A    
C44   H19   1.110539 S    
