data_mof_unit_60861.cif
_audit_creation_date              2012-12-10T18:53:33-0500
_audit_creation_method            fapswitch 2.2
_symmetry_space_group_name_H-M    P1
_symmetry_Int_Tables_number       1
_space_group_crystal_system       triclinic
_cell_length_a                    30.258049
_cell_length_b                    30.258055
_cell_length_c                    21.693522
_cell_angle_alpha                 89.97711
_cell_angle_beta                  89.977066
_cell_angle_gamma                 89.997753
_cell_volume                      19861.4946028

loop_
_atom_site_label
_atom_site_type_symbol
_atom_type_description
_atom_site_fract_x
_atom_site_fract_y
_atom_site_fract_z
_atom_type_partial_charge
C1    C     C_R   0.499999 0.086316 0.999999 0.846237
C2    C     C_R   0.086294 0.499999 0.999999 0.848155
C3    C     C_R   0.500000 0.913708 0.999977 0.848531
C4    C     C_R   0.913706 0.500000 0.000001 0.848144
C5    C     C_R   1.000000 0.586294 0.499998 0.848145
C6    C     C_R   0.586292 0.999999 0.500022 0.848530
C7    C     C_R   0.000001 0.413706 0.500001 0.848155
C8    C     C_R   0.413683 0.000001 0.500000 0.846233
C9    C     C_R   0.499989 0.226104 0.000044 0.098712
C10   C     C_R   0.226026 0.499977 0.000042 0.087443
C11   C     C_R   0.500000 0.773982 0.999866 0.087433
C12   C     C_R   0.773974 0.499986 0.999961 0.087419
C13   C     C_R   0.000014 0.726026 0.500039 0.087426
C14   C     C_R   0.726017 0.000000 0.500134 0.087427
C15   C     C_R   0.000023 0.273973 0.499958 0.087442
C16   C     C_R   0.273897 0.000011 0.499955 0.098711
C17   C     C_R   0.514364 0.296901 0.052335 -0.157390
C18   C     C_R   0.296864 0.513191 0.052924 -0.158442
C19   C     C_R   0.513017 0.703131 0.052887 -0.158990
C20   C     C_R   0.703112 0.486774 0.052864 -0.158752
C21   C     C_R   0.485610 0.296924 0.947748 -0.157339
C22   C     C_R   0.703135 0.513189 0.947060 -0.158345
C23   C     C_R   0.486960 0.703128 0.946939 -0.158844
C24   C     C_R   0.296890 0.486754 0.947158 -0.158847
C25   C     C_R   0.986800 0.796865 0.552935 -0.158342
C26   C     C_R   0.796872 0.013028 0.553066 -0.158844
C27   C     C_R   0.013246 0.203110 0.552841 -0.158846
C28   C     C_R   0.203077 0.014368 0.552264 -0.157343
C29   C     C_R   0.013238 0.796888 0.447141 -0.158751
C30   C     C_R   0.203100 0.985658 0.447653 -0.157395
C31   C     C_R   0.986808 0.203135 0.447077 -0.158441
C32   C     C_R   0.796868 0.986995 0.447109 -0.158990
C33   C     C_R   0.514076 0.342720 0.052512 -0.178557
C34   C     C_R   0.342681 0.512931 0.053073 -0.177135
C35   C     C_R   0.512755 0.657316 0.053072 -0.178775
C36   C     C_R   0.657296 0.487039 0.053027 -0.180660
C37   C     C_R   0.485900 0.342742 0.947557 -0.178637
C38   C     C_R   0.657318 0.512926 0.946909 -0.176998
C39   C     C_R   0.487223 0.657311 0.946816 -0.178744
C40   C     C_R   0.342705 0.487023 0.946994 -0.180785
C41   C     C_R   0.987063 0.842682 0.553086 -0.177000
C42   C     C_R   0.842688 0.012765 0.553189 -0.178745
C43   C     C_R   0.012977 0.157294 0.553006 -0.180783
C44   C     C_R   0.157259 0.014078 0.552455 -0.178638
C45   C     C_R   0.012972 0.842704 0.446978 -0.180656
C46   C     C_R   0.157281 0.985946 0.447476 -0.178558
C47   C     C_R   0.987068 0.157319 0.446927 -0.177137
C48   C     C_R   0.842684 0.987256 0.446923 -0.178777
C49   C     C_R   0.499991 0.365785 0.000029 -0.035318
C50   C     C_R   0.365758 0.499983 0.000028 -0.037179
C51   C     C_R   0.499991 0.634246 0.999959 -0.038233
C52   C     C_R   0.634242 0.499986 0.999972 -0.037281
C53   C     C_R   0.000014 0.865758 0.500027 -0.037273
C54   C     C_R   0.865753 0.000009 0.500041 -0.038240
C55   C     C_R   0.000017 0.134241 0.499972 -0.037179
C56   C     C_R   0.134216 0.000009 0.499971 -0.035333
C57   C     C_R   0.499987 0.274022 0.000044 0.104772
C58   C     C_R   0.273969 0.499972 0.000043 0.100852
C59   C     C_R   0.499990 0.726039 0.999897 0.100755
C60   C     C_R   0.726032 0.499982 0.999960 0.100771
C61   C     C_R   0.000018 0.773968 0.500040 0.100770
C62   C     C_R   0.773961 0.000009 0.500104 0.100753
C63   C     C_R   0.000028 0.226031 0.499957 0.100852
C64   C     C_R   0.225979 0.000013 0.499955 0.104765
C65   C     C_R   0.586260 0.499997 0.999990 0.867572
C66   C     C_R   0.499998 0.413749 0.000010 0.867326
C67   C     C_R   0.413740 0.499996 0.000010 0.867469
C68   C     C_R   0.499997 0.586261 0.999988 0.867665
C69   C     C_R   0.086251 0.000002 0.499989 0.867331
C70   C     C_R   0.000003 0.913740 0.500010 0.867574
C71   C     C_R   0.913739 0.000003 0.500012 0.867667
C72   C     C_R   0.000004 0.086259 0.499990 0.867474
C73   C     C_R   0.499999 0.999959 0.119989 0.867226
C74   C     C_R   0.000005 0.499992 0.119989 0.867975
C75   C     C_R   0.499986 0.999841 0.880011 0.867189
C76   C     C_R   0.999998 0.500008 0.880010 0.867975
C77   C     C_R   0.999992 0.500001 0.619989 0.867976
C78   C     C_R   0.500159 0.000014 0.619989 0.867187
C79   C     C_R   0.000008 0.499995 0.380010 0.867977
C80   C     C_R   0.500041 0.000001 0.380011 0.867224
C81   C     C_R   0.551786 0.936179 0.187191 -0.229551
C82   C     C_R   0.936237 0.448223 0.187257 -0.228510
C83   C     C_R   0.448328 0.063770 0.187200 -0.228916
C84   C     C_R   0.063808 0.551726 0.187119 -0.228442
C85   C     C_R   0.447810 0.936423 0.812597 -0.228554
C86   C     C_R   0.063792 0.448272 0.812799 -0.228345
C87   C     C_R   0.551248 0.064014 0.813008 -0.229913
C88   C     C_R   0.936218 0.551780 0.812824 -0.228614
C89   C     C_R   0.051727 0.436207 0.687200 -0.228346
C90   C     C_R   0.435987 0.948749 0.686993 -0.229913
C91   C     C_R   0.948223 0.563784 0.687175 -0.228613
C92   C     C_R   0.563575 0.052193 0.687403 -0.228555
C93   C     C_R   0.948276 0.436190 0.312881 -0.228443
C94   C     C_R   0.563819 0.948211 0.312808 -0.229552
C95   C     C_R   0.051774 0.563764 0.312743 -0.228509
C96   C     C_R   0.436232 0.051673 0.312800 -0.228916
C97   C     C_R   0.582612 0.910289 0.218531 0.188253
C98   C     C_R   0.910347 0.417402 0.218633 0.188541
C99   C     C_R   0.417502 0.089661 0.218531 0.184914
C100  C     C_R   0.089698 0.582552 0.218428 0.188563
C101  C     C_R   0.416826 0.910801 0.781115 0.182980
C102  C     C_R   0.089676 0.417440 0.781462 0.188614
C103  C     C_R   0.581914 0.090169 0.781820 0.190114
C104  C     C_R   0.910319 0.582598 0.781477 0.188489
C105  C     C_R   0.082558 0.410322 0.718537 0.188615
C106  C     C_R   0.409833 0.918083 0.718181 0.190112
C107  C     C_R   0.917407 0.589684 0.718522 0.188494
C108  C     C_R   0.589196 0.083177 0.718885 0.182978
C109  C     C_R   0.917451 0.410299 0.281573 0.188566
C110  C     C_R   0.589708 0.917385 0.281467 0.188249
C111  C     C_R   0.082595 0.589656 0.281367 0.188544
C112  C     C_R   0.410341 0.082500 0.281469 0.184914
C113  C     C_R   0.530448 0.972681 0.282094 0.042940
C114  C     C_R   0.972738 0.469567 0.282129 0.042887
C115  C     C_R   0.469632 0.027247 0.282091 0.040670
C116  C     C_R   0.027314 0.530384 0.282061 0.042855
C117  C     C_R   0.469491 0.972918 0.717821 0.040284
C118  C     C_R   0.027272 0.469594 0.717909 0.042832
C119  C     C_R   0.530306 0.027478 0.717994 0.043330
C120  C     C_R   0.972694 0.530413 0.717901 0.042911
C121  C     C_R   0.030405 0.472728 0.782091 0.042833
C122  C     C_R   0.472523 0.969693 0.782006 0.043327
C123  C     C_R   0.969588 0.527308 0.782098 0.042913
C124  C     C_R   0.527081 0.030510 0.782179 0.040284
C125  C     C_R   0.969616 0.472685 0.217939 0.042858
C126  C     C_R   0.527317 0.969551 0.217906 0.042938
C127  C     C_R   0.030432 0.527263 0.217871 0.042889
C128  C     C_R   0.472753 0.030369 0.217909 0.040670
C129  C     C_R   0.500050 0.999986 0.313819 -0.146229
C130  C     C_R   0.000024 0.499979 0.313819 -0.145560
C131  C     C_R   0.500048 0.000086 0.686181 -0.146196
C132  C     C_R   0.999979 0.499998 0.686181 -0.145559
C133  C     C_R   0.000001 0.500022 0.813819 -0.145561
C134  C     C_R   0.499914 0.999952 0.813819 -0.146194
C135  C     C_R   0.000021 0.499976 0.186181 -0.145562
C136  C     C_R   0.500014 0.999949 0.186181 -0.146228
C137  C     C_R   0.461099 0.203221 0.986135 -0.149969
C138  C     C_R   0.203121 0.461705 0.983099 -0.146028
C139  C     C_R   0.461804 0.796904 0.982594 -0.146774
C140  C     C_R   0.796885 0.538262 0.982981 -0.146168
C141  C     C_R   0.538883 0.203212 0.013936 -0.149455
C142  C     C_R   0.796882 0.461716 0.016958 -0.146022
C143  C     C_R   0.538203 0.796880 0.017132 -0.146221
C144  C     C_R   0.203115 0.538257 0.016967 -0.146181
C145  C     C_R   0.038287 0.703118 0.483055 -0.146023
C146  C     C_R   0.703119 0.961799 0.482859 -0.146222
C147  C     C_R   0.961742 0.296885 0.483034 -0.146179
C148  C     C_R   0.296788 0.961119 0.486049 -0.149457
C149  C     C_R   0.961734 0.703116 0.517006 -0.146168
C150  C     C_R   0.296779 0.038899 0.513880 -0.149969
C151  C     C_R   0.038295 0.296879 0.516900 -0.146026
C152  C     C_R   0.703096 0.038194 0.517416 -0.146774
C153  C     C_R   0.461009 0.157410 0.986489 -0.159670
C154  C     C_R   0.157314 0.461603 0.983518 -0.162152
C155  C     C_R   0.461693 0.842711 0.983047 -0.163080
C156  C     C_R   0.842692 0.538380 0.983436 -0.162268
C157  C     C_R   0.538982 0.157401 0.013546 -0.159021
C158  C     C_R   0.842688 0.461611 0.016538 -0.162227
C159  C     C_R   0.538316 0.842686 0.016720 -0.162522
C160  C     C_R   0.157308 0.538377 0.016511 -0.162190
C161  C     C_R   0.038392 0.657312 0.483474 -0.162220
C162  C     C_R   0.657313 0.961686 0.483271 -0.162527
C163  C     C_R   0.961623 0.342692 0.483490 -0.162189
C164  C     C_R   0.342599 0.961020 0.486440 -0.159024
C165  C     C_R   0.961617 0.657309 0.516551 -0.162261
C166  C     C_R   0.342590 0.038989 0.513525 -0.159673
C167  C     C_R   0.038397 0.342686 0.516481 -0.162152
C168  C     C_R   0.657289 0.038304 0.516962 -0.163084
C169  C     C_R   0.499997 0.134318 0.000009 -0.042908
C170  C     C_R   0.134255 0.499994 0.000007 -0.048904
C171  C     C_R   0.500002 0.865751 0.999917 -0.048799
C172  C     C_R   0.865745 0.499998 0.999995 -0.048879
C173  C     C_R   0.000002 0.634255 0.500005 -0.048884
C174  C     C_R   0.634248 0.999998 0.500083 -0.048796
C175  C     C_R   0.000006 0.365745 0.499993 -0.048904
C176  C     C_R   0.365682 0.000003 0.499991 -0.042896
H1    H     H_    0.547136 0.929373 0.138743 0.174120
H2    H     H_    0.929420 0.452879 0.138809 0.173922
H3    H     H_    0.453027 0.070603 0.138758 0.177707
H4    H     H_    0.070620 0.547070 0.138667 0.173909
H5    H     H_    0.452345 0.929531 0.861051 0.174347
H6    H     H_    0.070616 0.452940 0.861239 0.173921
H7    H     H_    0.546424 0.070767 0.861441 0.177383
H8    H     H_    0.929415 0.547138 0.861286 0.173910
H9    H     H_    0.047059 0.429382 0.638761 0.173920
H10   H     H_    0.429235 0.953573 0.638560 0.177385
H11   H     H_    0.952866 0.570587 0.638713 0.173911
H12   H     H_    0.570467 0.047657 0.638949 0.174347
H13   H     H_    0.952933 0.429379 0.361334 0.173908
H14   H     H_    0.570625 0.952861 0.361256 0.174120
H15   H     H_    0.047118 0.570581 0.361192 0.173923
H16   H     H_    0.429398 0.046975 0.361242 0.177709
H17   H     H_    0.430846 0.220848 0.975664 0.145568
H18   H     H_    0.220712 0.431904 0.970262 0.154278
H19   H     H_    0.432062 0.779324 0.969484 0.154389
H20   H     H_    0.779296 0.568057 0.970093 0.154592
H21   H     H_    0.569134 0.220832 0.024414 0.145823
H22   H     H_    0.779292 0.431917 0.029838 0.154342
H23   H     H_    0.567943 0.779284 0.030226 0.154671
H24   H     H_    0.220702 0.568054 0.029812 0.154525
H25   H     H_    0.068088 0.720708 0.470185 0.154338
H26   H     H_    0.720716 0.932061 0.469757 0.154676
H27   H     H_    0.931946 0.279298 0.470189 0.154526
H28   H     H_    0.279168 0.930870 0.475559 0.145824
H29   H     H_    0.931937 0.720704 0.529883 0.154587
H30   H     H_    0.279152 0.069150 0.524362 0.145569
H31   H     H_    0.068096 0.279288 0.529736 0.154279
H32   H     H_    0.720676 0.067934 0.530533 0.154394
H33   H     H_    0.430615 0.140136 0.975788 0.169225
H34   H     H_    0.139988 0.431707 0.970541 0.180629
H35   H     H_    0.431861 0.860053 0.969799 0.180247
H36   H     H_    0.860022 0.568278 0.970432 0.180596
H37   H     H_    0.569379 0.140119 0.024232 0.169521
H38   H     H_    0.860016 0.431717 0.029558 0.180587
H39   H     H_    0.568154 0.860009 0.029959 0.180579
H40   H     H_    0.139977 0.568279 0.029472 0.180641
H41   H     H_    0.068288 0.639984 0.470463 0.180587
H42   H     H_    0.639990 0.931850 0.470024 0.180579
H43   H     H_    0.931720 0.360023 0.470530 0.180641
H44   H     H_    0.359881 0.930625 0.475741 0.169512
H45   H     H_    0.931716 0.639978 0.529546 0.180596
H46   H     H_    0.359864 0.069381 0.524237 0.169216
H47   H     H_    0.068293 0.360012 0.529457 0.180629
H48   H     H_    0.639946 0.068135 0.530218 0.180246
H49   H     H_    0.525331 0.279268 0.093031 0.144423
H50   H     H_    0.279250 0.523235 0.094098 0.150047
H51   H     H_    0.522912 0.720736 0.094119 0.149777
H52   H     H_    0.720706 0.476737 0.094050 0.149531
H53   H     H_    0.474644 0.279309 0.907056 0.144273
H54   H     H_    0.720748 0.523225 0.905871 0.150094
H55   H     H_    0.477065 0.720729 0.905684 0.149657
H56   H     H_    0.279296 0.476709 0.905988 0.149484
H57   H     H_    0.976754 0.779252 0.594120 0.150096
H58   H     H_    0.779270 0.022914 0.594325 0.149656
H59   H     H_    0.023293 0.220704 0.594012 0.149484
H60   H     H_    0.220692 0.025317 0.592965 0.144281
H61   H     H_    0.023283 0.779294 0.405959 0.149533
H62   H     H_    0.220734 0.974708 0.406948 0.144431
H63   H     H_    0.976764 0.220749 0.405903 0.150048
H64   H     H_    0.779263 0.977108 0.405872 0.149776
H65   H     H_    0.525242 0.360057 0.093313 0.159866
H66   H     H_    0.359996 0.523204 0.094345 0.162725
H67   H     H_    0.522878 0.639997 0.094433 0.162702
H68   H     H_    0.639964 0.476777 0.094320 0.161090
H69   H     H_    0.474737 0.360094 0.906747 0.159800
H70   H     H_    0.640002 0.523189 0.905621 0.162802
H71   H     H_    0.477101 0.639988 0.905478 0.162673
H72   H     H_    0.360039 0.476754 0.905715 0.161014
H73   H     H_    0.976791 0.859998 0.594369 0.162796
H74   H     H_    0.860011 0.022878 0.594531 0.162679
H75   H     H_    0.023247 0.139961 0.594284 0.161015
H76   H     H_    0.139907 0.025224 0.593274 0.159813
H77   H     H_    0.023243 0.860037 0.405689 0.161085
H78   H     H_    0.139945 0.974797 0.406665 0.159878
H79   H     H_    0.976795 0.140003 0.405656 0.162725
H80   H     H_    0.860002 0.977143 0.405559 0.162708
O1    O     O_R   0.463050 0.065470 0.999990 -0.621952
O2    O     O_R   0.065470 0.536950 0.999990 -0.621574
O3    O     O_R   0.536950 0.934530 0.999990 -0.621408
O4    O     O_R   0.934530 0.463050 0.999990 -0.621525
O5    O     O_R   0.536950 0.065470 0.000010 -0.621733
O6    O     O_R   0.934530 0.536950 0.000010 -0.621581
O7    O     O_R   0.463050 0.934530 0.000010 -0.621630
O8    O     O_R   0.065470 0.463050 0.000010 -0.621519
O9    O     O_R   0.963050 0.565470 0.499990 -0.621584
O10   O     O_R   0.565470 0.036950 0.499990 -0.621629
O11   O     O_R   0.036950 0.434530 0.499990 -0.621520
O12   O     O_R   0.434530 0.963050 0.499990 -0.621730
O13   O     O_R   0.036950 0.565470 0.500010 -0.621527
O14   O     O_R   0.434530 0.036950 0.500010 -0.621949
O15   O     O_R   0.963050 0.434530 0.500010 -0.621575
O16   O     O_R   0.565470 0.963050 0.500010 -0.621406
O17   O     O_R   0.463050 0.999990 0.091600 -0.613939
O18   O     O_R   0.999990 0.536950 0.091600 -0.615001
O19   O     O_R   0.536950 0.000010 0.091600 -0.616898
O20   O     O_R   0.000010 0.463050 0.091600 -0.614945
O21   O     O_R   0.536950 0.999990 0.908400 -0.613311
O22   O     O_R   0.000010 0.536950 0.908400 -0.614990
O23   O     O_R   0.463050 0.000010 0.908400 -0.617538
O24   O     O_R   0.999990 0.463050 0.908400 -0.614954
O25   O     O_R   0.963050 0.499990 0.591600 -0.614990
O26   O     O_R   0.499990 0.036950 0.591600 -0.617540
O27   O     O_R   0.036950 0.500010 0.591600 -0.614955
O28   O     O_R   0.500010 0.963050 0.591600 -0.613311
O29   O     O_R   0.036950 0.499990 0.408400 -0.614945
O30   O     O_R   0.500010 0.036950 0.408400 -0.613938
O31   O     O_R   0.963050 0.500010 0.408400 -0.615000
O32   O     O_R   0.499990 0.963050 0.408400 -0.616900
O33   O     O_R   0.565470 0.500020 0.051710 -0.624186
O34   O     O_R   0.500020 0.434530 0.051710 -0.621378
O35   O     O_R   0.434530 0.499980 0.051710 -0.619490
O36   O     O_R   0.499980 0.565470 0.051710 -0.621979
O37   O     O_R   0.434530 0.500020 0.948290 -0.624227
O38   O     O_R   0.499980 0.434530 0.948290 -0.621379
O39   O     O_R   0.565470 0.499980 0.948290 -0.619450
O40   O     O_R   0.500020 0.565470 0.948290 -0.621952
O41   O     O_R   0.065470 0.000020 0.551710 -0.621385
O42   O     O_R   0.000020 0.934530 0.551710 -0.619449
O43   O     O_R   0.934530 0.999980 0.551710 -0.621956
O44   O     O_R   0.999980 0.065470 0.551710 -0.624224
O45   O     O_R   0.934530 0.000020 0.448290 -0.621981
O46   O     O_R   0.999980 0.934530 0.448290 -0.624180
O47   O     O_R   0.065470 0.999980 0.448290 -0.621385
O48   O     O_R   0.000020 0.065470 0.448290 -0.619492
Zn1   Zn    Zn3+2 0.450650 0.000000 0.000000 0.995835
Zn2   Zn    Zn3+2 0.000000 0.549350 0.000000 0.998822
Zn3   Zn    Zn3+2 0.549350 0.000000 0.000000 0.997011
Zn4   Zn    Zn3+2 0.000000 0.450650 0.000000 0.998881
Zn5   Zn    Zn3+2 0.950650 0.500000 0.500000 0.998820
Zn6   Zn    Zn3+2 0.500000 0.049350 0.500000 0.995839
Zn7   Zn    Zn3+2 0.049350 0.500000 0.500000 0.998879
Zn8   Zn    Zn3+2 0.500000 0.950650 0.500000 0.997014
Zn9   Zn    Zn3+2 0.500000 0.500000 0.069060 0.973588
Zn10  Zn    Zn3+2 0.500000 0.500000 0.930940 0.973598
Zn11  Zn    Zn3+2 0.000000 0.000000 0.569060 0.973595
Zn12  Zn    Zn3+2 0.000000 0.000000 0.430940 0.973584
I1    I     I_    0.382525 0.138052 0.167343 -0.300757
I2    I     I_    0.138013 0.617725 0.167331 -0.334387
I3    I     I_    0.617796 0.861979 0.167488 -0.334268
I4    I     I_    0.862024 0.382237 0.167630 -0.335010
I5    I     I_    0.616430 0.138735 0.833255 -0.300119
I6    I     I_    0.862013 0.617784 0.832539 -0.333121
I7    I     I_    0.381229 0.862650 0.831921 -0.334409
I8    I     I_    0.138010 0.382284 0.832501 -0.336256
I9    I     I_    0.882224 0.637992 0.667459 -0.333119
I10   I     I_    0.637345 0.118776 0.668080 -0.334407
I11   I     I_    0.117713 0.361987 0.667499 -0.336257
I12   I     I_    0.361269 0.883564 0.666746 -0.300110
I13   I     I_    0.117757 0.637980 0.332371 -0.335006
I14   I     I_    0.361951 0.117479 0.332656 -0.300747
I15   I     I_    0.882280 0.361983 0.332670 -0.334390
I16   I     I_    0.638016 0.882198 0.332510 -0.334269

loop_
_geom_bond_atom_site_label_1
_geom_bond_atom_site_label_2
_ccdc_geom_bond_type
O24   Zn4   S    
C5    O9    A    
C161  H41   S    
C81   C126  A    
C83   C128  A    
C15   C151  A    
C165  H45   S    
C75   O21   A    
C4    O6    A    
C92   C119  A    
C22   C60   A    
C87   C124  A    
C22   C38   A    
C67   O35   A    
C105  I11   S    
C37   H69   S    
C154  C170  A    
C107  I9    S    
C157  C169  A    
O47   Zn12  S    
C18   C58   A    
C2    O8    A    
C144  C160  A    
O37   Zn10  S    
C125  C135  A    
C126  C136  A    
C4    O4    A    
C98   C109  A    
C154  H34   S    
C114  C130  A    
C141  H21   S    
C142  C158  A    
C139  H19   S    
O48   Zn12  S    
C76   O24   A    
C84   C100  A    
C90   C117  A    
C91   C107  A    
O40   Zn10  S    
O7    Zn1   S    
C25   C41   A    
O3    Zn3   S    
C6    C174  S    
C79   C130  S    
C28   C44   A    
C29   C45   A    
C102  I8    S    
C94   H14   S    
C82   C125  A    
C146  C162  A    
C65   O39   A    
C22   H54   S    
C82   H2    S    
C86   C121  A    
C137  C153  A    
O31   Zn5   S    
O12   Zn8   S    
C140  C156  A    
C87   C103  A    
C141  C157  A    
O14   Zn6   S    
O4    Zn4   S    
C35   C51   A    
O9    Zn5   S    
O11   Zn7   S    
O18   Zn2   S    
O25   Zn5   S    
C76   C133  S    
C80   O30   A    
O35   Zn9   S    
C89   H9    S    
C128  C136  A    
C32   C62   A    
O20   Zn4   S    
C19   C35   A    
C158  C172  A    
C145  C161  A    
C3    O3    A    
C147  H27   S    
C93   C114  A    
C71   O43   A    
C43   H75   S    
C116  C130  A    
C100  C111  A    
C106  I12   S    
O26   Zn6   S    
C10   C138  A    
C151  H31   S    
C11   C143  A    
C118  C121  A    
C104  C107  A    
C23   H55   S    
C52   C65   S    
C38   H70   S    
C39   C51   A    
O45   Zn12  S    
C35   H67   S    
C33   H65   S    
C13   C145  A    
C163  C175  A    
C75   C134  S    
C23   C59   A    
C10   C58   S    
C87   H7    S    
C151  C167  A    
O23   Zn1   S    
C66   O38   A    
C14   C62   S    
C97   I3    S    
C98   I4    S    
C99   I1    S    
C104  I6    S    
C122  C134  A    
C8    O14   A    
C17   H49   S    
C92   C108  A    
C101  I7    S    
C6    O10   A    
O34   Zn9   S    
C119  C131  A    
C50   C67   S    
C36   C52   A    
C26   H58   S    
C45   C53   A    
C30   H62   S    
C88   C104  A    
C94   C113  A    
C79   O31   A    
C29   C61   A    
C80   O32   A    
C159  H39   S    
C49   C66   S    
C148  C164  A    
C31   C63   A    
C149  C165  A    
C150  H30   S    
C113  C126  A    
O29   Zn7   S    
C19   C59   A    
C156  C172  A    
C163  H43   S    
C115  C128  A    
C117  C122  A    
C18   C34   A    
C139  C155  A    
C95   C116  A    
C10   C144  A    
C7    O11   A    
C41   C53   A    
C28   H60   S    
C43   C55   A    
C86   C102  A    
C109  I15   S    
C148  H28   S    
C167  C175  A    
C101  C106  A    
C91   H11   S    
C85   H5    S    
C80   C129  S    
C4    C172  S    
O46   Zn12  S    
C5    C173  S    
C30   C46   A    
C8    C176  S    
C93   H13   S    
C158  H38   S    
C20   H52   S    
C83   H3    S    
C111  I13   S    
C81   H1    S    
C146  H26   S    
C147  C163  A    
C138  C154  A    
C117  C131  A    
C118  C132  A    
O19   Zn3   S    
C56   C69   S    
C89   C105  A    
O5    Zn3   S    
C69   O41   A    
C77   O25   A    
O1    Zn1   S    
C93   C109  A    
C79   O29   A    
C162  H42   S    
C30   C64   A    
C82   C98   A    
C166  H46   S    
C168  C174  A    
O30   Zn6   S    
C26   C42   A    
C159  C171  A    
C123  C133  A    
C127  C135  A    
C72   O48   A    
O27   Zn7   S    
C156  H36   S    
C33   C49   A    
C160  H40   S    
C102  C105  A    
C11   C139  A    
C112  I14   S    
C9    C137  A    
C54   C71   S    
C116  C127  A    
O33   Zn9   S    
C12   C140  A    
C20   C60   A    
C69   O47   A    
C120  C123  A    
C31   C47   A    
C70   O46   A    
C17   C33   A    
C11   C59   S    
C53   C70   S    
C152  C168  A    
C152  H32   S    
C1    O1    A    
C138  H18   S    
C36   H68   S    
C90   C106  A    
C110  I16   S    
C149  H29   S    
O39   Zn10  S    
C94   C110  A    
C83   C99   A    
C74   O18   A    
C47   H79   S    
C161  C173  A    
C84   H4    S    
C44   C56   A    
C73   C136  S    
C21   H53   S    
C74   C135  S    
C92   H12   S    
C85   C122  A    
C25   C61   A    
O6    Zn2   S    
C167  H47   S    
C27   C63   A    
C2    C170  S    
C39   H71   S    
C28   C64   A    
C68   O36   A    
O21   Zn3   S    
C65   O33   A    
C31   H63   S    
C166  C176  A    
C71   O45   A    
C24   H56   S    
C143  C159  A    
C124  C134  A    
C90   H10   S    
C5    O13   A    
C7    O15   A    
C42   C54   A    
C15   C147  A    
C96   H16   S    
C32   C48   A    
C40   C50   A    
C12   C142  A    
C164  C176  A    
C88   H8    S    
C20   C36   A    
C27   C43   A    
C21   C37   A    
C42   H74   S    
C24   C58   A    
C153  C169  A    
C86   H6    S    
C46   H78   S    
C100  I2    S    
C17   C57   A    
C150  C166  A    
C145  H25   S    
C97   C110  A    
C34   H66   S    
C8    O12   A    
C7    C175  S    
O28   Zn8   S    
C119  C124  A    
C48   C54   A    
C96   C112  A    
C113  C129  A    
O15   Zn5   S    
C38   C52   A    
O44   Zn11  S    
C165  C173  A    
C37   C49   A    
C74   O20   A    
C78   O26   A    
C19   H51   S    
C18   H50   S    
O38   Zn10  S    
C44   H76   S    
C73   O17   A    
C153  H33   S    
C144  H24   S    
C96   C115  A    
C103  C108  A    
C48   H80   S    
O2    Zn2   S    
O8    Zn4   S    
C55   C72   S    
C95   H15   S    
O22   Zn2   S    
C164  H44   S    
C84   C127  A    
C25   H57   S    
C142  H22   S    
C168  H48   S    
C88   C123  A    
O10   Zn6   S    
C72   O44   A    
C29   H61   S    
C40   H72   S    
C137  H17   S    
C34   C50   A    
C6    O16   A    
O36   Zn9   S    
O17   Zn1   S    
C114  C125  A    
C9    C141  A    
C32   H64   S    
C77   O27   A    
C75   O23   A    
C77   C132  S    
C78   C131  S    
O16   Zn8   S    
C21   C57   A    
C78   O28   A    
C67   O37   A    
C70   O42   A    
C140  H20   S    
C1    O5    A    
C2    O2    A    
C3    O7    A    
C14   C152  A    
C85   C101  A    
C47   C55   A    
C115  C129  A    
C15   C63   S    
C103  I5    S    
C120  C132  A    
C46   C56   A    
O42   Zn11  S    
C16   C150  A    
C162  C174  A    
C27   H59   S    
C143  H23   S    
C14   C146  A    
C157  H37   S    
C76   O22   A    
C16   C148  A    
C155  H35   S    
C26   C62   A    
C13   C149  A    
C95   C111  A    
C108  I10   S    
O43   Zn11  S    
C3    C171  S    
O41   Zn11  S    
C81   C97   A    
C73   O19   A    
C23   C39   A    
C99   C112  A    
C68   O40   A    
C1    C169  S    
C24   C40   A    
C9    C57   S    
C51   C68   S    
C12   C60   S    
C155  C171  A    
C13   C61   S    
C89   C118  A    
C66   O34   A    
C41   H73   S    
C160  C170  A    
C91   C120  A    
C16   C64   S    
C121  C133  A    
O32   Zn8   S    
C45   H77   S    
O13   Zn7   S    
