data_mof_unit_11451.cif
_audit_creation_date              2013-03-05T16:32:00-0500
_audit_creation_method            fapswitch 2.2
_symmetry_space_group_name_H-M    P1
_symmetry_Int_Tables_number       1
_space_group_crystal_system       triclinic
_cell_length_a                    9.589062
_cell_length_b                    10.852163
_cell_length_c                    13.885628
_cell_angle_alpha                 90.773145
_cell_angle_beta                  86.279698
_cell_angle_gamma                 90.854161
_cell_volume                      1441.64826619

loop_
_atom_site_label
_atom_site_type_symbol
_atom_site_description
_atom_site_fract_x
_atom_site_fract_y
_atom_site_fract_z
_atom_type_partial_charge
O1    O     O_R   0.381190 0.680360 0.500000 -0.582130
O2    O     O_R   0.618770 0.680320 0.499990 -0.590317
C1    C     C_R   0.500788 0.737446 0.500946 0.793219
O3    O     O_R   0.364410 0.500000 0.637850 -0.582299
O4    O     O_R   0.602000 0.499960 0.637840 -0.566165
C2    C     C_R   0.478789 0.498317 0.682649 0.836857
Cu1   Cu    Cu3+1 0.359330 0.500020 0.500000 0.951637
Cu2   Cu    Cu3+1 0.640670 0.499980 0.500000 0.949107
O5    O     O_R   0.381230 0.319680 0.500010 -0.573152
O6    O     O_R   0.618810 0.319640 0.500000 -0.591256
O7    O     O_R   0.398000 0.500040 0.362160 -0.567408
O8    O     O_R   0.635590 0.500000 0.362150 -0.577471
C3    C     C_R   0.499404 0.262314 0.500219 0.798277
C4    C     C_R   0.520792 0.502063 0.317475 0.812684
C5    C     C_1   0.527328 0.513160 0.215400 -0.120985
C6    C     C_2   0.516668 0.536652 0.027769 -0.325838
C7    C     C_2   0.451771 0.453237 0.973078 0.353563
C8    C     C_1   0.460039 0.471590 0.870577 -0.060284
C9    C     C_1   0.524835 0.524183 0.129758 0.102411
C10   C     C_1   0.468398 0.485731 0.784833 -0.145086
H1    H     H_    0.568336 0.616641 0.994754 0.128069
C11   C     C_R   0.379012 0.934254 0.531025 0.130753
C12   C     C_R   0.502399 0.870599 0.508031 -0.091266
C13   C     C_R   0.628251 0.937556 0.494180 -0.229730
H2    H     H_    0.726275 0.891722 0.477202 0.156883
C14   C     C_R   0.627316 0.065741 0.494698 -0.222272
H3    H     H_    0.725565 0.114521 0.481035 0.153738
C15   C     C_R   0.500079 0.128853 0.506090 -0.092966
C16   C     C_R   0.377547 0.061393 0.529058 0.142524
C17   C     C_3   0.240885 0.061169 0.483247 -0.490457
C18   C     C_3   0.241208 0.921843 0.487540 -0.454416
H4    H     H_    0.156344 0.103082 0.530939 0.200283
H5    H     H_    0.251495 0.094957 0.407872 0.205552
H6    H     H_    0.158884 0.883403 0.539201 0.196187
H7    H     H_    0.248668 0.876467 0.415113 0.206719
C19   C     C_R   0.933158 0.463220 0.419639 0.196292
N1    N     N_R   0.852140 0.499070 0.499400 -0.209188
C20   C     C_R   0.922363 0.550480 0.575026 0.046729
C21   C     C_R   0.070187 0.549907 0.574208 -0.105972
H8    H     H_    0.122311 0.589436 0.634441 0.154363
N2    N     N_R   0.148050 0.499110 0.499400 -0.185745
C22   C     C_R   0.080424 0.463079 0.419984 0.219417
C23   C     C_3   0.090546 0.340195 0.371767 -0.515836
C24   C     C_3   0.931746 0.339138 0.371303 -0.241315
H9    H     H_    0.147789 0.344442 0.299630 0.229231
H10   H     H_    0.129383 0.270876 0.420446 0.200988
H11   H     H_    0.882838 0.267587 0.419566 0.157708
N3    N     N_R   0.378845 0.345478 0.011775 0.135312
O9    O     O_R   0.348254 0.254919 0.954107 -0.362351
O10   O     O_R   0.329652 0.341871 0.101290 -0.380233
C25   C     C_R   0.877423 0.338672 0.271124 0.190969
C26   C     C_R   0.780673 0.247070 0.245967 -0.151088
C27   C     C_R   0.733086 0.241630 0.152889 -0.115091
C28   C     C_R   0.781739 0.327298 0.083959 -0.093867
C29   C     C_R   0.876373 0.419837 0.108402 -0.128435
C30   C     C_R   0.923857 0.426010 0.201463 -0.102649
H12   H     H_    0.742681 0.179192 0.298132 0.119671
H13   H     H_    0.658740 0.170685 0.134099 0.155519
H14   H     H_    0.745025 0.322755 0.011887 0.136700
H15   H     H_    0.913128 0.486775 0.055172 0.132821
H16   H     H_    0.997738 0.498083 0.218771 0.124255
C31   C     C_R   0.851282 0.608175 0.660638 0.163120
C32   C     C_R   0.810279 0.731385 0.658174 -0.120516
C33   C     C_R   0.754851 0.790241 0.741946 -0.149469
C34   C     C_R   0.745263 0.727676 0.829496 -0.119110
C35   C     C_R   0.791555 0.606364 0.833320 -0.148772
C36   C     C_R   0.844785 0.546741 0.749292 -0.136747
H17   H     H_    0.825159 0.782474 0.592108 0.120193
H18   H     H_    0.722119 0.885099 0.739353 0.143934
H19   H     H_    0.704133 0.773912 0.894551 0.130969
H20   H     H_    0.786939 0.558575 0.901340 0.125039
H21   H     H_    0.881809 0.453240 0.753239 0.128191

loop_
_geom_bond_atom_site_label_1
_geom_bond_atom_site_label_2
_geom_bond_distance
_ccdc_geom_bond_type
C7    C8    1.436744 S    
O4    Cu2   1.925818 S    
C5    C9    1.198615 T    
C23   C24   1.523046 S    
C24   H11   1.111028 S    
C3    C15   1.451868 S    
N1    C20   1.390036 A    
C11   C16   1.380665 A    
Cu2   N1    2.027447 S    
C16   C17   1.493315 S    
C2    C10   1.424187 S    
N2    C22   1.364935 A    
C32   H17   1.078756 S    
C19   C22   1.412485 A    
C35   H20   1.081725 S    
C7    N3    1.445376 S    
C27   H13   1.082320 S    
C17   C18   1.514021 S    
Cu2   O8    1.917914 S    
C29   H15   1.082255 S    
C33   C34   1.397588 A    
C29   C30   1.398118 A    
N3    O10   1.301420 A    
C35   C36   1.397415 A    
C18   H6    1.112000 S    
Cu1   Cu2   2.697792 S    
C30   H16   1.082553 S    
O1    Cu1   1.965163 S    
C27   C28   1.396847 A    
C26   C27   1.398495 A    
C6    H1    1.085158 S    
C17   H4    1.111674 S    
C23   H9    1.111714 S    
C15   C16   1.396506 A    
C14   H3    1.080947 S    
C31   C32   1.400795 A    
C31   C36   1.405251 A    
O3    Cu1   1.917914 S    
C24   C25   1.516621 S    
O3    C2    1.296026 A    
N3    O9    1.301434 A    
C23   H10   1.102817 S    
O8    C4    1.298777 A    
Cu1   O7    1.925820 S    
C8    C10   1.199877 T    
C28   H14   1.082489 S    
C11   C12   1.395852 A    
C6    C9    1.431738 S    
O4    C2    1.299086 A    
O7    C4    1.294867 A    
C18   H7    1.112370 S    
C19   C24   1.496708 S    
C6    C7    1.345144 D    
C22   C23   1.485730 S    
C12   C13   1.403157 A    
C26   H12   1.082673 S    
C36   H21   1.083238 S    
C20   C21   1.416903 A    
C13   H2    1.080994 S    
C21   N2    1.355182 A    
Cu2   O6    1.965163 S    
C34   C35   1.398347 A    
C11   C18   1.491613 S    
C21   H8    1.082381 S    
Cu1   O5    1.971427 S    
C1    C12   1.446947 S    
O5    C3    1.301221 A    
C28   C29   1.396700 A    
C19   N1    1.366473 A    
O2    C1    1.297366 A    
C17   H5    1.111595 S    
C20   C31   1.468761 S    
C34   H19   1.082016 S    
C4    C5    1.421353 S    
C14   C15   1.407003 A    
C33   H18   1.082406 S    
O2    Cu2   1.971427 S    
C25   C26   1.405744 A    
Cu1   N2    2.026412 S    
C13   C14   1.391164 A    
C32   C33   1.397631 A    
O1    C1    1.296047 A    
O6    C3    1.294755 A    
C25   C30   1.410144 A    
