data_mof_unit_67021.cif
_audit_creation_date              2012-12-11T17:41:12-0500
_audit_creation_method            fapswitch 2.2
_symmetry_space_group_name_H-M    P1
_symmetry_Int_Tables_number       1
_space_group_crystal_system       triclinic
_cell_length_a                    8.200286
_cell_length_b                    12.660397
_cell_length_c                    14.186586
_cell_angle_alpha                 92.906855
_cell_angle_beta                  90.812363
_cell_angle_gamma                 98.377602
_cell_volume                      1454.8977449

loop_
_atom_site_label
_atom_site_type_symbol
_atom_type_description
_atom_site_fract_x
_atom_site_fract_y
_atom_site_fract_z
_atom_type_partial_charge
Ba1   Ba    Ba6+2 0.855630 0.555280 0.454520 1.665142
Ba2   Ba    Ba6+2 0.334200 0.444810 0.545490 1.658380
Br1   Br    Br    0.218770 0.889505 0.649437 -0.605443
C1    C     C_3   0.601586 0.947107 0.177481 -0.410651
C2    C     C_R   0.182949 0.497864 0.195731 0.039613
C3    C     C_R   0.337710 0.550284 0.225949 -0.297071
C4    C     C_3   0.143824 0.802445 0.194196 0.351797
C5    C     C_R   0.450362 0.596644 0.162120 0.019314
C6    C     C_R   0.405566 0.598537 0.067008 -0.146976
C7    C     C_R   0.248937 0.549253 0.034133 -0.000823
C8    C     C_R   0.137684 0.494906 0.097605 -0.024561
C9    C     C_R   0.054394 0.497151 0.900552 -0.026749
C10   C     C_R   0.943497 0.442228 0.963995 -0.001036
C11   C     C_R   0.009709 0.494599 0.802136 0.045650
C12   C     C_3   0.647540 0.856462 0.234006 0.350060
C13   C     C_R   0.857178 0.438711 0.771461 -0.285197
C14   C     C_R   0.743840 0.392962 0.835589 0.007628
C15   C     C_R   0.787596 0.392361 0.930887 -0.152306
C16   C     C_3   0.128490 0.838706 0.094230 -0.358115
C17   C     C_R   0.205063 0.552107 0.938006 -0.036007
C18   C     C_R   0.763347 0.176941 0.537093 -0.278455
C19   C     C_R   0.427562 0.813288 0.462873 -0.229868
C20   C     C_R   0.405954 0.994765 0.427461 -0.083951
C21   C     C_R   0.340502 0.887319 0.423144 0.037424
C22   C     C_R   0.575071 0.846547 0.513593 0.049051
C23   C     C_3   0.475124 0.309558 0.257514 0.304127
C24   C     C_R   0.640268 0.957172 0.522675 -0.053460
C25   C     C_R   0.554856 0.031601 0.477405 -0.040636
C26   C     C_R   0.618783 0.141429 0.485032 0.045973
C27   C     C_R   0.852496 0.104904 0.577488 -0.018227
C28   C     C_3   0.288800 0.771410 0.711193 0.556047
C29   C     C_R   0.788845 0.996015 0.573633 -0.094482
C30   C     C_3   0.390845 0.816871 0.798088 -0.340898
C31   C     C_3   0.968525 0.236893 0.344144 0.281996
C32   C     C_3   0.954324 0.117227 0.322383 -0.356343
C33   C     C_3   0.719577 0.669691 0.736909 0.311205
C34   C     C_3   0.455320 0.286896 0.151286 -0.391722
C35   C     C_3   0.777518 0.696941 0.839200 -0.401699
C36   C     C_3   0.053080 0.195779 0.805692 0.385819
C37   C     C_3   0.067801 0.158201 0.905304 -0.352702
C38   C     C_3   0.552047 0.139576 0.781710 0.336363
C39   C     C_3   0.627056 0.083085 0.859969 -0.426605
C40   C     C_R   0.986476 0.440201 0.060479 -0.037990
H1    H     H_    0.740019 0.889655 0.289752 0.071959
H2    H     H_    0.815704 0.633219 0.698619 0.041823
H3    H     H_    0.604506 0.611652 0.736067 0.048020
H4    H     H_    0.552911 0.006871 0.225162 0.099800
H5    H     H_    0.901976 0.745019 0.841785 0.159723
H6    H     H_    0.781308 0.623003 0.877099 0.060674
H7    H     H_    0.693162 0.744172 0.877201 0.114884
H8    H     H_    0.534482 0.819727 0.269065 -0.069548
H9    H     H_    0.505578 0.915073 0.123394 0.112330
H10   H     H_    0.357902 0.331324 0.285048 0.016880
H11   H     H_    0.575934 0.377581 0.271156 0.058991
H12   H     H_    0.430785 0.750923 0.836344 0.063622
H13   H     H_    0.350468 0.222106 0.135240 0.127894
H14   H     H_    0.431078 0.359790 0.116566 0.064624
H15   H     H_    0.569832 0.261896 0.122445 0.117266
H16   H     H_    0.711206 0.986574 0.141091 0.129167
H17   H     H_    0.167773 0.778619 0.042970 0.064282
H18   H     H_    0.135817 0.272922 0.801161 0.087188
H19   H     H_    0.923819 0.208444 0.792743 -0.093270
H20   H     H_    0.197415 0.149208 0.922193 0.153338
H21   H     H_    0.027716 0.217483 0.957015 0.060873
H22   H     H_    0.989121 0.079887 0.911787 0.114926
H23   H     H_    0.499971 0.872364 0.777368 0.109574
H24   H     H_    0.651783 0.175099 0.735569 -0.053432
H25   H     H_    0.470066 0.079165 0.736793 0.108915
H26   H     H_    0.702407 0.142713 0.908869 0.110490
H27   H     H_    0.706645 0.027012 0.829118 0.094922
H28   H     H_    0.061137 0.725417 0.199423 0.092024
H29   H     H_    0.527963 0.037646 0.900551 0.126484
H30   H     H_    0.373880 0.550913 0.299654 0.070189
H31   H     H_    0.493524 0.637277 0.018709 0.069340
H32   H     H_    0.698717 0.354907 0.979268 0.065893
H33   H     H_    0.821445 0.437491 0.697669 0.065909
H34   H     H_    0.316240 0.861332 0.846465 0.126961
H35   H     H_    0.900090 0.395616 0.105826 0.097351
H36   H     H_    0.291475 0.596479 0.893006 0.085794
H37   H     H_    0.335703 0.048460 0.393661 0.089586
H38   H     H_    0.858604 0.943411 0.609101 0.150820
H39   H     H_    0.812325 0.261219 0.541217 0.058808
H40   H     H_    0.273234 0.790058 0.206971 -0.073104
H41   H     H_    0.375480 0.729562 0.458657 0.071472
H42   H     H_    0.998623 0.847673 0.077771 0.153673
H43   H     H_    0.207655 0.916692 0.086841 0.107951
H44   H     H_    0.360801 0.727590 0.661320 -0.010624
H45   H     H_    0.847814 0.257447 0.365172 0.000992
H46   H     H_    0.059470 0.258674 0.402973 0.079400
H47   H     H_    0.864684 0.093226 0.263392 0.114178
H48   H     H_    0.911723 0.073083 0.384894 0.079894
H49   H     H_    0.076258 0.096064 0.302054 0.141848
O1    O     O_2   0.887370 0.460630 0.272300 -0.466962
O2    O     O_2   0.192514 0.111719 0.565861 -0.429803
O3    O     O_3   0.098901 0.118497 0.740669 -0.555568
O4    O     O_3   0.129410 0.451380 0.388510 -0.494882
O5    O     O_3   0.575400 0.626570 0.547370 -0.500379
O6    O     O_2   0.344320 0.238700 0.455090 -0.468672
O7    O     O_3   0.513151 0.217672 0.298980 -0.653046
O8    O     O_2   0.410325 0.412317 0.835474 -0.495407
O9    O     O_3   0.455866 0.212739 0.822413 -0.585680
O10   O     O_3   0.670210 0.653170 0.329170 -0.483954
O11   O     O_2   0.789145 0.590898 0.164551 -0.493457
O12   O     O_3   0.690220 0.763602 0.695911 -0.641327
O13   O     O_3   0.016920 0.288925 0.262405 -0.640536
O14   O     O_3   0.717074 0.784802 0.172979 -0.593855
O15   O     O_2   0.845380 0.761330 0.544970 -0.418590
O16   O     O_3   0.088930 0.704860 0.376040 -0.482853
O17   O     O_2   0.001626 0.889423 0.433382 -0.458723
O18   O     O_3   0.098379 0.880544 0.258575 -0.612408
O19   O     O_2   0.302330 0.539400 0.727760 -0.496084
O20   O     O_3   0.060300 0.548700 0.611500 -0.468793
O21   O     O_3   0.519500 0.346920 0.670840 -0.462664
O22   O     O_3   0.145897 0.710027 0.741062 -0.635633
O23   O     O_3   0.614310 0.373510 0.452640 -0.481971
O24   O     O_3   0.100780 0.295230 0.623970 -0.500910
P1    P     P_3+3 0.054400 0.427280 0.286870 0.968971
P2    P     P_3+3 0.668300 0.742890 0.573060 0.989072
P3    P     P_3+3 0.132722 0.842773 0.373446 0.988216
P4    P     P_3+3 0.135310 0.572810 0.713130 0.979873
P5    P     P_3+3 0.060127 0.156127 0.626320 1.012546
P6    P     P_3+3 0.656970 0.653953 0.206265 0.955449
P7    P     P_3+3 0.526295 0.241501 0.421669 0.932157
P8    P     P_3+3 0.533393 0.342668 0.793032 0.961495

loop_
_geom_bond_atom_site_label_1
_geom_bond_atom_site_label_2
_ccdc_geom_bond_type
C30   H12   S    
C4    H40   S    
C15   H32   S    
C38   C39   S    
C16   H43   S    
O13   P1    S    
C22   P2    S    
C38   H24   S    
C35   H6    S    
C40   H35   S    
C29   H38   S    
Ba2   O20   S    
C37   H20   S    
C10   C15   A    
C1    H9    S    
C12   O14   S    
C25   C26   A    
C12   H1    S    
C2    C8    A    
Ba1   O20   S    
C4    H28   S    
C2    C3    A    
C31   C32   S    
Ba2   O21   S    
C39   H27   S    
Ba1   Ba2   S    
O5    P2    S    
C30   H34   S    
C34   H13   S    
Ba2   O24   S    
Ba2   O5    S    
C7    C17   A    
C5    C6    A    
C19   C22   A    
C20   C21   A    
C28   C30   S    
C33   H3    S    
C12   H8    S    
C20   H37   S    
C6    C7    A    
O15   P2    D    
C35   H5    S    
C34   H15   S    
C23   O7    S    
C32   H49   S    
O3    P5    S    
O16   P3    S    
C9    C17   A    
O1    P1    D    
C23   H11   S    
C30   H23   S    
C38   H25   S    
O12   P2    S    
O6    P7    D    
C36   H18   S    
C8    C40   A    
O9    P8    S    
O23   P7    S    
O24   P5    S    
O4    P1    S    
C28   H44   S    
Ba1   O5    S    
C36   C37   S    
O20   P4    S    
Ba2   P4    S    
C13   C14   A    
Ba1   P1    S    
C18   C26   A    
C39   H26   S    
C2    P1    S    
O19   P4    D    
O8    P8    D    
C19   H41   S    
O2    P5    D    
Ba2   O23   S    
C14   P8    S    
C27   P5    S    
O14   P6    S    
C39   H29   S    
C14   C15   A    
C33   H2    S    
C31   H45   S    
C20   C25   A    
C18   H39   S    
Br1   C28   S    
C36   O3    S    
Ba1   O15   S    
C9    C11   A    
C11   P4    S    
C37   H22   S    
C11   C13   A    
C6    H31   S    
C23   H10   S    
C10   C40   A    
O17   P3    D    
C3    H30   S    
O7    P7    S    
C36   H19   S    
C21   P3    S    
C28   O22   S    
C17   H36   S    
C24   C29   A    
C13   H33   S    
C31   O13   S    
Ba2   O19   S    
C16   H42   S    
O18   P3    S    
C3    C5    A    
C23   C34   S    
C35   H7    S    
C16   H17   S    
C22   C24   A    
C18   C27   A    
C4    C16   S    
C37   H21   S    
C4    O18   S    
C33   O12   S    
C1    C12   S    
Ba2   O4    S    
C31   H46   S    
C27   C29   A    
C5    P6    S    
O21   P8    S    
Ba1   O4    S    
C26   P7    S    
C1    H16   S    
C33   C35   S    
C38   O9    S    
C19   C21   A    
Ba1   P2    S    
O22   P4    S    
C7    C8    A    
Ba1   O16   S    
C32   H47   S    
C9    C10   A    
Ba2   O6    S    
Ba1   O1    S    
C24   C25   A    
Ba1   O23   S    
O10   P6    S    
O11   P6    D    
Ba1   O10   S    
C34   H14   S    
C1    H4    S    
C32   H48   S    
