data_mof_unit_14804.cif
_audit_creation_date              2012-12-10T17:53:24-0500
_audit_creation_method            fapswitch 2.2
_symmetry_space_group_name_H-M    P1
_symmetry_Int_Tables_number       1
_space_group_crystal_system       triclinic
_cell_length_a                    23.430433
_cell_length_b                    10.620789
_cell_length_c                    9.880473
_cell_angle_alpha                 89.141011
_cell_angle_beta                  90.213949
_cell_angle_gamma                 91.753546
_cell_volume                      2457.31177451

loop_
_atom_site_label
_atom_site_type_symbol
_atom_type_description
_atom_site_fract_x
_atom_site_fract_y
_atom_site_fract_z
_atom_type_partial_charge
C1    C     C_R   0.509439 0.262418 0.502031 0.878930
C2    C     C_R   0.120945 0.589922 0.475139 0.516020
C3    C     C_R   0.237783 0.486142 0.622502 0.048343
C4    C     C_R   0.389336 0.498651 0.499845 0.865427
C5    C     C_R   0.297177 0.492306 0.622487 -0.260652
C6    C     C_R   0.327073 0.493126 0.499555 -0.052334
C7    C     C_R   0.297092 0.486614 0.376540 -0.216259
C8    C     C_R   0.237891 0.480340 0.376395 -0.108130
C9    C     C_R   0.208250 0.480406 0.498753 0.281507
C10   C     C_R   0.761700 0.485887 0.379147 -0.104671
C11   C     C_R   0.702612 0.490013 0.378448 -0.202771
C12   C     C_R   0.964995 0.255017 0.537927 -0.192779
C13   C     C_R   0.672860 0.497272 0.500909 -0.059217
C14   C     C_R   0.702904 0.500546 0.624111 -0.222265
C15   C     C_R   0.762206 0.496509 0.624966 0.040109
C16   C     C_R   0.496704 0.740674 0.499309 0.896895
C17   C     C_R   0.791467 0.488988 0.501791 0.274215
C18   C     C_R   0.524590 0.108431 0.764108 0.033069
C19   C     C_R   0.498041 0.050142 0.876228 -0.169155
C20   C     C_R   0.462462 0.944377 0.859044 -0.176509
C21   C     C_R   0.458417 0.888492 0.732591 -0.144826
C22   C     C_R   0.488739 0.941128 0.620625 0.087917
C23   C     C_R   0.024474 0.250931 0.537629 -0.020066
C24   C     C_R   0.513256 0.061869 0.631823 0.042801
C25   C     C_R   0.523398 0.130277 0.509242 -0.182921
C26   C     C_R   0.532744 0.065912 0.388472 -0.006708
C27   C     C_R   0.521109 0.938195 0.385410 -0.245194
C28   C     C_R   0.610664 0.500005 0.500227 0.886888
C29   C     C_R   0.497782 0.876016 0.499224 -0.135471
C30   C     C_R   0.424939 0.334677 0.142048 -0.157972
C31   C     C_R   0.388179 0.253047 0.072457 -0.205580
C32   C     C_R   0.388341 0.252897 0.932426 -0.183010
C33   C     C_R   0.425315 0.334269 0.861235 -0.157043
C34   C     C_R   0.057834 0.363586 0.516480 -0.058299
C35   C     C_R   0.463174 0.418238 0.928435 0.134428
C36   C     C_R   0.463101 0.418377 0.073214 0.174436
C37   C     C_R   0.535181 0.578251 0.071214 -0.154210
C38   C     C_R   0.535239 0.578545 0.927865 0.015927
C39   C     C_R   0.882567 0.596250 0.478466 0.514738
C40   C     C_R   0.877909 0.373716 0.518914 0.524427
C41   C     C_R   0.937466 0.368939 0.517873 -0.027032
C42   C     C_R   0.969806 0.481168 0.496511 -0.017531
C43   C     C_R   0.942125 0.596154 0.476236 -0.014426
C44   C     C_1   0.792590 0.500851 0.752172 0.202984
C45   C     C_R   0.029821 0.478801 0.495686 -0.026861
C46   C     C_1   0.556722 0.127508 0.269100 0.203524
C47   C     C_1   0.569134 0.202402 0.789735 0.219752
C48   C     C_1   0.048937 0.129039 0.560297 0.285102
C49   C     C_1   0.573502 0.664676 0.856946 0.243231
C50   C     C_1   0.207594 0.487212 0.749476 0.190565
C51   C     C_R   0.061595 0.592406 0.474328 -0.010784
C52   C     C_R   0.033566 0.705994 0.453454 -0.144916
C53   C     C_R   0.974352 0.707904 0.454577 -0.151284
C54   C     C_R   0.118065 0.367120 0.515572 0.511361
H1    H     H_    0.680334 0.487172 0.282240 0.173378
H2    H     H_    0.319264 0.486447 0.280545 0.169294
H3    H     H_    0.940138 0.168309 0.554405 0.195648
H4    H     H_    0.530737 0.887360 0.294223 0.168683
H5    H     H_    0.563706 0.641857 0.125652 0.148851
H6    H     H_    0.421934 0.329424 0.249337 0.207932
H7    H     H_    0.359799 0.189031 0.878431 0.166477
H8    H     H_    0.319897 0.496806 0.718199 0.167521
H9    H     H_    0.214855 0.476238 0.281250 0.150582
H10   H     H_    0.784551 0.480362 0.284441 0.152205
H11   H     H_    0.680378 0.506343 0.719365 0.176235
H12   H     H_    0.504810 0.086526 0.976944 0.161671
H13   H     H_    0.440397 0.901812 0.945086 0.150987
H14   H     H_    0.431673 0.804159 0.723437 0.157375
H15   H     H_    0.359356 0.189585 0.127712 0.164060
H16   H     H_    0.423110 0.327991 0.754025 0.210477
H17   H     H_    0.057294 0.793868 0.436398 0.202696
H18   H     H_    0.953982 0.797141 0.438617 0.194837
N1    N     N_R   0.852117 0.486195 0.499866 -0.361054
N2    N     N_1   0.183345 0.488038 0.851262 -0.184075
N3    N     N_R   0.147490 0.478891 0.496054 -0.358590
N4    N     N_R   0.499460 0.498800 0.142780 -0.121980
N5    N     N_R   0.499440 0.498720 0.857170 -0.143724
N6    N     N_1   0.816999 0.504317 0.854150 -0.178927
N7    N     N_1   0.576123 0.177118 0.174071 -0.203557
N8    N     N_1   0.604877 0.277221 0.810854 -0.186897
N9    N     N_1   0.068293 0.031248 0.578610 -0.159081
N10   N     N_1   0.604348 0.734332 0.800399 -0.192528
O1    O     O_R   0.500000 0.316780 0.614690 -0.643984
O2    O     O_R   0.583850 0.500050 0.614640 -0.610582
O3    O     O_R   0.583840 0.500030 0.385310 -0.619424
O4    O     O_2   0.855110 0.705114 0.459914 -0.539954
O5    O     O_2   0.845870 0.267288 0.538791 -0.538746
O6    O     O_2   0.147466 0.260990 0.534042 -0.542176
O7    O     O_2   0.152214 0.697608 0.456045 -0.542235
O8    O     O_R   0.500000 0.316750 0.385360 -0.628250
O9    O     O_R   0.416160 0.499970 0.614690 -0.646631
O10   O     O_R   0.416150 0.499950 0.385360 -0.638919
O11   O     O_R   0.500000 0.683250 0.614640 -0.616961
O12   O     O_R   0.500000 0.683220 0.385310 -0.617962
Zn1   Zn    Zn3+2 0.500000 0.500020 0.653130 0.947048
Zn2   Zn    Zn3+2 0.500000 0.499980 0.346870 0.946562

loop_
_geom_bond_atom_site_label_1
_geom_bond_atom_site_label_2
_ccdc_geom_bond_type
C1    C25   S    
C1    O8    A    
C22   C29   A    
C28   O2    A    
C41   C42   A    
C20   H13   S    
C35   C36   A    
C18   C47   S    
C7    C8    A    
C38   C49   S    
C40   N1    A    
C12   C23   A    
C16   O11   A    
C12   C41   A    
C18   C24   A    
C47   N8    T    
C40   O5    S    
C15   C44   S    
C50   N2    T    
C5    C6    A    
O3    Zn2   S    
C27   C29   A    
C45   C51   A    
C10   C17   A    
O10   Zn2   S    
C48   N9    T    
C19   H12   S    
C18   C19   A    
C36   N4    A    
C43   C53   A    
C46   N7    T    
C19   C20   A    
C8    C9    A    
C30   H6    S    
C13   C28   S    
C4    O9    A    
O11   Zn1   S    
C21   C22   A    
C17   N1    S    
C7    H2    S    
C3    C50   S    
C51   C52   A    
C24   C25   A    
C4    C6    S    
C2    C51   A    
C39   C43   A    
C25   C26   A    
C35   N5    A    
C42   C45   A    
C49   N10   T    
C2    O7    S    
C37   C38   A    
C3    C9    A    
C31   C32   A    
C23   C34   A    
O1    Zn1   S    
C26   C27   A    
C34   C45   A    
O12   Zn2   S    
C37   H5    S    
C33   H16   S    
C12   H3    S    
C40   C41   A    
C37   N4    A    
C34   C54   A    
C21   H14   S    
C22   C24   A    
C42   C43   A    
C11   H1    S    
C52   C53   A    
C15   C17   A    
C23   C48   S    
C10   H10   S    
C3    C5    A    
C27   H4    S    
C32   H7    S    
O8    Zn2   S    
C6    C7    A    
C38   N5    A    
C1    O1    A    
C16   O12   A    
C30   C36   A    
C32   C33   A    
C44   N6    T    
C16   C29   S    
C52   H17   S    
N4    Zn2   S    
C54   O6    S    
C11   C13   A    
C30   C31   A    
C33   C35   A    
C14   H11   S    
N5    Zn1   S    
C5    H8    S    
C39   N1    A    
C10   C11   A    
C26   C46   S    
C8    H9    S    
O9    Zn1   S    
C54   N3    A    
C31   H15   S    
C20   C21   A    
C28   O3    A    
C14   C15   A    
C9    N3    S    
C39   O4    S    
C13   C14   A    
C53   H18   S    
O2    Zn1   S    
C2    N3    A    
C4    O10   A    
