data_mof_unit_8558.cif
_audit_creation_date              2012-12-10T18:58:46-0500
_audit_creation_method            fapswitch 2.2
_symmetry_space_group_name_H-M    P1
_symmetry_Int_Tables_number       1
_space_group_crystal_system       triclinic
_cell_length_a                    13.022247
_cell_length_b                    10.839603
_cell_length_c                    9.543043
_cell_angle_alpha                 90.533834
_cell_angle_beta                  95.871792
_cell_angle_gamma                 90.290984
_cell_volume                      1339.90726082

loop_
_atom_site_label
_atom_site_type_symbol
_atom_type_description
_atom_site_fract_x
_atom_site_fract_y
_atom_site_fract_z
_atom_type_partial_charge
C1    C     C_R   0.497466 0.262405 0.498989 0.801364
C2    C     C_R   0.027996 0.502875 0.566207 0.095583
C3    C     C_R   0.972942 0.483984 0.432205 0.068456
C4    C     C_R   0.865507 0.478888 0.419776 0.512263
C5    C     C_R   0.867931 0.512727 0.672523 -0.277414
C6    C     C_R   0.975138 0.515999 0.685773 -0.211372
C7    C     C_R   0.477095 0.065403 0.619973 0.121550
C8    C     C_R   0.486161 0.129510 0.495866 -0.096830
C9    C     C_R   0.480618 0.063213 0.368030 -0.209595
C10   C     C_R   0.481348 0.934522 0.368968 -0.213478
C11   C     C_R   0.487729 0.871125 0.497741 -0.095588
C12   C     C_R   0.300675 0.499210 0.473964 0.800195
C13   C     C_R   0.477917 0.938373 0.621145 0.130776
C14   C     C_3   0.541077 0.936336 0.760847 -0.489070
C15   C     C_3   0.539500 0.076108 0.759542 -0.441769
C16   C     C_R   0.587120 0.531118 0.086296 0.353998
C17   C     C_R   0.417602 0.456597 0.062414 -0.102074
C18   C     C_R   0.417547 0.456698 0.913665 -0.088259
C19   C     C_R   0.587479 0.530084 0.938935 0.260601
C20   C     C_3   0.644852 0.649396 0.942575 -0.535201
C21   C     C_3   0.643554 0.651126 0.101286 -0.479440
C22   C     C_R   0.498214 0.737851 0.500063 0.796956
C23   C     C_R   0.699508 0.498217 0.525775 0.847214
C24   C     C_R   0.812394 0.496040 0.539689 -0.166267
C25   C     C_R   0.188246 0.495616 0.458908 -0.040922
C26   C     C_R   0.026365 0.471230 0.312687 -0.157541
C27   C     C_R   0.133442 0.477448 0.325968 -0.225779
C28   C     C_R   0.135220 0.508232 0.578670 -0.230866
Cu1   Cu    Cu3+1 0.499990 0.499980 0.640670 0.941831
Cu2   Cu    Cu3+1 0.500010 0.500020 0.359330 0.967407
H1    H     H_    0.619517 0.898070 0.754103 0.199730
H2    H     H_    0.494639 0.116842 0.841407 0.198602
H3    H     H_    0.616805 0.118384 0.752616 0.205092
H4    H     H_    0.350333 0.422838 0.107962 0.140601
H5    H     H_    0.350188 0.422963 0.848817 0.143092
H6    H     H_    0.723566 0.639424 0.909144 0.199481
H7    H     H_    0.598062 0.723133 0.889520 0.214770
H8    H     H_    0.721628 0.642253 0.158944 0.244754
H9    H     H_    0.595961 0.726760 0.139585 0.197156
H10   H     H_    0.828640 0.524123 0.766251 0.180082
H11   H     H_    0.985761 0.456903 0.208899 0.187527
H12   H     H_    0.016613 0.529769 0.789167 0.149013
H13   H     H_    0.173231 0.467057 0.232331 0.150263
H14   H     H_    0.177161 0.522569 0.681742 0.145444
H15   H     H_    0.481286 0.110052 0.268361 0.168426
H16   H     H_    0.482174 0.885554 0.269662 0.161989
H17   H     H_    0.497286 0.897249 0.844285 0.196989
N1    N     N_R   0.500660 0.500930 0.148010 -0.198802
N2    N     N_R   0.500660 0.500890 0.852110 -0.189167
O1    O     O_R   0.500000 0.319640 0.618810 -0.580905
O2    O     O_R   0.500010 0.319680 0.381230 -0.580493
O3    O     O_R   0.348990 0.499960 0.599490 -0.595683
O4    O     O_R   0.349000 0.500000 0.361910 -0.595143
O5    O     O_R   0.499990 0.680320 0.618770 -0.577744
O6    O     O_R   0.500000 0.680360 0.381190 -0.591051
O7    O     O_R   0.651000 0.500000 0.638090 -0.596315
O8    O     O_R   0.651010 0.500040 0.400510 -0.518920
F1    F     F_    0.813506 0.456064 0.291117 -0.695513

loop_
_geom_bond_atom_site_label_1
_geom_bond_atom_site_label_2
_ccdc_geom_bond_type
C10   H16   S    
C2    C28   A    
C23   C24   S    
C9    H15   S    
C16   C21   S    
Cu1   O7    S    
C25   C27   A    
C1    C8    S    
C11   C13   A    
Cu2   O6    S    
C19   N2    A    
C11   C22   S    
C12   O4    A    
C21   H9    S    
C17   N1    A    
C12   C25   S    
Cu2   O2    S    
Cu1   O5    S    
C10   C11   A    
C16   N1    A    
C7    C15   S    
C17   C18   A    
C22   O6    A    
C7    C8    A    
C22   O5    A    
C2    C6    A    
C13   C14   S    
C25   C28   A    
C20   H7    S    
C1    O2    A    
C23   O7    A    
C26   C27   A    
C14   H17   S    
C5    C24   A    
C16   C19   A    
C18   H5    S    
Cu2   N1    S    
C12   O3    A    
C28   H14   S    
C1    O1    A    
C2    C3    A    
Cu1   O1    S    
C6    H12   S    
C5    C6    A    
C4    C24   A    
Cu2   O4    S    
C17   H4    S    
Cu1   Cu2   S    
C3    C4    A    
C20   H6    S    
Cu2   O8    S    
C27   H13   S    
C7    C13   A    
C20   C21   S    
C26   H11   S    
C9    C10   A    
C5    H10   S    
C4    F1    S    
C23   O8    A    
C14   H1    S    
C14   C15   S    
Cu1   N2    S    
C15   H3    S    
C3    C26   A    
C21   H8    S    
C19   C20   S    
C18   N2    A    
C8    C9    A    
Cu1   O3    S    
C15   H2    S    
