data_mof_unit_27811.cif
_audit_creation_date              2012-12-11T16:58:20-0500
_audit_creation_method            fapswitch 2.2
_symmetry_space_group_name_H-M    P1
_symmetry_Int_Tables_number       1
_space_group_crystal_system       triclinic
_cell_length_a                    16.923096
_cell_length_b                    7.267307
_cell_length_c                    16.786841
_cell_angle_alpha                 90.000037
_cell_angle_beta                  100.316117
_cell_angle_gamma                 89.999944
_cell_volume                      2031.1614219

loop_
_atom_site_label
_atom_site_type_symbol
_atom_type_description
_atom_site_fract_x
_atom_site_fract_y
_atom_site_fract_z
_atom_type_partial_charge
O1    O     O_R   0.413450 0.494370 0.415710 -0.536064
O2    O     O_R   0.586550 0.994370 0.584290 -0.536064
O3    O     O_R   0.578420 0.819350 0.429360 -0.536481
O4    O     O_R   0.421580 0.319350 0.570640 -0.536481
C1    C     C_R   0.603643 0.655902 0.412766 0.756315
C2    C     C_R   0.396357 0.155903 0.587234 0.756314
O5    O     O_R   0.413570 0.823780 0.406240 -0.543001
O6    O     O_R   0.586430 0.323780 0.593760 -0.543001
O7    O     O_R   0.420530 0.998740 0.561000 -0.524902
O8    O     O_R   0.579470 0.498740 0.439000 -0.524903
C3    C     C_R   0.386333 0.655379 0.383473 0.710743
C4    C     C_R   0.613667 0.155379 0.616527 0.710742
O9    O     O_3   0.502480 0.662320 0.550800 -0.370394
O10   O     O_3   0.497520 0.162320 0.449200 -0.370395
V1    V     V_3+5 0.499540 0.935370 0.490580 1.501554
V2    V     V_3+5 0.500460 0.435370 0.509420 1.501555
C5    C     C_R   0.694815 0.989853 0.736185 0.209586
C6    C     C_R   0.305185 0.489853 0.263815 0.209588
C7    C     C_R   0.680214 0.147183 0.687429 -0.116053
C8    C     C_R   0.319786 0.647183 0.312571 -0.116053
C9    C     C_R   0.730241 0.300499 0.710207 -0.179228
C10   C     C_R   0.269758 0.800499 0.289793 -0.179229
C11   C     C_R   0.796436 0.288807 0.774360 -0.147189
C12   C     C_R   0.203564 0.788808 0.225640 -0.147191
C13   C     C_R   0.814992 0.123023 0.817635 -0.103546
C14   C     C_R   0.185008 0.623023 0.182365 -0.103547
C15   C     C_R   0.760133 0.978169 0.799463 0.175454
C16   C     C_R   0.239867 0.478169 0.200537 0.175455
C17   C     C_3   0.773232 0.779886 0.783258 -0.452904
C18   C     C_3   0.226768 0.279886 0.216742 -0.452905
C19   C     C_3   0.701782 0.792683 0.714092 -0.417858
C20   C     C_3   0.298218 0.292684 0.285907 -0.417858
H1    H     H_    0.761728 0.690489 0.833697 0.228094
H2    H     H_    0.238272 0.190489 0.166303 0.228092
H3    H     H_    0.831132 0.754710 0.762537 0.159183
H4    H     H_    0.168868 0.254710 0.237463 0.159184
H5    H     H_    0.649215 0.710631 0.724754 0.226033
H6    H     H_    0.350785 0.210631 0.275246 0.226032
C21   C     C_R   0.336089 0.152345 0.641579 -0.134079
C22   C     C_R   0.663911 0.652344 0.358420 -0.134076
C23   C     C_R   0.172587 0.112554 0.869734 -0.177167
C24   C     C_R   0.827413 0.612556 0.130266 -0.177166
C25   C     C_R   0.299113 0.975862 0.846052 0.400507
C26   C     C_R   0.700883 0.475875 0.153943 0.400506
C27   C     C_R   0.240413 0.000913 0.895392 0.319258
C28   C     C_R   0.759585 0.500923 0.104605 0.319254
C29   C     C_R   0.165321 0.205081 0.795995 -0.264895
C30   C     C_R   0.834680 0.705076 0.204006 -0.264899
C31   C     C_R   0.223468 0.184526 0.746292 0.068783
C32   C     C_R   0.776533 0.684523 0.253709 0.068783
C33   C     C_R   0.292312 0.070327 0.770195 -0.088334
C34   C     C_R   0.707686 0.570332 0.229803 -0.088336
C35   C     C_R   0.350153 0.058790 0.716905 0.391928
C36   C     C_R   0.649845 0.558794 0.283094 0.391926
C37   C     C_R   0.267243 0.260397 0.620364 -0.227824
C38   C     C_R   0.732759 0.760390 0.379637 -0.227827
C39   C     C_R   0.211954 0.276785 0.671901 -0.109434
C40   C     C_R   0.788048 0.776776 0.328101 -0.109437
H7    H     H_    0.256724 0.335044 0.563548 0.119725
H8    H     H_    0.743279 0.835033 0.436455 0.119724
H9    H     H_    0.159621 0.363012 0.653360 0.114447
H10   H     H_    0.840382 0.862998 0.346644 0.114447
H11   H     H_    0.112453 0.288873 0.775890 0.129729
H12   H     H_    0.887550 0.788862 0.224113 0.129727
O11   O     O_R   0.920630 0.775410 0.061150 -0.531934
O12   O     O_R   0.079370 0.275410 0.938850 -0.531934
O13   O     O_R   0.086500 0.441450 0.093690 -0.546071
O14   O     O_R   0.913500 0.941450 0.906310 -0.546070
C41   C     C_R   0.114106 0.610193 0.116046 0.714156
C42   C     C_R   0.885894 0.110193 0.883953 0.714153
O15   O     O_R   0.921670 0.445960 0.070740 -0.524100
O16   O     O_R   0.078330 0.945960 0.929260 -0.524099
O17   O     O_R   0.913380 0.271130 0.915780 -0.525808
O18   O     O_R   0.086620 0.771130 0.084220 -0.525808
C43   C     C_R   0.894837 0.613204 0.084530 0.760842
C44   C     C_R   0.105163 0.113204 0.915470 0.760841
O19   O     O_3   0.997500 0.603030 0.949220 -0.382422
O20   O     O_3   0.002500 0.103030 0.050780 -0.382423
V3    V     V_3+5 0.000470 0.329940 0.009420 1.492066
V4    V     V_3+5 0.999530 0.829940 0.990580 1.492066
H13   H     H_    0.720962 0.426485 0.675639 0.137376
H14   H     H_    0.279038 0.926486 0.324361 0.137376
Cl1   Cl    Cl    0.252624 0.892699 0.991626 -0.542708
Cl2   Cl    Cl    0.747373 0.392717 0.008368 -0.542711
H15   H     H_    0.835318 0.407223 0.787413 0.134238
H16   H     H_    0.164682 0.907223 0.212587 0.134238
H17   H     H_    0.718387 0.774777 0.653383 0.148177
H18   H     H_    0.281613 0.274777 0.346617 0.148177
Cl3   Cl    Cl    0.444989 0.950070 0.743354 -0.532441
Cl4   Cl    Cl    0.555008 0.450079 0.256644 -0.532447
Cl5   Cl    Cl    0.374966 0.812439 0.881105 -0.383346
Cl6   Cl    Cl    0.625023 0.312470 0.118883 -0.383333

loop_
_geom_bond_atom_site_label_1
_geom_bond_atom_site_label_2
_ccdc_geom_bond_type
C40   H10   S    
C18   C20   S    
O14   V4    S    
C37   H7    S    
C15   C17   S    
O1    C3    A    
O16   C44   A    
O2    C4    A    
C2    O7    A    
O15   V3    S    
C29   C31   A    
C30   C32   A    
O5    C3    A    
O12   V3    S    
C24   C43   S    
C10   H14   S    
C7    C9    A    
C12   C14   A    
C36   Cl4   S    
C29   H11   S    
C30   H12   S    
C20   H18   S    
C17   H1    S    
C31   C39   A    
C24   C28   A    
C21   C37   A    
C26   C28   A    
C31   C33   A    
C32   C34   A    
C20   H6    S    
C26   Cl6   S    
C26   C34   A    
O5    V1    S    
O6    V2    S    
O11   V4    S    
O18   V4    S    
C17   C19   S    
C27   Cl1   S    
C34   C36   A    
C23   C29   A    
C3    C8    S    
C19   H17   S    
C18   H2    S    
C5    C15   A    
C6    C16   A    
O4    C2    A    
O20   V3    S    
C22   C38   A    
C25   Cl5   S    
C19   H5    S    
C33   C35   A    
C32   C40   A    
O4    V2    S    
O6    C4    A    
O12   C44   A    
C42   O17   A    
O17   V3    S    
O13   V3    S    
C41   O18   A    
O1    V2    S    
C24   C30   A    
O2    V1    S    
C25   C27   A    
C28   Cl2   S    
C9    H13   S    
C22   C36   A    
C9    C11   A    
C35   Cl3   S    
C5    C19   S    
C10   C12   A    
O9    V2    S    
C6    C20   S    
O3    V1    S    
O19   V4    S    
O10   V1    S    
C8    C10   A    
O3    C1    A    
C39   H9    S    
C13   C15   A    
C17   H3    S    
C14   C16   A    
O11   C43   A    
C18   H4    S    
C37   C39   A    
O7    V1    S    
C1    O8    A    
O16   V4    S    
O8    V2    S    
C23   C44   S    
O15   C43   A    
C25   C33   A    
C21   C35   A    
C4    C7    S    
C16   C18   S    
C5    C7    A    
C38   C40   A    
C6    C8    A    
C11   C13   A    
C38   H8    S    
O14   C42   A    
C11   H15   S    
C1    C22   S    
C14   C41   S    
C23   C27   A    
C2    C21   S    
C13   C42   S    
O13   C41   A    
C12   H16   S    
