data_mof_unit_39288.cif
_audit_creation_date              2012-12-11T16:53:41-0500
_audit_creation_method            fapswitch 2.2
_symmetry_space_group_name_H-M    P1
_symmetry_Int_Tables_number       1
_space_group_crystal_system       triclinic
_cell_length_a                    26.207097
_cell_length_b                    7.175531
_cell_length_c                    23.978145
_cell_angle_alpha                 90.0
_cell_angle_beta                  101.075845
_cell_angle_gamma                 89.999985
_cell_volume                      4425.09884907

loop_
_atom_site_label
_atom_site_type_symbol
_atom_type_description
_atom_site_fract_x
_atom_site_fract_y
_atom_site_fract_z
_atom_type_partial_charge
O1    O     O_R   0.297620 0.601080 0.203310 -0.534246
O2    O     O_R   0.702380 0.398920 0.796690 -0.534543
O3    O     O_R   0.202380 0.101080 0.296690 -0.534246
O4    O     O_R   0.797620 0.898920 0.703310 -0.534544
O5    O     O_R   0.192690 0.268060 0.187220 -0.528115
O6    O     O_R   0.807310 0.731940 0.812780 -0.523746
O7    O     O_R   0.307310 0.768060 0.312780 -0.528115
O8    O     O_R   0.692690 0.231940 0.687220 -0.523746
C1    C     C_R   0.174543 0.439823 0.172119 0.726087
C2    C     C_R   0.825562 0.560205 0.827742 0.701334
C3    C     C_R   0.325457 0.939823 0.327881 0.726092
C4    C     C_R   0.674437 0.060205 0.672258 0.701332
O9    O     O_R   0.296630 0.271160 0.196520 -0.533776
O10   O     O_R   0.703370 0.728840 0.803480 -0.535878
O11   O     O_R   0.203370 0.771160 0.303480 -0.533777
O12   O     O_R   0.796630 0.228840 0.696520 -0.535878
O13   O     O_R   0.307060 0.104040 0.306060 -0.533061
O14   O     O_R   0.692940 0.895960 0.693940 -0.529887
O15   O     O_R   0.192940 0.604040 0.193940 -0.533060
O16   O     O_R   0.807060 0.395960 0.806060 -0.529887
C5    C     C_R   0.311352 0.440301 0.183326 0.721171
C6    C     C_R   0.686970 0.560223 0.814578 0.727971
C7    C     C_R   0.188648 0.940301 0.316674 0.721174
C8    C     C_R   0.813030 0.060223 0.685422 0.727966
O17   O     O_3   0.253300 0.435560 0.285930 -0.370976
O18   O     O_3   0.746700 0.564440 0.714070 -0.372598
O19   O     O_3   0.246700 0.935560 0.214070 -0.370977
O20   O     O_3   0.753300 0.064440 0.785930 -0.372599
V1    V     V_3+5 0.249390 0.159480 0.243340 1.485052
V2    V     V_3+5 0.750610 0.840520 0.756660 1.501556
V3    V     V_3+5 0.250610 0.659480 0.256660 1.485053
V4    V     V_3+5 0.749390 0.340520 0.743340 1.501556
C9    C     C_R   0.899323 0.944729 0.665543 -0.018293
C10   C     C_R   0.155682 0.093047 0.399103 -0.026681
C11   C     C_R   0.600675 0.444741 0.834454 -0.018297
C12   C     C_R   0.344320 0.593054 0.100898 -0.026681
C13   C     C_R   0.934376 0.930948 0.627928 -0.164178
C14   C     C_R   0.117485 0.103872 0.433081 -0.174899
C15   C     C_R   0.565622 0.430960 0.872069 -0.164175
C16   C     C_R   0.382516 0.603878 0.066921 -0.174903
H1    H     H_    0.969684 0.850101 0.640168 0.147811
H2    H     H_    0.119985 0.212938 0.464765 0.144198
H3    H     H_    0.530312 0.350123 0.859827 0.147814
H4    H     H_    0.380018 0.712949 0.035239 0.144196
C17   C     C_R   0.924951 0.022412 0.575140 0.062067
C18   C     C_R   0.076589 0.974512 0.427387 0.062647
C19   C     C_R   0.575048 0.522411 0.924859 0.062066
C20   C     C_R   0.423410 0.474511 0.072612 0.062648
C21   C     C_R   0.879313 0.128056 0.559870 -0.120264
C22   C     C_R   0.074009 0.832837 0.386600 -0.117031
C23   C     C_R   0.620688 0.628043 0.940132 -0.120264
C24   C     C_R   0.425988 0.332828 0.113397 -0.117031
H5    H     H_    0.871288 0.201557 0.519691 0.114060
H6    H     H_    0.043241 0.729928 0.381674 0.114367
H7    H     H_    0.628715 0.701535 0.980312 0.114060
H8    H     H_    0.456755 0.229914 0.118321 0.114367
C25   C     C_R   0.843940 0.142481 0.596629 -0.169219
C26   C     C_R   0.111404 0.820854 0.352177 -0.132081
C27   C     C_R   0.656061 0.642469 0.903373 -0.169224
C28   C     C_R   0.388594 0.320847 0.147820 -0.132068
H9    H     H_    0.808866 0.223855 0.583502 0.118144
H10   H     H_    0.107835 0.711110 0.320635 0.121408
H11   H     H_    0.691137 0.723834 0.916501 0.118142
H12   H     H_    0.392161 0.211097 0.179361 0.121412
C29   C     C_R   0.852996 0.050240 0.649296 -0.102621
C30   C     C_R   0.152213 0.950897 0.357206 -0.104039
C31   C     C_R   0.647004 0.550240 0.850704 -0.102621
C32   C     C_R   0.347786 0.450897 0.142793 -0.104042
C33   C     C_R   0.016942 0.030551 0.559057 -0.136831
C34   C     C_R   0.984061 0.964844 0.442796 -0.148525
C35   C     C_R   0.483058 0.530565 0.940943 -0.136832
C36   C     C_R   0.515938 0.464827 0.057203 -0.148527
H13   H     H_    0.030534 0.057101 0.603912 0.127313
H14   H     H_    0.970561 0.940362 0.397817 0.113692
H15   H     H_    0.469467 0.557127 0.896088 0.127313
H16   H     H_    0.529438 0.440332 0.102181 0.113692
C37   C     C_R   0.053413 0.019085 0.523530 -0.134902
C38   C     C_R   0.947456 0.978487 0.478303 -0.146373
C39   C     C_R   0.446587 0.519098 0.976470 -0.134902
C40   C     C_R   0.552543 0.478470 0.021695 -0.146371
H17   H     H_    0.094273 0.034222 0.542026 0.126283
H18   H     H_    0.906603 0.961399 0.460069 0.113310
H19   H     H_    0.405727 0.534247 0.957974 0.126282
H20   H     H_    0.593396 0.461369 0.039929 0.113310
C41   C     C_R   0.037479 0.985818 0.464978 0.086602
C42   C     C_R   0.963511 0.010680 0.536920 0.085539
C43   C     C_R   0.462521 0.485816 0.035021 0.086603
C44   C     C_R   0.536488 0.510679 0.963079 0.085539
H21   H     H_    0.527272 0.750507 0.571328 0.173577
H22   H     H_    0.471420 0.250836 0.430391 0.164087
H23   H     H_    0.972728 0.250507 0.928672 0.173577
H24   H     H_    0.028580 0.750836 0.069609 0.164087
C45   C     C_R   0.470498 0.831883 0.497301 0.013301
C46   C     C_R   0.528122 0.169405 0.504440 0.020468
C47   C     C_R   0.029502 0.331883 0.002698 0.013301
C48   C     C_R   0.971878 0.669405 0.995560 0.020467
C49   C     C_R   0.454874 0.975541 0.456974 0.028375
C50   C     C_R   0.543884 0.025492 0.544603 0.027612
C51   C     C_R   0.045126 0.475541 0.043026 0.028375
C52   C     C_R   0.956115 0.525492 0.955397 0.027612
C53   C     C_R   0.483910 0.141238 0.461115 -0.190902
C54   C     C_R   0.514772 0.860002 0.540574 -0.175943
C55   C     C_R   0.016089 0.641238 0.038885 -0.190902
C56   C     C_R   0.985228 0.360001 0.959426 -0.175943
C57   C     C_1   0.408838 0.960574 0.411664 0.030872
C58   C     C_1   0.590287 0.039885 0.589451 0.034243
C59   C     C_1   0.091162 0.460574 0.088336 0.030873
C60   C     C_1   0.909713 0.539885 0.910549 0.034242
C61   C     C_1   0.628775 0.050213 0.626975 -0.126140
C62   C     C_1   0.370724 0.949948 0.373664 -0.120593
C63   C     C_1   0.871225 0.550213 0.873025 -0.126142
C64   C     C_1   0.129276 0.449948 0.126336 -0.120592
C65   C     C_2   0.913661 0.855545 0.722379 0.755123
O21   O     O_2   0.939671 0.712808 0.728036 -0.551392
O22   O     O_R   0.899152 0.937707 0.769887 -0.655917
H25   H     H_    0.912262 0.865776 0.806205 0.312930
C66   C     C_2   0.199794 0.226399 0.410685 0.772102
O23   O     O_2   0.192488 0.386487 0.424856 -0.554703
O24   O     O_R   0.250026 0.167768 0.407440 -0.661541
H26   H     H_    0.276687 0.271194 0.416569 0.298270
C67   C     C_2   0.586335 0.355569 0.777617 0.755121
O25   O     O_2   0.560320 0.212844 0.771956 -0.551390
O26   O     O_R   0.600849 0.437729 0.730111 -0.655919
H27   H     H_    0.587738 0.365806 0.693792 0.312933
C68   C     C_2   0.300210 0.726414 0.089319 0.772102
O27   O     O_2   0.307518 0.886505 0.075152 -0.554706
O28   O     O_R   0.249976 0.667788 0.092561 -0.661539
H28   H     H_    0.223317 0.771220 0.083434 0.298272
C69   C     C_2   0.441985 0.651269 0.495644 0.789882
O29   O     O_2   0.448332 0.551523 0.537803 -0.551085
O30   O     O_R   0.408636 0.592339 0.446090 -0.663397
H29   H     H_    0.392024 0.467070 0.450720 0.293503
C70   C     C_2   0.556450 0.350392 0.506390 0.766622
O31   O     O_2   0.550544 0.449768 0.464169 -0.565068
O32   O     O_R   0.589045 0.410187 0.556349 -0.664155
H30   H     H_    0.605612 0.535677 0.551932 0.292018
C71   C     C_2   0.058015 0.151269 0.004356 0.789880
O33   O     O_2   0.051668 0.051523 0.962197 -0.551086
O34   O     O_R   0.091364 0.092339 0.053910 -0.663397
H31   H     H_    0.107976 0.967070 0.049281 0.293503
C72   C     C_2   0.943550 0.850392 0.993610 0.766623
O35   O     O_2   0.949455 0.949768 0.035831 -0.565068
O36   O     O_R   0.910955 0.910186 0.943651 -0.664154
H32   H     H_    0.894388 0.035677 0.948068 0.292019

loop_
_geom_bond_atom_site_label_1
_geom_bond_atom_site_label_2
_ccdc_geom_bond_type
C26   H10   S    
C51   C55   A    
C57   C62   T    
O1    C5    A    
H21   C54   S    
C34   C38   A    
O13   V1    S    
C59   C64   T    
O3    C7    A    
C12   C68   S    
C52   C56   A    
H23   C56   S    
C36   H16   S    
O15   V3    S    
C10   C30   A    
C39   C43   A    
C9    C29   A    
O26   H27   S    
O7    C3    A    
C71   O34   S    
C22   H6    S    
C7    C30   S    
O9    V1    S    
O36   H32   S    
C69   O29   D    
C66   O24   S    
O4    C8    A    
C47   C51   A    
O19   V1    S    
C46   C50   A    
O22   H25   S    
O1    V3    S    
C46   C70   S    
C21   C25   A    
O2    V4    S    
C47   C71   S    
O3    V1    S    
C34   H14   S    
C12   C16   A    
C24   C28   A    
H24   C55   S    
C27   C31   A    
C48   C72   S    
C33   C37   A    
C26   C30   A    
C46   C53   A    
C2    O16   A    
C39   H19   S    
O2    C6    A    
C33   H13   S    
O14   V2    S    
C11   C31   A    
C16   H4    S    
C40   H20   S    
C18   C41   S    
C49   C57   S    
C38   C42   A    
C10   C66   S    
O11   C7    A    
C37   C41   A    
O12   C8    A    
C3    C62   S    
O10   V2    S    
C45   C69   S    
C35   C39   A    
C4    C61   S    
C1    O15   A    
O5    V1    S    
O34   H31   S    
C52   C60   S    
O7    V3    S    
O8    V4    S    
O32   H30   S    
O18   V4    S    
C19   C23   A    
C50   C54   A    
C9    C13   A    
C22   C26   A    
C11   C15   A    
H22   C53   S    
O5    C1    A    
C68   O28   S    
C38   H18   S    
C37   H17   S    
O8    C4    A    
C17   C21   A    
C20   C43   S    
O9    C5    A    
C2    C63   S    
O11   V3    S    
C67   O25   D    
C8    C29   S    
O6    V2    S    
C5    C32   S    
C70   O31   D    
C23   C27   A    
C13   C17   A    
O28   H28   S    
C45   C49   A    
C36   C43   A    
C47   C56   A    
C15   C19   A    
C65   O21   D    
O16   V4    S    
C16   C20   A    
C3    O13   A    
C11   C67   S    
C10   C14   A    
C27   H11   S    
O17   V3    S    
C25   C29   A    
C45   C54   A    
O6    C2    A    
C15   H3    S    
O24   H26   S    
C12   C32   A    
C25   H9    S    
O12   V4    S    
C51   C59   S    
C71   O33   D    
C18   C22   A    
C9    C65   S    
C50   C58   S    
C60   C63   T    
C28   H12   S    
C19   C44   S    
O10   C6    A    
C72   O36   S    
C17   C42   S    
C36   C40   A    
C66   O23   D    
C14   C18   A    
C35   H15   S    
C68   O27   D    
C1    C64   S    
C21   H5    S    
C48   C52   A    
O20   V2    S    
C23   H7    S    
C13   H1    S    
O4    V2    S    
C6    C31   S    
C67   O26   S    
C35   C44   A    
C14   H2    S    
C24   H8    S    
C20   C24   A    
C28   C32   A    
C40   C44   A    
C48   C55   A    
C4    O14   A    
C70   O32   S    
C65   O22   S    
C72   O35   D    
C34   C41   A    
C49   C53   A    
C33   C42   A    
O30   H29   S    
C69   O30   S    
C58   C61   T    
