data_mof_unit_52474.cif
_audit_creation_date              2012-12-10T18:44:26-0500
_audit_creation_method            fapswitch 2.2
_symmetry_space_group_name_H-M    P1
_symmetry_Int_Tables_number       1
_space_group_crystal_system       triclinic
_cell_length_a                    12.865114
_cell_length_b                    10.575392
_cell_length_c                    9.997445
_cell_angle_alpha                 87.307625
_cell_angle_beta                  97.026835
_cell_angle_gamma                 92.929682
_cell_volume                      1347.0695659

loop_
_atom_site_label
_atom_site_type_symbol
_atom_type_description
_atom_site_fract_x
_atom_site_fract_y
_atom_site_fract_z
_atom_type_partial_charge
C1    C     C_R   0.498737 0.260475 0.502116 0.875706
C2    C     C_R   0.501676 0.739517 0.497839 0.866621
C3    C     C_R   0.503764 0.872366 0.494019 0.023762
C4    C     C_R   0.497389 0.127633 0.505300 0.013731
C5    C     C_R   0.557521 0.592297 0.072905 0.373529
C6    C     C_R   0.442020 0.408012 0.926861 0.379435
C7    C     C_R   0.561983 0.584974 0.930558 0.091454
C8    C     C_R   0.437832 0.415132 0.069484 0.088534
C9    C     C_R   0.298632 0.500964 0.473593 0.879810
C10   C     C_R   0.701369 0.499152 0.526415 0.880619
C11   C     C_R   0.813336 0.494584 0.541724 -0.052334
C12   C     C_R   0.186672 0.505816 0.458365 -0.053182
C13   C     C_R   0.025522 0.570476 0.332238 -0.198744
C14   C     C_R   0.974521 0.430254 0.667999 -0.197725
C15   C     C_R   0.132969 0.560235 0.341313 -0.217952
C16   C     C_R   0.867066 0.440414 0.658896 -0.217602
C17   C     C_R   0.133932 0.462452 0.566692 -0.238368
C18   C     C_R   0.866076 0.538063 0.433442 -0.241397
C19   C     C_R   0.027308 0.473135 0.559187 0.169390
C20   C     C_R   0.972721 0.527519 0.441008 0.169165
C21   C     C_R   0.422418 0.063542 0.417205 -0.163083
C22   C     C_R   0.579079 0.936480 0.581598 -0.179074
C23   C     C_R   0.425758 0.934426 0.411267 -0.115668
C24   C     C_R   0.576138 0.065716 0.586876 -0.173953
H1    H     H_    0.824242 0.578712 0.342250 0.198271
H2    H     H_    0.175743 0.421739 0.657867 0.198618
H3    H     H_    0.825845 0.402443 0.740984 0.160007
H4    H     H_    0.174199 0.598303 0.259286 0.159845
H5    H     H_    0.984135 0.613171 0.241672 0.150106
H6    H     H_    0.015921 0.387645 0.758603 0.151060
H7    H     H_    0.361641 0.113347 0.354453 0.140174
H8    H     H_    0.639748 0.886612 0.644485 0.144795
H9    H     H_    0.366782 0.882816 0.345487 0.153985
H10   H     H_    0.635405 0.117409 0.652153 0.165761
N1    N     N_R   0.499970 0.499970 0.857200 -0.175458
N2    N     N_R   0.500030 0.500030 0.142800 -0.177079
O1    O     O_R   0.499990 0.316750 0.614620 -0.515417
O2    O     O_R   0.500010 0.683250 0.385380 -0.519350
O3    O     O_R   0.499990 0.316780 0.385290 -0.631255
O4    O     O_R   0.500010 0.683220 0.614710 -0.635679
O5    O     O_R   0.346360 0.499970 0.595710 -0.583114
O6    O     O_R   0.653640 0.500030 0.404290 -0.582464
O7    O     O_R   0.346360 0.499990 0.366380 -0.617546
O8    O     O_R   0.653640 0.500010 0.633620 -0.616218
Zn1   Zn    Zn3+2 0.500000 0.499980 0.653120 1.033874
Zn2   Zn    Zn3+2 0.500000 0.500020 0.346880 1.034133
S1    S     S_3+6 0.604857 0.739161 0.146768 0.017229
O9    O     O_2   0.510644 0.811930 0.165030 -0.300318
O10   O     O_2   0.670056 0.717412 0.279749 -0.314463
O11   O     O_3   0.678500 0.834407 0.052843 -0.600142
H11   H     H_    0.690319 0.914334 0.101493 0.393170
S2    S     S_3+6 0.393631 0.261705 0.852293 0.026150
O12   O     O_2   0.326290 0.180140 0.937377 -0.342444
O13   O     O_2   0.329945 0.282800 0.718190 -0.303688
O14   O     O_3   0.498662 0.178150 0.835409 -0.553200
H12   H     H_    0.470923 0.089774 0.823267 0.388960
N3    N     N_2   0.635712 0.658767 0.862377 -0.225580
H13   H     H_    0.620932 0.752940 0.843155 0.276039
C25   C     C_3   0.744011 0.625719 0.894987 -0.646071
H14   H     H_    0.775330 0.652109 0.998679 0.259558
H15   H     H_    0.792316 0.675492 0.822327 0.225635
H16   H     H_    0.750563 0.522093 0.888640 0.217081
N4    N     N_2   0.363870 0.341780 0.137898 -0.228698
H17   H     H_    0.377290 0.247038 0.155410 0.270383
C26   C     C_3   0.255917 0.376814 0.106982 -0.661402
H18   H     H_    0.250884 0.480855 0.111727 0.220495
H19   H     H_    0.208109 0.329256 0.181547 0.227976
H20   H     H_    0.222753 0.349271 0.004344 0.253607

loop_
_geom_bond_atom_site_label_1
_geom_bond_atom_site_label_2
_ccdc_geom_bond_type
C12   C17   A    
O14   H12   S    
N4    C26   S    
C11   C18   A    
N2    Zn2   S    
C14   C16   A    
C10   O6    A    
C21   H7    S    
C11   C16   A    
C2    O2    A    
C9    O5    A    
C19   C20   A    
C26   H19   S    
C12   C15   A    
C1    O1    A    
C26   H20   S    
C1    C4    S    
C16   H3    S    
C13   C15   A    
C2    C3    S    
C15   H4    S    
C25   H14   S    
S1    O10   D    
C6    N1    A    
C4    C21   A    
C5    S1    S    
N3    H13   S    
C18   H1    S    
C22   H8    S    
C14   H6    S    
O3    Zn2   S    
C17   H2    S    
C10   O8    A    
C13   H5    S    
C17   C19   A    
S2    O14   S    
S2    O13   D    
O11   H11   S    
S1    O11   S    
C18   C20   A    
C10   C11   S    
C21   C23   A    
C8    N2    A    
O4    Zn1   S    
C4    C24   A    
O7    Zn2   S    
C22   C24   A    
C9    O7    A    
N3    C25   S    
O2    Zn2   S    
C9    C12   S    
C1    O3    A    
C8    N4    S    
O1    Zn1   S    
N4    H17   S    
N1    Zn1   S    
C5    N2    A    
C2    O4    A    
S2    O12   D    
C23   H9    S    
C26   H18   S    
O6    Zn2   S    
C25   H15   S    
C5    C7    A    
O5    Zn1   S    
C3    C22   A    
C6    C8    A    
C13   C20   A    
C6    S2    S    
C3    C23   A    
C7    N1    A    
C14   C19   A    
C7    N3    S    
C24   H10   S    
O8    Zn1   S    
S1    O9    D    
C25   H16   S    
