data_mof_unit_44082.cif
_audit_creation_date              2012-12-11T14:56:20-0500
_audit_creation_method            fapswitch 2.2
_symmetry_space_group_name_H-M    P1
_symmetry_Int_Tables_number       1
_space_group_crystal_system       triclinic
_cell_length_a                    10.597701
_cell_length_b                    10.634768
_cell_length_c                    17.105067
_cell_angle_alpha                 80.522623
_cell_angle_beta                  89.82202
_cell_angle_gamma                 119.463573
_cell_volume                      1647.61728395

loop_
_atom_site_label
_atom_site_type_symbol
_atom_type_description
_atom_site_fract_x
_atom_site_fract_y
_atom_site_fract_z
_atom_type_partial_charge
C1    C     C_R   0.222037 0.853744 0.128654 0.552767
C2    C     C_1   0.651383 0.344988 0.707507 -0.060112
C3    C     C_R   0.628940 0.712750 0.804953 -0.141193
C4    C     C_R   0.636356 0.279983 0.086289 0.540397
C5    C     C_R   0.619542 0.696972 0.726685 -0.140453
C6    C     C_R   0.672861 0.821601 0.665822 0.031380
C7    C     C_R   0.746199 0.962815 0.683176 -0.137750
C8    C     C_R   0.754670 0.978908 0.761965 -0.131350
C9    C     C_R   0.689693 0.853268 0.822830 0.034073
C10   C     C_R   0.262749 0.985485 0.751621 -0.160556
C11   C     C_R   0.235436 0.970864 0.674450 -0.150585
C12   C     C_R   0.798267 0.421175 0.263549 -0.125319
C13   C     C_R   0.193566 0.836768 0.650899 0.014467
C14   C     C_R   0.205297 0.725301 0.701689 0.027425
C15   C     C_R   0.205972 0.728285 0.784297 0.012752
C16   C     C_R   0.601932 0.882082 0.131136 0.565781
C17   C     C_R   0.240521 0.864441 0.808270 0.013076
C18   C     C_R   0.683721 0.813179 0.358441 0.551573
C19   C     C_R   0.689687 0.396631 0.394513 0.546975
C20   C     C_R   0.104232 0.810448 0.359231 0.546897
C21   C     C_R   0.678468 0.800168 0.585693 0.534596
C22   C     C_R   0.678841 0.382426 0.624420 0.550114
C23   C     C_R   0.788344 0.408266 0.184953 -0.132369
C24   C     C_R   0.108322 0.806527 0.582568 0.553073
C25   C     C_R   0.276875 0.895137 0.888214 0.558382
C26   C     C_R   0.637347 0.284418 0.860946 0.541887
C27   C     C_R   0.647099 0.866615 0.899522 0.553551
C28   C     C_R   0.525853 0.303745 0.205544 -0.124894
C29   C     C_R   0.536193 0.318623 0.284546 -0.135639
C30   C     C_R   0.671712 0.370929 0.314362 0.033493
C31   C     C_3   0.275589 0.649075 0.666389 -0.256574
C32   C     C_3   0.173539 0.515156 0.630537 -0.387109
C33   C     C_3   0.166796 0.589357 0.846156 -0.258730
C34   C     C_R   0.651516 0.341830 0.156877 0.030115
C35   C     C_3   0.072027 0.441233 0.821284 -0.436867
C36   C     C_1   0.636007 0.871722 0.211253 -0.031480
C37   C     C_1   0.662447 0.855690 0.278895 -0.034028
C38   C     C_1   0.180275 0.825261 0.211208 -0.050802
C39   C     C_1   0.151331 0.819543 0.279813 -0.044962
C40   C     C_1   0.643984 0.323140 0.778105 -0.064455
Cr1   Cr    Cr6+3 0.402240 0.783890 0.019450 1.005373
Cr2   Cr    Cr6+3 0.382360 0.097900 0.991800 1.012145
Cr3   Cr    Cr6+3 0.715380 0.118170 0.988700 1.004997
Cr4   Cr    Cr6+3 0.936650 0.882420 0.465510 1.027935
Cr5   Cr    Cr6+3 0.605770 0.565620 0.493360 1.012295
Cr6   Cr    Cr6+3 0.921340 0.550490 0.496380 0.996502
H1    H     H_    0.418758 0.252834 0.184472 0.146073
H2    H     H_    0.295729 0.091093 0.767756 0.135788
H3    H     H_    0.208017 0.431182 0.642450 0.113238
H4    H     H_    0.058898 0.464047 0.655698 0.180415
H5    H     H_    0.180511 0.546891 0.564838 0.164556
H6    H     H_    0.363375 0.730848 0.619479 0.148630
H7    H     H_    0.332421 0.615450 0.712305 0.149182
H8    H     H_    0.983800 0.442696 0.787081 0.181166
H9    H     H_    0.138175 0.410202 0.787464 0.137396
H10   H     H_    0.021104 0.353780 0.875441 0.161944
H11   H     H_    0.267636 0.594205 0.867613 0.170818
H12   H     H_    0.239449 0.063098 0.634194 0.143376
H13   H     H_    0.098554 0.585488 0.896903 0.179357
H14   H     H_    0.438991 0.285688 0.322634 0.130219
H15   H     H_    0.905611 0.470528 0.284462 0.144796
H16   H     H_    0.886471 0.440900 0.147746 0.137602
H17   H     H_    0.579560 0.615120 0.851447 0.128994
H18   H     H_    0.570423 0.587008 0.713760 0.136436
H19   H     H_    0.794112 0.059441 0.636074 0.123163
H20   H     H_    0.801790 0.088694 0.774955 0.136275
O1    O     O_R   0.521780 0.757110 0.108900 -0.499274
O2    O     O_R   0.805020 0.410040 0.421340 -0.525713
O3    O     O_R   0.049240 0.685450 0.403290 -0.508893
O4    O     O_R   0.275160 0.783810 0.101120 -0.509538
O5    O     O_R   0.077520 0.903010 0.551800 -0.523030
O6    O     O_R   0.802980 0.872780 0.546830 -0.494662
O7    O     O_R   0.578090 0.681300 0.569920 -0.535192
O8    O     O_R   0.608530 0.436370 0.586530 -0.503478
O9    O     O_R   0.798770 0.401880 0.597100 -0.526222
O10   O     O_R   0.043450 0.677890 0.566230 -0.504317
O11   O     O_3   0.821250 0.666180 0.485090 -0.245908
O12   O     O_R   0.513330 0.228330 0.898660 -0.514220
O13   O     O_R   0.237900 0.972600 0.090980 -0.501786
O14   O     O_R   0.511190 0.220540 0.061620 -0.510011
O15   O     O_R   0.736920 0.257720 0.063840 -0.524550
O16   O     O_R   0.710450 0.984050 0.081720 -0.485277
O17   O     O_R   0.524090 0.765520 0.933110 -0.532131
O18   O     O_R   0.277300 0.791600 0.938160 -0.520327
O19   O     O_R   0.240210 0.981010 0.915190 -0.506878
O20   O     O_R   0.739230 0.266130 0.888050 -0.528483
O21   O     O_R   0.712580 0.991850 0.918770 -0.503126
O22   O     O_3   0.499990 0.999980 0.999980 -0.282805
O23   O     O_R   0.083770 0.911170 0.376030 -0.509111
O24   O     O_R   0.808770 0.880340 0.383890 -0.492769
O25   O     O_R   0.584340 0.689460 0.394160 -0.509728
O26   O     O_R   0.614320 0.443940 0.423590 -0.498785

loop_
_geom_bond_atom_site_label_1
_geom_bond_atom_site_label_2
_ccdc_geom_bond_type
C28   H1    S    
C8    H20   S    
C11   C13   A    
C31   H6    S    
Cr6   O10   S    
C7    C8    A    
Cr1   O1    S    
Cr2   O14   S    
C12   C23   A    
C26   O12   A    
Cr3   O22   S    
Cr4   O11   S    
C18   C37   S    
C4    O14   A    
C38   C39   T    
C10   C17   A    
Cr1   O17   S    
C21   O7    A    
Cr4   O5    S    
Cr5   O7    S    
Cr5   O26   S    
Cr6   O3    S    
C19   O26   A    
C23   H16   S    
C4    O15   A    
C8    C9    A    
C2    C22   S    
C25   O18   A    
C11   H12   S    
C14   C31   S    
C28   C34   A    
Cr2   O13   S    
C33   H13   S    
C13   C14   A    
C35   H8    S    
C22   O9    A    
C16   O16   A    
Cr6   O9    S    
C4    C34   S    
C21   O6    A    
C35   H9    S    
C18   O24   A    
Cr2   O19   S    
C20   C39   S    
C24   O10   A    
C6    C21   S    
C5    H18   S    
Cr5   O8    S    
C32   H5    S    
Cr6   O2    S    
C29   C30   A    
C3    C9    A    
C2    C40   T    
C7    H19   S    
C31   C32   S    
C29   H14   S    
C26   O20   A    
C23   C34   A    
C25   O19   A    
C19   O2    A    
C16   O1    A    
C31   H7    S    
C27   O21   A    
C32   H4    S    
C1    C38   S    
Cr2   O12   S    
C10   H2    S    
C1    O13   A    
C20   O3    A    
Cr2   O22   S    
C22   O8    A    
Cr4   O24   S    
C9    C27   S    
C15   C17   A    
Cr1   O22   S    
C28   C29   A    
C33   H11   S    
C12   C30   A    
C35   H10   S    
Cr3   O20   S    
C3    C5    A    
Cr6   O11   S    
C6    C7    A    
C3    H17   S    
C20   O23   A    
C1    O4    A    
C17   C25   S    
C27   O17   A    
Cr3   O21   S    
C16   C36   S    
C12   H15   S    
Cr1   O18   S    
C26   C40   S    
C5    C6    A    
Cr3   O15   S    
C33   C35   S    
Cr4   O6    S    
Cr5   O25   S    
C32   H3    S    
C10   C11   A    
C18   O25   A    
C13   C24   S    
C36   C37   T    
Cr3   O16   S    
C14   C15   A    
Cr5   O11   S    
C19   C30   S    
C15   C33   S    
Cr4   O23   S    
C24   O5    A    
Cr1   O4    S    
