data_mof_unit_65343.cif
_audit_creation_date              2012-12-10T16:58:19-0500
_audit_creation_method            fapswitch 2.2
_symmetry_space_group_name_H-M    P1
_symmetry_Int_Tables_number       1
_space_group_crystal_system       triclinic
_cell_length_a                    31.082342
_cell_length_b                    30.338645
_cell_length_c                    24.591557
_cell_angle_alpha                 89.999864
_cell_angle_beta                  128.104809
_cell_angle_gamma                 90.0
_cell_volume                      18247.6201172

loop_
_atom_site_label
_atom_site_type_symbol
_atom_type_description
_atom_site_fract_x
_atom_site_fract_y
_atom_site_fract_z
_atom_type_partial_charge
C1    C     C_R   0.807328 0.810060 0.496445 0.940004
C2    C     C_R   0.535222 0.748866 0.069790 0.283947
C3    C     C_R   0.924638 0.285587 0.818169 -0.157886
C4    C     C_R   0.573133 0.749009 0.145309 0.085619
C5    C     C_R   0.426866 0.749009 0.854691 0.085629
C6    C     C_R   0.073133 0.249009 0.145309 0.085629
C7    C     C_R   0.926866 0.249009 0.854691 0.085619
C8    C     C_R   0.607349 0.712705 0.181434 -0.156122
C9    C     C_R   0.392651 0.712705 0.818566 -0.156092
C10   C     C_R   0.107349 0.212705 0.181434 -0.156091
C11   C     C_R   0.892651 0.212705 0.818566 -0.156124
C12   C     C_R   0.643685 0.713145 0.253307 -0.183210
C13   C     C_R   0.964777 0.248866 0.930210 0.283947
C14   C     C_R   0.356315 0.713145 0.746693 -0.183191
C15   C     C_R   0.143685 0.213145 0.253307 -0.183191
C16   C     C_R   0.856315 0.213145 0.746693 -0.183209
C17   C     C_3   0.009574 0.758889 0.844573 -0.417141
C18   C     C_3   0.032049 0.804789 0.874426 -0.834189
C19   C     C_3   0.992241 0.748162 0.151352 -0.415720
C20   C     C_3   0.971064 0.793264 0.152509 -0.827561
C21   C     C_3   0.507760 0.248162 0.848647 -0.415718
C22   C     C_3   0.528936 0.293264 0.847489 -0.827560
C23   C     C_3   0.490425 0.258887 0.155427 -0.417141
C24   C     C_R   0.035221 0.248866 0.069790 0.283941
C25   C     C_3   0.467950 0.304787 0.125573 -0.834186
C26   C     C_3   0.957219 0.871406 0.574909 -0.371587
C27   C     C_3   0.011792 0.855020 0.594814 -0.854212
C28   C     C_3   0.042815 0.871444 0.425048 -0.372522
C29   C     C_3   0.988224 0.855039 0.405066 -0.854028
C30   C     C_3   0.457184 0.371444 0.574954 -0.372521
C31   C     C_3   0.511774 0.355039 0.594935 -0.854028
C32   C     C_3   0.542780 0.371406 0.425092 -0.371590
C33   C     C_3   0.488207 0.355021 0.405188 -0.854211
C34   C     C_3   0.777153 0.747030 0.720029 -0.414170
C35   C     C_2   0.879982 0.876001 0.446637 -0.205565
C36   C     C_3   0.752750 0.791614 0.716317 -0.809250
C37   C     C_3   0.226185 0.743593 0.283921 -0.412899
C38   C     C_3   0.250495 0.787953 0.286467 -0.812844
C39   C     C_3   0.273815 0.243593 0.716079 -0.412897
C40   C     C_3   0.249505 0.287953 0.713532 -0.812843
C41   C     C_3   0.722847 0.247032 0.279971 -0.414168
C42   C     C_3   0.747250 0.291616 0.283683 -0.809249
C43   C     C_2   0.119994 0.875983 0.553349 -0.205646
C44   C     C_2   0.380007 0.375983 0.446652 -0.205645
C45   C     C_2   0.620019 0.376001 0.553364 -0.205566
C46   C     C_2   0.923695 0.894780 0.504686 0.005679
C47   C     C_2   0.076308 0.894785 0.495298 0.006156
C48   C     C_2   0.423692 0.394786 0.504703 0.006156
C49   C     C_R   0.192679 0.810060 0.503568 0.939954
C50   C     C_2   0.576305 0.394780 0.495314 0.005680
C51   C     C_2   0.851149 0.839421 0.449924 -0.164648
C52   C     C_2   0.148829 0.839405 0.550064 -0.164377
C53   C     C_2   0.351172 0.339404 0.449937 -0.164376
C54   C     C_2   0.648851 0.339421 0.550077 -0.164649
C55   C     C_2   0.833900 0.844911 0.487496 -0.369638
C56   C     C_2   0.166121 0.844910 0.512541 -0.369882
C57   C     C_2   0.333878 0.344910 0.487458 -0.369883
C58   C     C_2   0.666100 0.344911 0.512503 -0.369636
C59   C     C_R   0.836736 0.751599 0.750638 0.163659
C60   C     C_R   0.307321 0.310060 0.496432 0.939955
C61   C     C_R   0.166115 0.748057 0.251044 0.163390
C62   C     C_R   0.333885 0.248057 0.748956 0.163390
C63   C     C_R   0.663265 0.251600 0.249362 0.163657
C64   C     C_R   0.875657 0.754363 0.822428 -0.228511
C65   C     C_R   0.128348 0.748977 0.178981 -0.220773
C66   C     C_R   0.371652 0.248977 0.821019 -0.220773
C67   C     C_R   0.624343 0.254364 0.177572 -0.228510
C68   C     C_R   0.931722 0.755426 0.854443 0.030759
C69   C     C_R   0.071984 0.750467 0.145129 0.009958
C70   C     C_R   0.428016 0.250467 0.854870 0.009958
C71   C     C_R   0.692672 0.310060 0.503554 0.940005
C72   C     C_R   0.568278 0.255426 0.145557 0.030759
C73   C     C_R   0.949834 0.754901 0.813892 0.194672
C74   C     C_R   0.052411 0.750216 0.183996 0.195773
C75   C     C_R   0.447589 0.250216 0.816004 0.195773
C76   C     C_R   0.550166 0.254900 0.186107 0.194672
C77   C     C_R   0.682792 0.749842 0.365180 0.875083
C78   C     C_R   0.317208 0.749842 0.634820 0.875187
C79   C     C_R   0.182792 0.249842 0.365180 0.875187
C80   C     C_R   0.817208 0.249842 0.634820 0.875083
C81   C     C_R   0.910778 0.752169 0.742017 -0.268433
C82   C     C_R   0.645433 0.749548 0.289745 -0.033823
C83   C     C_R   0.090244 0.749836 0.256104 -0.255820
C84   C     C_R   0.409756 0.249836 0.743896 -0.255820
C85   C     C_R   0.589222 0.252168 0.257982 -0.268432
C86   C     C_R   0.854792 0.750769 0.710188 -0.095317
C87   C     C_R   0.146552 0.749258 0.289819 -0.100479
C88   C     C_R   0.353447 0.249258 0.710181 -0.100479
C89   C     C_R   0.645208 0.250769 0.289812 -0.095319
C90   C     C_R   0.035350 0.751950 0.069520 0.282160
C91   C     C_R   0.969566 0.755417 0.930067 0.291751
C92   C     C_R   0.530434 0.255417 0.069933 0.291751
C93   C     C_R   0.354567 0.749548 0.710255 -0.033846
C94   C     C_R   0.464650 0.251950 0.930480 0.282159
C95   C     C_2   0.614687 0.626217 0.547904 -0.310008
C96   C     C_2   0.385335 0.626231 0.452112 -0.309515
C97   C     C_2   0.114665 0.126231 0.547887 -0.309515
C98   C     C_2   0.885312 0.126217 0.452095 -0.310008
C99   C     C_2   0.585002 0.597773 0.495397 0.466789
C100  C     C_2   0.414988 0.597768 0.504600 0.466752
C101  C     C_2   0.085011 0.097768 0.495399 0.466752
C102  C     C_2   0.914998 0.097773 0.504603 0.466788
C103  C     C_2   0.642508 0.662689 0.542539 -0.124685
C104  C     C_R   0.145432 0.249548 0.289745 -0.033847
C105  C     C_2   0.357519 0.662703 0.457483 -0.125401
C106  C     C_2   0.142481 0.162703 0.542516 -0.125401
C107  C     C_2   0.857491 0.162689 0.457461 -0.124686
C108  C     C_2   0.666667 0.655394 0.513562 -0.231621
C109  C     C_2   0.333306 0.655397 0.486400 -0.231763
C110  C     C_2   0.166694 0.155396 0.513600 -0.231763
C111  C     C_2   0.833333 0.155394 0.486438 -0.231619
C112  C     C_R   0.442045 0.560862 0.500734 0.820245
C113  C     C_R   0.557953 0.560863 0.499265 0.820246
C114  C     C_R   0.942046 0.060863 0.500735 0.820245
C115  C     C_R   0.854567 0.249548 0.710255 -0.033823
C116  C     C_R   0.057955 0.060862 0.499265 0.820245
C117  C     C_R   0.944049 0.937241 0.500758 0.892357
C118  C     C_R   0.055950 0.937241 0.499239 0.892326
C119  C     C_R   0.444050 0.437241 0.500761 0.892324
C120  C     C_R   0.555951 0.437241 0.499242 0.892359
C121  C     C_R   0.692720 0.690011 0.503661 0.909982
C122  C     C_R   0.307277 0.690011 0.496331 0.909122
C123  C     C_R   0.192723 0.190011 0.503669 0.909123
C124  C     C_R   0.807280 0.190011 0.496339 0.909980
C125  C     C_R   0.816666 0.749659 0.634750 0.866465
C126  C     C_R   0.464778 0.748866 0.930210 0.283941
C127  C     C_R   0.183462 0.749528 0.365278 0.866581
C128  C     C_R   0.316538 0.249528 0.634722 0.866582
C129  C     C_R   0.683334 0.249659 0.365249 0.866464
C130  C     C_R   0.610967 0.785695 0.253634 -0.188300
C131  C     C_R   0.389032 0.785695 0.746366 -0.188329
C132  C     C_R   0.110967 0.285695 0.253634 -0.188328
C133  C     C_R   0.889032 0.285695 0.746366 -0.188299
C134  C     C_R   0.575361 0.785587 0.181830 -0.157886
C135  C     C_R   0.424638 0.785587 0.818169 -0.157914
C136  C     C_R   0.075361 0.285587 0.181830 -0.157916
F1    F     F_    0.573915 0.605553 0.433238 -0.652193
F2    F     F_    0.426040 0.605525 0.566744 -0.652157
F3    F     F_    0.073960 0.105525 0.433256 -0.652157
F4    F     F_    0.926085 0.105553 0.566762 -0.652192
H1    H     H_    0.611880 0.814192 0.280869 0.155608
H2    H     H_    0.075605 0.750020 0.286329 0.159454
H3    H     H_    0.253834 0.312169 0.683329 0.272579
H4    H     H_    0.205375 0.283845 0.688419 0.241206
H5    H     H_    0.249964 0.229561 0.663223 0.201609
H6    H     H_    0.268889 0.219969 0.746461 0.199658
H7    H     H_    0.725447 0.305713 0.231072 0.252232
H8    H     H_    0.744224 0.314944 0.315988 0.272076
H9    H     H_    0.791031 0.287420 0.307073 0.240518
H10   H     H_    0.747515 0.231938 0.332187 0.201410
H11   H     H_    0.726465 0.224286 0.247521 0.198403
H12   H     H_    0.424395 0.250020 0.713671 0.159454
H13   H     H_    0.576068 0.252254 0.289840 0.153569
H14   H     H_    0.617492 0.623371 0.594043 0.142400
H15   H     H_    0.382559 0.623402 0.405993 0.142525
H16   H     H_    0.117440 0.123403 0.594006 0.142525
H17   H     H_    0.882507 0.123371 0.405956 0.142400
H18   H     H_    0.644336 0.694713 0.563660 0.158178
H19   H     H_    0.355749 0.694740 0.436435 0.158387
H20   H     H_    0.144251 0.194740 0.563564 0.158387
H21   H     H_    0.388119 0.814192 0.719130 0.155571
H22   H     H_    0.855663 0.194713 0.436339 0.158178
H23   H     H_    0.670247 0.622145 0.500184 0.188605
H24   H     H_    0.329695 0.622141 0.499716 0.188780
H25   H     H_    0.170305 0.122141 0.500284 0.188780
H26   H     H_    0.829753 0.122145 0.499816 0.188605
H27   H     H_    0.549108 0.813866 0.154945 0.148986
H28   H     H_    0.450890 0.813866 0.845055 0.148933
H29   H     H_    0.049108 0.313866 0.154945 0.148933
H30   H     H_    0.950890 0.313867 0.845055 0.148986
H31   H     H_    0.606447 0.684242 0.154161 0.149749
H32   H     H_    0.111880 0.314192 0.280869 0.155571
H33   H     H_    0.393553 0.684242 0.845839 0.149759
H34   H     H_    0.106447 0.184242 0.154161 0.149759
H35   H     H_    0.893553 0.184242 0.845839 0.149749
H36   H     H_    0.669877 0.684858 0.280351 0.157096
H37   H     H_    0.330124 0.684858 0.719649 0.157102
H38   H     H_    0.169877 0.184858 0.280351 0.157102
H39   H     H_    0.830123 0.184858 0.719649 0.157096
H40   H     H_    0.861547 0.890348 0.396191 0.162542
H41   H     H_    0.138401 0.890307 0.603802 0.162518
H42   H     H_    0.361601 0.390306 0.396199 0.162518
H43   H     H_    0.888119 0.314193 0.719130 0.155608
H44   H     H_    0.638454 0.390349 0.603810 0.162542
H45   H     H_    0.842796 0.809441 0.420738 0.172833
H46   H     H_    0.157141 0.809409 0.579202 0.172817
H47   H     H_    0.342861 0.309409 0.420800 0.172817
H48   H     H_    0.657206 0.309441 0.579264 0.172833
H49   H     H_    0.837925 0.876786 0.510550 0.164036
H50   H     H_    0.162131 0.876796 0.489534 0.164076
H51   H     H_    0.337868 0.376797 0.510463 0.164076
H52   H     H_    0.662073 0.376785 0.489447 0.164035
H53   H     H_    0.007247 0.830245 0.833956 0.258955
H54   H     H_    0.862106 0.754251 0.853861 0.157481
H55   H     H_    0.031782 0.811516 0.918550 0.265785
H56   H     H_    0.074888 0.807127 0.893176 0.247971
H57   H     H_    0.034540 0.733346 0.884539 0.223209
H58   H     H_    0.014823 0.752935 0.804353 0.199868
H59   H     H_    0.992931 0.804646 0.206585 0.249502
H60   H     H_    0.976949 0.817825 0.124141 0.274504
H61   H     H_    0.926755 0.790985 0.127358 0.248177
H62   H     H_    0.967232 0.735674 0.097533 0.216000
H63   H     H_    0.986023 0.724273 0.180236 0.200831
H64   H     H_    0.507069 0.304646 0.793414 0.249502
H65   H     H_    0.143123 0.748544 0.148918 0.159222
H66   H     H_    0.523050 0.317825 0.875858 0.274503
H67   H     H_    0.573245 0.290985 0.872641 0.248176
H68   H     H_    0.532769 0.235675 0.902467 0.216000
H69   H     H_    0.513978 0.224273 0.819764 0.200831
H70   H     H_    0.492751 0.330244 0.166043 0.258954
H71   H     H_    0.468216 0.311515 0.081449 0.265785
H72   H     H_    0.425111 0.307124 0.106823 0.247970
H73   H     H_    0.465460 0.233344 0.115461 0.223209
H74   H     H_    0.485177 0.252933 0.195647 0.199867
H75   H     H_    0.004568 0.831615 0.555208 0.256622
H76   H     H_    0.356878 0.248543 0.851082 0.159223
H77   H     H_    0.037342 0.882719 0.599880 0.270802
H78   H     H_    0.034783 0.837615 0.645229 0.243749
H79   H     H_    0.964723 0.894402 0.615131 0.209494
H80   H     H_    0.936668 0.842212 0.576424 0.228405
H81   H     H_    0.995423 0.831599 0.444621 0.256721
H82   H     H_    0.962667 0.882725 0.400019 0.270877
H83   H     H_    0.965255 0.837668 0.354625 0.243589
H84   H     H_    0.035337 0.894464 0.384866 0.209493
H85   H     H_    0.063377 0.842262 0.423520 0.228169
H86   H     H_    0.504575 0.331597 0.555382 0.256721
H87   H     H_    0.637894 0.254252 0.146139 0.157480
H88   H     H_    0.537332 0.382723 0.599979 0.270876
H89   H     H_    0.534745 0.337669 0.645378 0.243590
H90   H     H_    0.464663 0.394466 0.615135 0.209494
H91   H     H_    0.436622 0.342264 0.576482 0.228168
H92   H     H_    0.495432 0.331617 0.444796 0.256622
H93   H     H_    0.462657 0.382720 0.400120 0.270802
H94   H     H_    0.465216 0.337613 0.354774 0.243749
H95   H     H_    0.535277 0.394400 0.384869 0.209494
H96   H     H_    0.563331 0.342210 0.423578 0.228407
H97   H     H_    0.774553 0.805710 0.768928 0.252233
H98   H     H_    0.923932 0.752255 0.710160 0.153569
H99   H     H_    0.755774 0.814942 0.684012 0.272077
H100  H     H_    0.708968 0.787417 0.692927 0.240518
H101  H     H_    0.752486 0.731936 0.667813 0.201410
H102  H     H_    0.773535 0.724284 0.752479 0.198404
H103  H     H_    0.229587 0.800904 0.233380 0.250677
H104  H     H_    0.246166 0.812169 0.316671 0.272579
H105  H     H_    0.294625 0.783846 0.311581 0.241206
H106  H     H_    0.250036 0.729562 0.336777 0.201610
H107  H     H_    0.231111 0.719970 0.253539 0.199659
H108  H     H_    0.270413 0.300903 0.766620 0.250676
N1    N     N_R   0.517399 0.710311 0.034323 -0.172168
N2    N     N_R   0.993122 0.780857 0.034737 -0.169303
N3    N     N_R   0.506878 0.280857 0.965262 -0.169303
N4    N     N_R   0.488091 0.226663 0.035110 -0.179777
N5    N     N_R   0.044507 0.725164 0.033488 -0.178225
N6    N     N_R   0.960501 0.782333 0.966100 -0.177011
N7    N     N_R   0.539498 0.282333 0.033899 -0.177011
N8    N     N_R   0.455493 0.225164 0.966512 -0.178224
N9    N     N_R   0.482601 0.710311 0.965677 -0.172177
N10   N     N_R   0.017399 0.210311 0.034323 -0.172177
N11   N     N_R   0.982601 0.210311 0.965677 -0.172168
N12   N     N_R   0.482771 0.787390 0.965696 -0.177270
N13   N     N_R   0.517228 0.787390 0.034303 -0.177279
N14   N     N_R   0.982770 0.287390 0.965696 -0.177279
N15   N     N_R   0.017227 0.287390 0.034304 -0.177270
N16   N     N_R   0.011909 0.726664 0.964890 -0.179777
O1    O     O_R   0.820760 0.769680 0.499980 -0.615844
O2    O     O_R   0.073990 0.954760 0.557490 -0.639787
O3    O     O_R   0.426010 0.454760 0.442510 -0.639786
O4    O     O_R   0.573990 0.454760 0.557490 -0.639800
O5    O     O_R   0.983520 0.954760 0.557520 -0.614137
O6    O     O_R   0.016480 0.954760 0.442480 -0.614024
O7    O     O_R   0.483520 0.454760 0.557520 -0.614025
O8    O     O_R   0.516480 0.454760 0.442480 -0.614136
O9    O     O_R   0.769670 0.820760 0.499990 -0.618913
O10   O     O_R   0.230330 0.820760 0.500010 -0.618891
O11   O     O_R   0.269670 0.320760 0.499990 -0.618892
O12   O     O_R   0.179240 0.769680 0.500020 -0.615649
O13   O     O_R   0.730330 0.320760 0.500010 -0.618913
O14   O     O_R   0.724610 0.724460 0.398130 -0.625115
O15   O     O_R   0.275390 0.724460 0.601870 -0.625077
O16   O     O_R   0.224610 0.224460 0.398130 -0.625077
O17   O     O_R   0.775390 0.224460 0.601870 -0.625115
O18   O     O_R   0.673520 0.775530 0.398150 -0.618567
O19   O     O_R   0.326480 0.775530 0.601850 -0.618539
O20   O     O_R   0.173520 0.275530 0.398150 -0.618539
O21   O     O_R   0.826480 0.275530 0.601850 -0.618567
O22   O     O_R   0.730310 0.679220 0.500010 -0.623208
O23   O     O_R   0.320760 0.269680 0.499980 -0.615650
O24   O     O_R   0.269690 0.679220 0.499990 -0.623108
O25   O     O_R   0.230310 0.179220 0.500010 -0.623109
O26   O     O_R   0.769690 0.179220 0.499990 -0.623208
O27   O     O_R   0.679220 0.730290 0.500020 -0.610252
O28   O     O_R   0.320780 0.730290 0.499980 -0.610307
O29   O     O_R   0.179220 0.230290 0.500020 -0.610308
O30   O     O_R   0.820780 0.230290 0.499980 -0.610251
O31   O     O_R   0.826460 0.724450 0.601850 -0.621680
O32   O     O_R   0.173540 0.724450 0.398150 -0.622573
O33   O     O_R   0.326460 0.224450 0.601850 -0.622574
O34   O     O_R   0.679240 0.269680 0.500020 -0.615844
O35   O     O_R   0.673540 0.224450 0.398150 -0.621680
O36   O     O_R   0.775370 0.775520 0.601870 -0.617109
O37   O     O_R   0.224630 0.775520 0.398130 -0.616715
O38   O     O_R   0.275370 0.275520 0.601870 -0.616716
O39   O     O_R   0.724630 0.275520 0.398130 -0.617109
O40   O     O_R   0.425990 0.545230 0.442510 -0.651409
O41   O     O_R   0.574010 0.545230 0.557490 -0.651550
O42   O     O_R   0.925990 0.045230 0.442510 -0.651550
O43   O     O_R   0.074010 0.045230 0.557490 -0.651410
O44   O     O_R   0.483490 0.545220 0.557520 -0.565417
O45   O     O_R   0.516510 0.545220 0.442480 -0.565392
O46   O     O_R   0.983490 0.045220 0.557520 -0.565392
O47   O     O_R   0.016510 0.045220 0.442480 -0.565417
O48   O     O_R   0.926010 0.954760 0.442510 -0.639800
Zn1   Zn    Zn3+2 0.784100 0.715890 0.499990 0.955479
Zn2   Zn    Zn3+2 0.538410 0.499990 0.576790 0.975142
Zn3   Zn    Zn3+2 0.961590 0.999990 0.423210 0.975141
Zn4   Zn    Zn3+2 0.038410 0.999990 0.576790 0.975271
Zn5   Zn    Zn3+2 0.215900 0.715890 0.500010 0.955185
Zn6   Zn    Zn3+2 0.284100 0.215890 0.499990 0.955184
Zn7   Zn    Zn3+2 0.715900 0.215890 0.500010 0.955479
Zn8   Zn    Zn3+2 0.715880 0.784090 0.500010 0.959486
Zn9   Zn    Zn3+2 0.284120 0.784090 0.499990 0.959471
Zn10  Zn    Zn3+2 0.215880 0.284090 0.500010 0.959471
Zn11  Zn    Zn3+2 0.784120 0.284090 0.499990 0.959486
Zn12  Zn    Zn3+2 0.461590 0.499990 0.423210 0.975271

loop_
_geom_bond_atom_site_label_1
_geom_bond_atom_site_label_2
_ccdc_geom_bond_type
C10   H34   S    
C28   C47   S    
C60   O11   A    
C44   H42   S    
C19   C20   S    
C74   C83   A    
O14   Zn1   S    
O46   Zn4   S    
C90   N2    A    
C20   H61   S    
C124  O26   A    
C32   H96   S    
C95   C99   D    
O31   Zn1   S    
C24   N10   A    
C89   C129  S    
C81   H98   S    
C25   H71   S    
C130  H1    S    
C44   C53   S    
C5    C126  S    
C135  H28   S    
C17   H57   S    
C77   O18   A    
C33   H92   S    
C81   C86   A    
C16   H39   S    
O4    Zn2   S    
C117  O48   A    
C80   O17   A    
C21   C22   S    
O13   Zn11  S    
C130  C134  A    
C42   H7    S    
C73   C81   A    
C125  O31   A    
C29   H82   S    
C18   H56   S    
C121  O27   A    
C122  O28   A    
O28   Zn9   S    
C98   C102  D    
C38   H105  S    
C62   C88   A    
C113  O45   A    
O41   Zn2   S    
C46   C117  S    
C114  O42   A    
C99   C113  S    
C37   C38   S    
C102  C114  S    
C110  C123  S    
C107  H22   S    
C112  O44   A    
O29   Zn10  S    
C39   H5    S    
C19   H63   S    
C69   C74   A    
C3    H30   S    
C35   C51   S    
C41   C63   S    
C16   C115  A    
C23   H73   S    
C116  O43   A    
C36   H97   S    
C111  C124  S    
C84   C88   A    
C120  O8    A    
O24   Zn5   S    
C117  O5    A    
C41   H11   S    
C119  O7    A    
C37   H107  S    
C66   C70   A    
C77   C82   S    
C31   H89   S    
C112  O40   A    
C43   H41   S    
C51   C55   D    
C121  O22   A    
C78   O19   A    
C92   N7    A    
C61   C65   A    
C7    C13   S    
C27   H78   S    
C132  H32   S    
C43   C47   D    
O34   Zn7   S    
C44   C48   D    
C45   H44   S    
C77   O14   A    
O47   Zn3   S    
C23   C76   S    
C101  F3    S    
O5    Zn4   S    
C38   H103  S    
C50   C120  S    
C64   C68   A    
C30   C48   S    
O9    Zn8   S    
C106  H20   S    
C43   C52   S    
C65   H65   S    
C22   H66   S    
C67   C72   A    
O17   Zn7   S    
C97   H16   S    
C42   H9    S    
O18   Zn8   S    
C20   H60   S    
C61   C87   A    
C79   O16   A    
C64   H54   S    
C9    H33   S    
O27   Zn8   S    
O8    Zn12  S    
C14   C93   A    
C8    H31   S    
C8    C12   A    
C12   H36   S    
C36   H99   S    
C31   H88   S    
C34   H101  S    
C17   C73   S    
O23   Zn6   S    
C52   H46   S    
C124  O30   A    
C95   C103  S    
C92   N4    A    
C56   H50   S    
C62   C66   A    
C2    N1    A    
C39   C40   S    
C125  O36   A    
C26   C46   S    
C129  O35   A    
C30   H91   S    
C2    C4    S    
C5    C9    A    
C67   H87   S    
C28   H84   S    
C6    C24   S    
C63   C89   A    
C17   C18   S    
C123  O29   A    
C33   H93   S    
C4    C134  A    
C5    C135  A    
C105  C109  D    
C26   H79   S    
C114  O46   A    
C107  C111  D    
N12   N13   A    
C28   H85   S    
N14   N15   A    
C21   C75   S    
O48   Zn3   S    
C22   H64   S    
N10   N11   A    
C13   N11   A    
C96   C100  D    
C24   N15   A    
O26   Zn7   S    
C123  O25   A    
O1    Zn1   S    
C66   H76   S    
C25   H70   S    
C116  O47   A    
O30   Zn11  S    
C31   H86   S    
C70   C75   A    
C99   F1    S    
C32   H95   S    
C118  O6    A    
N2    N6    A    
C83   C87   A    
C96   C105  S    
C120  O4    A    
C41   C42   S    
C108  C121  S    
C42   H8    S    
O35   Zn7   S    
C128  O33   A    
O36   Zn8   S    
O10   Zn9   S    
C29   H81   S    
C26   C27   S    
C71   O13   A    
O42   Zn3   S    
C21   H68   S    
C28   C29   S    
C70   C94   S    
C78   O15   A    
C57   H51   S    
C3    C7    A    
C106  C110  D    
C30   C31   S    
C72   C92   S    
C110  H25   S    
C58   C71   S    
O39   Zn11  S    
O12   Zn5   S    
O45   Zn12  S    
C76   C85   A    
C133  H43   S    
C47   C118  S    
C13   N14   A    
C4    C8    A    
C54   H48   S    
C27   H75   S    
C48   C119  S    
C108  H23   S    
C53   C57   D    
C57   C60   S    
C41   H10   S    
C115  C133  A    
C79   O20   A    
C37   H106  S    
C25   H72   S    
O20   Zn10  S    
C9    C14   A    
O6    Zn3   S    
C11   C16   A    
N3    N7    A    
C80   C115  S    
C59   C64   A    
C17   H58   S    
C102  F4    S    
C100  F2    S    
C97   C106  S    
C49   O10   A    
C100  C112  S    
C34   C59   S    
O7    Zn2   S    
C55   H49   S    
C29   H83   S    
C39   C62   S    
C18   H53   S    
C129  O39   A    
C85   C89   A    
C126  N9    A    
C18   H55   S    
C19   C74   S    
N1    N9    A    
C109  H24   S    
C6    C10   A    
C103  H18   S    
C38   H104  S    
C11   H35   S    
C60   O23   A    
C95   H14   S    
C32   C33   S    
C45   C50   D    
C105  H19   S    
C65   C69   A    
C39   H6    S    
C34   C36   S    
C21   H69   S    
C22   H67   S    
C1    C55   S    
C75   C84   A    
C59   C86   A    
O32   Zn5   S    
C96   H15   S    
C104  C132  A    
C101  C116  S    
C93   C131  A    
C35   C46   D    
C91   N16   A    
C127  O32   A    
C23   H74   S    
C36   H100  S    
C34   H102  S    
O2    Zn4   S    
C72   C76   A    
C94   N3    A    
C87   C127  S    
C7    C11   A    
C80   O21   A    
O19   Zn9   S    
O38   Zn10  S    
C131  C135  A    
C10   C15   A    
C109  C122  S    
C2    N13   A    
C131  H21   S    
C78   C93   S    
O22   Zn1   S    
C68   C91   S    
O11   Zn10  S    
C122  O24   A    
C6    C136  A    
O21   Zn11  S    
C128  O38   A    
C49   O12   A    
C113  O41   A    
C98   H17   S    
C103  C108  D    
C15   C104  A    
C82   C130  A    
C1    O9    A    
N4    N8    A    
C118  O2    A    
C86   C125  S    
O33   Zn6   S    
C40   H108  S    
C63   C67   A    
C26   H80   S    
O25   Zn6   S    
C68   C73   A    
C19   H62   S    
C3    C133  A    
C20   H59   S    
C51   H45   S    
C94   N8    A    
C119  O3    A    
C12   C82   A    
C111  H26   S    
C85   H13   S    
O40   Zn12  S    
C32   C50   S    
O44   Zn2   S    
C84   H12   S    
N5    N16   A    
C90   N5    A    
C45   C54   S    
C40   H4    S    
O37   Zn9   S    
C79   C104  S    
C40   H3    S    
C69   C90   S    
O3    Zn12  S    
C54   C58   D    
C35   H40   S    
C132  C136  A    
O16   Zn6   S    
C127  O37   A    
C83   H2    S    
C37   C61   S    
C27   H77   S    
C91   N6    A    
C49   C56   S    
C126  N12   A    
C30   H90   S    
C53   H47   S    
C71   O34   A    
C88   C128  S    
C58   H52   S    
C23   C25   S    
C14   H37   S    
O15   Zn5   S    
C1    O1    A    
C136  H29   S    
C15   H38   S    
C134  H27   S    
O43   Zn4   S    
C97   C101  D    
C33   H94   S    
C52   C56   D    
C98   C107  S    
