data_mof_unit_38954.cif
_audit_creation_date              2012-12-10T17:52:37-0500
_audit_creation_method            fapswitch 2.2
_symmetry_space_group_name_H-M    P1
_symmetry_Int_Tables_number       1
_space_group_crystal_system       triclinic
_cell_length_a                    14.778244
_cell_length_b                    15.04546
_cell_length_c                    23.387914
_cell_angle_alpha                 74.211814
_cell_angle_beta                  104.035156
_cell_angle_gamma                 116.147049
_cell_volume                      4446.44754574

loop_
_atom_site_label
_atom_site_type_symbol
_atom_type_description
_atom_site_fract_x
_atom_site_fract_y
_atom_site_fract_z
_atom_type_partial_charge
C1    C     C_R   0.878993 0.311860 0.509034 0.892448
C2    C     C_R   0.120639 0.687362 0.490781 0.898409
C3    C     C_R   0.012445 0.627875 0.730390 -0.070907
C4    C     C_R   0.899073 0.494441 0.226952 -0.059389
C5    C     C_R   0.012276 0.609123 0.675186 -0.194505
C6    C     C_R   0.905272 0.483104 0.288575 -0.201570
C7    C     C_R   0.010883 0.517089 0.670929 -0.168391
C8    C     C_R   0.999510 0.506666 0.325775 -0.194474
C9    C     C_R   0.014762 0.445347 0.724532 0.310031
C10   C     C_R   0.088434 0.534004 0.300049 0.381223
C11   C     C_R   0.039925 0.475896 0.780474 -0.089439
C12   C     C_R   0.078521 0.527757 0.239164 -0.099020
C13   C     C_R   0.023735 0.560563 0.783368 0.204370
C14   C     C_R   0.985047 0.518053 0.201367 0.175268
C15   C     C_R   0.810341 0.203244 0.509418 -0.149412
C16   C     C_R   0.190918 0.794234 0.478578 -0.129078
C17   C     C_R   0.794466 0.031306 0.516197 0.008679
C18   C     C_R   0.223961 0.962105 0.419110 -0.003351
C19   C     C_R   0.854153 0.134737 0.514594 -0.287988
C20   C     C_R   0.155822 0.865042 0.440471 -0.208282
C21   C     C_R   0.702527 0.167384 0.499901 0.387940
C22   C     C_R   0.294880 0.824831 0.502032 0.230128
C23   C     C_R   0.000686 0.499910 0.609540 0.888940
C24   C     C_R   0.000689 0.502611 0.390280 0.872582
C25   C     C_R   0.643602 0.067693 0.490127 -0.042027
C26   C     C_R   0.365959 0.912989 0.470610 0.008296
C27   C     C_R   0.686823 0.995553 0.510597 -0.028684
C28   C     C_R   0.329777 0.983278 0.428246 0.000924
C29   C     C_R   0.540008 0.036360 0.465241 0.108130
C30   C     C_R   0.472450 0.936533 0.482231 0.086732
C31   C     C_R   0.513969 0.864315 0.509077 -0.176631
C32   C     C_R   0.504861 0.101074 0.419838 -0.178160
C33   C     C_R   0.619756 0.892093 0.524648 -0.011690
C34   C     C_R   0.401376 0.072699 0.397958 -0.016380
C35   C     C_R   0.723117 0.681501 0.408247 -0.318468
C36   C     C_R   0.274922 0.315659 0.585533 -0.290156
C37   C     C_R   0.794809 0.641263 0.414979 0.565291
C38   C     C_R   0.203315 0.354330 0.581038 0.510584
C39   C     C_R   0.720147 0.516909 0.497093 0.012532
C40   C     C_R   0.287200 0.494797 0.508653 -0.000567
C41   C     C_R   0.635909 0.545507 0.484078 -0.029587
C42   C     C_R   0.370812 0.465705 0.519562 0.007405
C43   C     C_R   0.642611 0.633061 0.440912 0.091192
C44   C     C_R   0.360446 0.372415 0.557697 0.069032
C45   C     C_R   0.029612 0.624028 0.105031 0.666735
C46   C     C_R   0.921443 0.493013 0.863632 0.631862
C47   C     C_R   0.544518 0.489390 0.510498 0.061072
C48   C     C_R   0.463505 0.524270 0.494428 0.133470
C49   C     C_R   0.478130 0.616113 0.453934 -0.126418
C50   C     C_R   0.529411 0.396776 0.549883 -0.192237
C51   C     C_R   0.566095 0.669187 0.427605 -0.099770
C52   C     C_R   0.438335 0.338467 0.571851 -0.087980
C53   C     C_R   0.913330 0.452118 0.108781 0.608824
C54   C     C_R   0.066516 0.648956 0.866108 0.643745
C55   C     C_R   0.902763 0.463942 0.045525 -0.130336
C56   C     C_R   0.051357 0.652290 0.923189 -0.134484
C57   C     C_R   0.970408 0.555075 0.014103 -0.054928
C58   C     C_R   0.977123 0.564990 0.953161 -0.042707
C59   C     C_R   0.032882 0.635769 0.043890 -0.066163
C60   C     C_R   0.910644 0.486341 0.922605 -0.053489
C61   C     C_R   0.830600 0.388598 0.012435 0.418592
C62   C     C_R   0.108695 0.736070 0.952816 0.408559
C63   C     C_R   0.836189 0.401200 0.951695 -0.172011
C64   C     C_R   0.098414 0.726052 0.012552 -0.162967
Cu1   Cu    Cu3+1 0.081740 0.475680 0.515360 1.080219
Cu2   Cu    Cu3+1 0.918260 0.524320 0.484640 1.062405
H1    H     H_    0.464251 0.785597 0.516915 0.180181
H2    H     H_    0.559600 0.171543 0.398767 0.190735
H3    H     H_    0.573041 0.738038 0.395139 0.153631
H4    H     H_    0.429992 0.267046 0.601846 0.190514
H5    H     H_    0.287381 0.562473 0.478114 0.181341
H6    H     H_    0.727239 0.460256 0.535054 0.190602
H7    H     H_    0.724024 0.746047 0.373319 0.212012
H8    H     H_    0.270364 0.245942 0.616354 0.202518
H9    H     H_    0.422283 0.648354 0.440844 0.146752
H10   H     H_    0.586274 0.366336 0.564118 0.211241
H11   H     H_    0.783289 0.342386 0.927190 0.235546
H12   H     H_    0.144135 0.788846 0.035392 0.233157
H13   H     H_    0.002092 0.694075 0.731881 0.189519
H14   H     H_    0.826219 0.482597 0.198916 0.192504
H15   H     H_    0.006690 0.664200 0.635033 0.185439
H16   H     H_    0.835726 0.457866 0.307095 0.218569
H17   H     H_    0.074740 0.846064 0.429529 0.227018
H18   H     H_    0.935930 0.161991 0.517065 0.198338
N1    N     N_R   0.975995 0.531508 0.136956 -0.462410
N2    N     N_R   0.002982 0.569190 0.838442 -0.456878
N3    N     N_R   0.795430 0.560810 0.461550 -0.230901
N4    N     N_R   0.204570 0.439190 0.538450 -0.242597
O1    O     O_R   0.977900 0.338110 0.520250 -0.574390
O2    O     O_R   0.022100 0.661890 0.479750 -0.560498
O3    O     O_R   0.839850 0.379180 0.494310 -0.515620
O4    O     O_R   0.160150 0.620820 0.505690 -0.596664
O5    O     O_R   0.069020 0.479430 0.595090 -0.485505
O6    O     O_R   0.930980 0.520570 0.404910 -0.525390
O7    O     O_R   0.930970 0.520500 0.569150 -0.619409
O8    O     O_R   0.069030 0.479500 0.430850 -0.539900
O9    O     O_2   0.082832 0.703396 0.133063 -0.471830
O10   O     O_2   0.853489 0.421366 0.832395 -0.485788
O11   O     O_2   0.865502 0.361715 0.142514 -0.438393
O12   O     O_2   0.146112 0.721163 0.839583 -0.419103
S1    S     S_3+6 0.727774 0.280597 0.042474 0.094623
O13   O     O_2   0.676888 0.310830 0.077778 -0.226638
O14   O     O_2   0.650377 0.232143 0.992990 -0.238756
O15   O     O_3   0.772637 0.196435 0.087554 -0.445357
H19   H     H_    0.712994 0.141302 0.105210 0.395435
S2    S     S_3+6 0.189730 0.856766 0.917461 0.104293
O16   O     O_2   0.136387 0.887558 0.856986 -0.208264
O17   O     O_2   0.217523 0.934507 0.954866 -0.237171
O18   O     O_3   0.297060 0.851482 0.909156 -0.438145
H20   H     H_    0.335800 0.918908 0.886455 0.402494
C65   C     C_2   0.846104 0.967078 0.514248 0.901967
O19   O     O_2   0.932704 0.983401 0.540362 -0.554406
O20   O     O_R   0.797163 0.890163 0.480742 -0.775892
H21   H     H_    0.840288 0.852180 0.482650 0.339863
C66   C     C_2   0.182308 0.040527 0.393573 0.899263
O21   O     O_2   0.099223 0.020002 0.362066 -0.521908
O22   O     O_R   0.236109 0.136718 0.407783 -0.738484
H22   H     H_    0.199557 0.183156 0.388250 0.359761
S3    S     S_3+6 0.138441 0.307534 0.644364 0.102489
O23   O     O_2   0.170626 0.229214 0.688195 -0.249241
O24   O     O_2   0.167770 0.392617 0.676203 -0.199705
O25   O     O_3   0.011853 0.253671 0.626061 -0.448317
H23   H     H_    0.996155 0.182559 0.625966 0.370150
S4    S     S_3+6 0.862241 0.685948 0.351847 0.050056
O26   O     O_2   0.810222 0.608081 0.312698 -0.286216
O27   O     O_2   0.853594 0.782111 0.316039 -0.254631
O28   O     O_3   0.986797 0.710305 0.366906 -0.527957
H24   H     H_    0.009131 0.726485 0.327288 0.387654
S5    S     S_3+6 0.941836 0.314350 0.725510 0.125626
O29   O     O_2   0.008419 0.256978 0.741240 -0.091961
O30   O     O_2   0.872485 0.273416 0.772531 -0.222548
O31   O     O_3   0.869520 0.294953 0.659189 -0.464632
H25   H     H_    0.823921 0.329199 0.655322 0.360277
S6    S     S_3+6 0.212641 0.588703 0.339749 0.009080
O32   O     O_2   0.213554 0.651889 0.379994 -0.340773
O33   O     O_2   0.243752 0.505193 0.376357 -0.289215
O34   O     O_3   0.296950 0.663338 0.291785 -0.486662
H26   H     H_    0.364296 0.682799 0.317242 0.370604
C67   C     C_2   0.082192 0.419122 0.835101 0.958412
O35   O     O_2   0.085699 0.431134 0.885343 -0.571704
O36   O     O_R   0.125048 0.356658 0.828751 -0.652296
H27   H     H_    0.152897 0.323743 0.868674 0.370584
C68   C     C_2   0.161251 0.519589 0.217657 0.984646
O37   O     O_2   0.182350 0.559390 0.166935 -0.554025
O38   O     O_R   0.214212 0.463543 0.255939 -0.687771
H28   H     H_    0.268459 0.462884 0.236756 0.359351
C69   C     C_2   0.653891 0.814297 0.565387 0.939642
O39   O     O_2   0.726051 0.837868 0.605228 -0.546334
O40   O     O_R   0.599489 0.712921 0.560780 -0.764543
H29   H     H_    0.629234 0.667059 0.591396 0.346426
C70   C     C_2   0.372990 0.133039 0.340475 0.887582
O41   O     O_2   0.419927 0.224622 0.329620 -0.542703
O42   O     O_R   0.295122 0.084641 0.297676 -0.723767
H30   H     H_    0.283333 0.133643 0.260261 0.366470
S7    S     S_3+6 0.325264 0.782641 0.580869 0.063654
O43   O     O_2   0.409794 0.869005 0.607192 -0.178061
O44   O     O_2   0.233479 0.748593 0.611157 -0.266428
O45   O     O_3   0.362220 0.686583 0.596520 -0.468330
H31   H     H_    0.330576 0.651694 0.562141 0.328097
S8    S     S_3+6 0.639670 0.233162 0.516462 -0.000560
O46   O     O_2   0.535989 0.162369 0.533373 -0.266541
O47   O     O_2   0.701019 0.282601 0.568826 -0.309096
O48   O     O_3   0.628062 0.320812 0.456037 -0.548328
H32   H     H_    0.558066 0.316465 0.452211 0.380553

loop_
_geom_bond_atom_site_label_1
_geom_bond_atom_site_label_2
_ccdc_geom_bond_type
Cu1   O4    S    
S1    O13   D    
C6    H16   S    
C40   H5    S    
S7    O44   D    
O22   H22   S    
C11   C13   A    
C61   S1    S    
O48   H32   S    
C39   N3    A    
C3    H13   S    
S6    O34   S    
O38   H28   S    
C39   C41   A    
C53   O11   S    
Cu1   O1    S    
C59   C64   A    
C60   C63   A    
S4    O27   D    
C69   O40   S    
C4    H14   S    
C29   C32   A    
C24   O6    A    
C24   O8    A    
C30   C31   A    
C57   C59   A    
S2    O16   D    
C16   C22   A    
C58   C60   A    
C66   O21   D    
C2    O2    A    
C61   C63   A    
C11   C67   S    
C62   C64   A    
C33   C69   S    
C17   C19   A    
C15   C19   A    
Cu1   O8    S    
C45   C59   A    
O42   H30   S    
C69   O39   D    
C23   O7    A    
O31   H25   S    
C66   O22   S    
C13   N2    S    
C50   C52   A    
C39   H6    S    
C49   H9    S    
C1    C15   S    
C35   C43   A    
C3    C13   A    
C32   H2    S    
S5    O31   S    
C46   C60   A    
C44   C52   A    
C53   C55   A    
C46   O10   S    
C70   O41   D    
C28   C34   A    
S1    O14   D    
S7    O45   S    
C41   C43   A    
C54   O12   S    
C42   C44   A    
C17   C65   S    
O15   H19   S    
C47   C50   A    
C22   S7    S    
S3    O24   D    
C25   C29   A    
C54   C56   A    
C17   C27   A    
S8    O48   S    
C18   C28   A    
C4    C6    A    
Cu2   N3    S    
C54   N2    A    
C6    C8    A    
C49   C51   A    
C27   C33   A    
C23   O5    A    
C38   N4    A    
S8    O47   D    
C45   N1    A    
C29   C30   A    
C50   H10   S    
C37   S4    S    
C5    H15   S    
C47   C48   A    
C16   C20   A    
C31   C33   A    
C41   C47   A    
C65   O20   S    
C42   C48   A    
S3    O23   D    
C2    O4    A    
C9    C11   A    
S6    O32   D    
C10   C12   A    
S4    O28   S    
C38   S3    S    
C34   C70   S    
C48   C49   A    
Cu2   O2    S    
C12   C14   A    
C26   C30   A    
S1    O15   S    
C55   C57   A    
C22   C26   A    
O45   H31   S    
C21   S8    S    
C56   C62   A    
C36   C44   A    
O28   H24   S    
C2    C16   S    
Cu1   N4    S    
C5    C7    A    
O20   H21   S    
C63   H11   S    
S3    O25   S    
C68   O38   S    
C21   C25   A    
C35   H7    S    
C1    O1    A    
C65   O19   D    
C35   C37   A    
C64   H12   S    
C37   N3    A    
C10   S6    S    
C14   N1    S    
C3    C5    A    
C18   C66   S    
S6    O33   D    
C67   O35   D    
Cu2   O3    S    
C62   S2    S    
C9    S5    S    
C25   C27   A    
O34   H26   S    
C26   C28   A    
C12   C68   S    
Cu2   O6    S    
S8    O46   D    
C40   N4    A    
C36   C38   A    
C68   O37   D    
S5    O29   D    
C45   O9    S    
O40   H29   S    
C67   O36   S    
C43   C51   A    
C57   C58   A    
S2    O17   D    
C7    C23   S    
C55   C61   A    
C40   C42   A    
Cu1   O5    S    
C8    C24   S    
C56   C58   A    
C18   C20   A    
C70   O42   S    
C4    C14   A    
C52   H4    S    
C31   H1    S    
C7    C9    A    
C15   C21   A    
C8    C10   A    
Cu1   Cu2   S    
C1    O3    A    
C20   H17   S    
O18   H20   S    
S7    O43   D    
S4    O26   D    
C53   N1    A    
C51   H3    S    
S5    O30   D    
O25   H23   S    
O36   H27   S    
C36   H8    S    
C19   H18   S    
C32   C34   A    
Cu2   O7    S    
C46   N2    A    
S2    O18   S    
