data_mof_unit_52082.cif
_audit_creation_date              2012-12-11T14:15:46-0500
_audit_creation_method            fapswitch 2.2
_symmetry_space_group_name_H-M    P1
_symmetry_Int_Tables_number       1
_space_group_crystal_system       triclinic
_cell_length_a                    11.171792
_cell_length_b                    12.7057
_cell_length_c                    23.555367
_cell_angle_alpha                 90.500873
_cell_angle_beta                  96.312803
_cell_angle_gamma                 68.151615
_cell_volume                      3082.71922204

loop_
_atom_site_label
_atom_site_type_symbol
_atom_type_description
_atom_site_fract_x
_atom_site_fract_y
_atom_site_fract_z
_atom_type_partial_charge
C1    C     C_R   0.149776 0.616828 0.428867 0.555218
C2    C     C_2   0.178865 0.233100 0.226459 -0.118750
C3    C     C_2   0.158517 0.163494 0.263460 -0.097054
C4    C     C_R   0.750743 0.603800 0.403817 0.542502
C5    C     C_1   0.135104 0.197556 0.321111 -0.028648
C6    C     C_1   0.208529 0.197534 0.169606 -0.020612
C7    C     C_1   0.118078 0.231297 0.368743 0.010454
C8    C     C_1   0.167353 0.749221 0.123568 0.045686
C9    C     C_2   0.151866 0.680914 0.227851 -0.089191
C10   C     C_2   0.231008 0.691604 0.273117 0.242554
C11   C     C_1   0.216096 0.659485 0.329912 -0.005377
C12   C     C_R   0.663534 0.557443 0.310882 -0.075585
C13   C     C_1   0.157910 0.717753 0.170570 0.031594
C14   C     C_1   0.194366 0.636807 0.376477 -0.011563
C15   C     C_1   0.625697 0.756042 0.864137 0.033495
C16   C     C_R   0.101747 0.282248 0.423449 0.548558
C17   C     C_2   0.694951 0.709191 0.760080 -0.087003
C18   C     C_2   0.608300 0.699883 0.718155 -0.096871
C19   C     C_1   0.646435 0.667538 0.662038 -0.012058
C20   C     C_1   0.659813 0.735821 0.817064 -0.011036
C21   C     C_1   0.686633 0.639147 0.616578 0.027550
C22   C     C_R   0.206915 0.176561 0.852687 -0.018102
C23   C     C_R   0.721339 0.724337 0.317343 -0.101318
C24   C     C_R   0.109998 0.223494 0.640159 -0.000275
C25   C     C_R   0.002122 0.187061 0.717006 -0.086224
C26   C     C_R   0.003313 0.206698 0.659013 -0.104009
C27   C     C_R   0.217613 0.213906 0.678777 -0.102558
C28   C     C_R   0.106190 0.595747 0.595164 0.558286
C29   C     C_R   0.212533 0.205419 0.736716 0.046101
C30   C     C_R   0.104878 0.188975 0.756294 0.024156
C31   C     C_R   0.104458 0.171301 0.814598 -0.122231
C32   C     C_R   0.300572 0.212451 0.833131 -0.095061
C33   C     C_R   0.310206 0.217960 0.775592 0.066034
C34   C     C_R   0.711701 0.732044 0.257889 0.013208
C35   C     C_R   0.109123 0.740184 0.859643 -0.029030
C36   C     C_R   0.125013 0.611723 0.656853 -0.003308
C37   C     C_R   0.251587 0.543798 0.748248 -0.128272
C38   C     C_R   0.231073 0.531753 0.689992 -0.146544
C39   C     C_R   0.035761 0.706054 0.683170 0.106620
C40   C     C_R   0.748677 0.602518 0.565742 0.547416
C41   C     C_R   0.060358 0.720485 0.742091 0.025862
C42   C     C_R   0.167140 0.636097 0.774513 -0.021756
C43   C     C_R   0.193773 0.649186 0.832649 -0.164075
C44   C     C_R   0.989766 0.809635 0.829854 0.114878
C45   C     C_R   0.684583 0.647946 0.225706 0.047177
C46   C     C_R   0.979839 0.814280 0.770847 0.248572
C47   C     C_R   0.265314 0.110061 0.069403 0.542005
C48   C     C_R   0.601255 0.774204 0.080947 0.570831
C49   C     C_R   0.189292 0.787644 0.069765 0.549362
C50   C     C_R   0.241641 0.115442 0.907691 0.539466
C51   C     C_R   0.573225 0.776357 0.917905 0.551476
C52   C     C_R   0.100115 0.277900 0.584851 0.537551
C53   C     C_R   0.159684 0.783594 0.910223 0.559937
C54   C     C_R   0.672510 0.751270 0.138598 0.020208
C55   C     C_R   0.701578 0.634546 0.344008 0.034735
C56   C     C_R   0.676192 0.653480 0.167010 -0.149307
C57   C     C_R   0.658392 0.562393 0.252151 -0.082778
C58   C     C_R   0.707526 0.832743 0.170139 0.226086
C59   C     C_R   0.729767 0.821028 0.229851 -0.094973
C60   C     C_1   0.234289 0.162600 0.122893 0.027874
Cl1   Cl    Cl    0.721267 0.951290 0.137509 -0.568152
Cl2   Cl    Cl    0.910890 0.954029 0.740821 -0.546790
Cl3   Cl    Cl    0.345294 0.754611 0.266162 -0.609797
Cr1   Cr    Cr6+3 0.189770 0.415650 0.511620 1.048418
Cr2   Cr    Cr6+3 0.930400 0.667320 0.496770 1.066561
Cr3   Cr    Cr6+3 0.879870 0.417010 0.491650 1.036316
Cr4   Cr    Cr6+3 0.149500 0.973980 0.985330 1.083617
Cr5   Cr    Cr6+3 0.457000 0.976510 0.994660 1.115407
Cr6   Cr    Cr6+3 0.411170 0.724270 0.995270 1.035907
H1    H     H_    0.656140 0.586776 0.143652 0.145919
H2    H     H_    0.283795 0.592640 0.855977 0.143125
H3    H     H_    0.334736 0.481453 0.772979 0.153821
H4    H     H_    0.298603 0.459151 0.670863 0.165886
H5    H     H_    0.633751 0.499400 0.227445 0.120463
H6    H     H_    0.754452 0.884293 0.254258 0.147790
H7    H     H_    0.646581 0.488087 0.330367 0.144235
H8    H     H_    0.750063 0.784556 0.342618 0.128968
H9    H     H_    0.162308 0.079849 0.251029 0.177105
H10   H     H_    0.175923 0.316410 0.239098 0.130750
H11   H     H_    0.079681 0.644822 0.233777 0.082479
H12   H     H_    0.509544 0.714216 0.726097 0.144947
H13   H     H_    0.794006 0.693550 0.752200 0.145176
H14   H     H_    0.030322 0.146195 0.829630 0.164612
H15   H     H_    0.377998 0.220955 0.862468 0.169677
H16   H     H_    0.918311 0.176621 0.731381 0.190539
H17   H     H_    0.918756 0.214341 0.629522 0.156826
H18   H     H_    0.300079 0.225378 0.663855 0.175585
I1    I     I_    0.483660 0.231838 0.752870 -0.366174
I2    I     I_    0.829011 0.922100 0.870677 -0.228085
I3    I     I_    0.852051 0.816309 0.637901 -0.216933
O1    O     O_R   0.196340 0.303200 0.448500 -0.498580
O2    O     O_R   0.555390 0.700940 0.062700 -0.531149
O3    O     O_R   0.295020 0.731920 0.049950 -0.501029
O4    O     O_R   0.199310 0.519670 0.454880 -0.486759
O5    O     O_R   0.094290 0.884230 0.921550 -0.472822
O6    O     O_R   0.168980 0.069410 0.926940 -0.494103
O7    O     O_R   0.358400 0.089990 0.927950 -0.511256
O8    O     O_R   0.544850 0.873850 0.939920 -0.471397
O9    O     O_R   0.536020 0.701900 0.936430 -0.514964
O10   O     O_R   0.277070 0.732810 0.932890 -0.509469
O11   O     O_3   0.339220 0.891590 0.991750 -0.269022
O12   O     O_R   0.811960 0.658090 0.547150 -0.487656
O13   O     O_R   0.045660 0.691380 0.441680 -0.500510
O14   O     O_R   0.811930 0.659460 0.430950 -0.504425
O15   O     O_R   0.757900 0.507620 0.421760 -0.516633
O16   O     O_R   0.988630 0.322990 0.439840 -0.493014
O17   O     O_R   0.196380 0.301720 0.573850 -0.522101
O18   O     O_R   0.199350 0.518300 0.571080 -0.498448
O19   O     O_R   0.045700 0.689900 0.567030 -0.467322
O20   O     O_R   0.757930 0.506140 0.547110 -0.505721
O21   O     O_R   0.988670 0.321620 0.556040 -0.501740
O22   O     O_3   0.000020 0.499990 0.500010 -0.282278
O23   O     O_R   0.113660 0.883270 0.047820 -0.482623
O24   O     O_R   0.186930 0.068530 0.043990 -0.498555
O25   O     O_R   0.377770 0.089040 0.054220 -0.473917
O26   O     O_R   0.562800 0.872960 0.056970 -0.434590

loop_
_geom_bond_atom_site_label_1
_geom_bond_atom_site_label_2
_ccdc_geom_bond_type
C24   C52   S    
C47   O24   A    
C49   O23   A    
C8    C13   T    
C35   C53   S    
C41   C42   A    
C10   Cl3   S    
C24   C27   A    
C18   H12   S    
C39   C41   A    
C48   C54   S    
C45   C57   A    
C37   C38   A    
C22   C32   A    
C46   Cl2   S    
C19   C21   T    
Cr4   O24   S    
C24   C26   A    
C18   C19   S    
Cr6   O3    S    
C30   C31   A    
C11   C14   T    
Cr1   O22   S    
C53   O5    A    
C29   C33   A    
C17   C20   S    
C31   H14   S    
C27   C29   A    
C17   H13   S    
C37   C42   A    
C9    C13   S    
Cr5   O7    S    
C2    H10   S    
C47   C60   S    
C52   O17   A    
C1    O4    A    
C41   C46   A    
C15   C51   S    
Cr3   O21   S    
Cr6   O2    S    
C35   C43   A    
C9    C10   D    
C1    O13   A    
C39   I3    S    
C16   O16   A    
C48   O26   A    
C51   O8    A    
Cr4   O5    S    
C2    C6    S    
Cr2   O12   S    
Cr3   O16   S    
C44   C46   A    
Cr1   O18   S    
C53   O10   A    
C51   O9    A    
C15   C20   T    
C32   H15   S    
C54   C56   A    
C22   C31   A    
C6    C60   T    
Cr5   O11   S    
C45   C56   A    
C5    C7    T    
C40   O20   A    
C52   O21   A    
C25   C26   A    
C23   H8    S    
C9    H11   S    
C57   H5    S    
C47   O25   A    
Cr2   O22   S    
C29   C30   A    
C26   H17   S    
C23   C34   A    
C25   H16   S    
C17   C18   D    
C34   C45   A    
Cr3   O20   S    
C27   H18   S    
C35   C44   A    
Cr2   O19   S    
Cr5   O26   S    
C12   C57   A    
Cr6   O9    S    
C7    C16   S    
C56   H1    S    
C12   H7    S    
C4    C55   S    
Cr4   O6    S    
C42   C43   A    
Cr2   O13   S    
Cr3   O15   S    
C59   H6    S    
Cr4   O11   S    
Cr1   O17   S    
C54   C58   A    
C25   C30   A    
C50   O7    A    
C43   H2    S    
C33   I1    S    
C36   C39   A    
C3    C5    S    
C23   C55   A    
Cr6   O11   S    
C28   O19   A    
C4    O15   A    
Cr1   O1    S    
C22   C50   S    
C49   O3    A    
C32   C33   A    
C36   C38   A    
C2    C3    D    
C58   C59   A    
Cr1   O4    S    
C50   O6    A    
C34   C59   A    
C21   C40   S    
C58   Cl1   S    
C4    O14   A    
Cr4   O23   S    
C28   O18   A    
Cr5   O8    S    
C12   C55   A    
C10   C11   S    
Cr5   O25   S    
C40   O12   A    
Cr6   O10   S    
C28   C36   S    
C16   O1    A    
C48   O2    A    
C37   H3    S    
C1    C14   S    
Cr2   O14   S    
Cr3   O22   S    
C3    H9    S    
C8    C49   S    
C44   I2    S    
C38   H4    S    
