data_mof_unit_34243.cif
_audit_creation_date              2012-10-26T21:09:11-0400
_audit_creation_method            fapswitch 2.2
_symmetry_space_group_name_H-M    P1
_symmetry_Int_Tables_number       1
_space_group_crystal_system       triclinic
_cell_length_a                    15.410235
_cell_length_b                    15.518258
_cell_length_c                    9.713606
_cell_angle_alpha                 90.0055
_cell_angle_beta                  90.425696
_cell_angle_gamma                 90.005157
_cell_volume                      2322.84762929

loop_
_atom_site_label
_atom_site_type_symbol
_atom_type_description
_atom_site_fract_x
_atom_site_fract_y
_atom_site_fract_z
_atom_type_partial_charge
C1    C     C_R   0.382037 0.883379 0.499794 0.554411
C2    C     C_2   0.716472 0.215986 0.387182 -0.157876
C3    C     C_2   0.216482 0.284016 0.387198 -0.159310
C4    C     C_2   0.216475 0.715983 0.387184 -0.157699
C5    C     C_2   0.680047 0.813459 0.502789 -0.118846
C6    C     C_2   0.687636 0.179034 0.502948 -0.117479
C7    C     C_2   0.187585 0.320927 0.502958 -0.118677
C8    C     C_2   0.187639 0.679032 0.502950 -0.117542
C9    C     C_2   0.286064 0.219590 0.386991 -0.161007
C10   C     C_2   0.286060 0.780414 0.386949 -0.160844
C11   C     C_2   0.782435 0.716052 0.386779 -0.160576
C12   C     C_R   0.382041 0.116625 0.499804 0.554643
C13   C     C_2   0.786056 0.280419 0.386947 -0.161021
C14   C     C_2   0.313138 0.179748 0.501817 -0.116307
C15   C     C_2   0.313140 0.820250 0.501786 -0.115782
C16   C     C_2   0.820884 0.687328 0.502031 -0.116385
C17   C     C_2   0.813140 0.320251 0.501785 -0.115679
C18   C     C_2   0.429516 0.000616 0.922338 0.079204
C19   C     C_2   0.929517 0.500642 0.922339 0.079111
C20   C     C_2   0.430756 0.986066 0.076575 0.017138
C21   C     C_2   0.930749 0.486101 0.076576 0.016716
C22   C     C_3   0.642015 0.006692 0.884899 0.061472
C23   C     C_R   0.882038 0.383380 0.499794 0.556091
C24   C     C_3   0.712698 0.974799 0.983974 -0.296392
C25   C     C_3   0.795755 0.027547 0.969968 -0.491648
C26   C     C_3   0.142020 0.506643 0.884863 0.060982
C27   C     C_3   0.212722 0.474690 0.983850 -0.296182
C28   C     C_3   0.295815 0.527371 0.969745 -0.491658
C29   C     C_R   0.883538 0.618089 0.499831 0.555114
C30   C     C_R   0.618267 0.116334 0.500361 0.549244
C31   C     C_R   0.616761 0.882174 0.500330 0.549049
C32   C     C_R   0.118269 0.616335 0.500361 0.547582
C33   C     C_R   0.118248 0.383649 0.500357 0.549312
C34   C     C_2   0.718237 0.785774 0.387336 -0.159377
Cu1   Cu    Cu3+1 0.500020 0.000000 0.638630 0.975508
Cu2   Cu    Cu3+1 0.000020 0.500000 0.638630 0.975813
Cu3   Cu    Cu3+1 0.499980 0.000000 0.361370 0.933089
Cu4   Cu    Cu3+1 0.999980 0.500000 0.361370 0.932966
H1    H     H_    0.701151 0.813864 0.288323 0.153212
H2    H     H_    0.314524 0.796217 0.288113 0.146504
H3    H     H_    0.799051 0.688682 0.287456 0.147049
H4    H     H_    0.814515 0.296224 0.288110 0.146326
H5    H     H_    0.284143 0.191433 0.601152 0.099948
H6    H     H_    0.284149 0.808556 0.601120 0.099689
H7    H     H_    0.808542 0.715287 0.601987 0.098964
H8    H     H_    0.784153 0.308553 0.601120 0.099748
H9    H     H_    0.370928 0.966131 0.125254 0.114988
H10   H     H_    0.870909 0.466208 0.125260 0.114396
H11   H     H_    0.548267 0.034135 0.109315 0.236133
H12   H     H_    0.689256 0.197941 0.287781 0.144066
H13   H     H_    0.048297 0.534092 0.109314 0.236297
H14   H     H_    0.367209 0.011967 0.872971 0.075776
H15   H     H_    0.867214 0.512015 0.872973 0.076356
H16   H     H_    0.629752 0.076401 0.905146 0.112400
H17   H     H_    0.666978 0.998664 0.779304 0.188409
H18   H     H_    0.689817 0.979306 0.091903 0.172800
H19   H     H_    0.727236 0.906055 0.961606 0.169954
H20   H     H_    0.821036 0.022835 0.863422 0.147525
H21   H     H_    0.845803 0.002455 0.042360 0.156887
H22   H     H_    0.783153 0.096243 0.995081 0.146815
H23   H     H_    0.189333 0.302107 0.287778 0.155008
H24   H     H_    0.129796 0.576351 0.905171 0.112507
H25   H     H_    0.166950 0.498636 0.779247 0.187468
H26   H     H_    0.189890 0.479213 0.091805 0.173775
H27   H     H_    0.227193 0.405936 0.961452 0.169929
H28   H     H_    0.321044 0.522632 0.863170 0.147096
H29   H     H_    0.345875 0.502241 0.042083 0.157121
H30   H     H_    0.283280 0.596078 0.994863 0.146855
H31   H     H_    0.189259 0.697939 0.287783 0.144282
H32   H     H_    0.692910 0.785009 0.602511 0.104856
H33   H     H_    0.715593 0.192589 0.603111 0.093217
H34   H     H_    0.215470 0.307317 0.603143 0.101272
H35   H     H_    0.215597 0.692586 0.603112 0.093211
H36   H     H_    0.314550 0.203809 0.288166 0.147145
N1    N     N_2   0.498660 0.000000 0.846910 -0.058932
N2    N     N_2   0.998660 0.500000 0.846910 -0.058929
N3    N     N_2   0.498630 0.000000 0.153040 -0.329823
N4    N     N_2   0.998630 0.500000 0.153040 -0.329776
O1    O     O_R   0.410990 0.910970 0.617040 -0.496721
O2    O     O_R   0.589050 0.910970 0.617100 -0.483535
O3    O     O_R   0.089050 0.589030 0.617100 -0.531255
O4    O     O_R   0.089050 0.410970 0.617100 -0.482665
O5    O     O_R   0.589010 0.089030 0.382960 -0.506729
O6    O     O_R   0.589010 0.910970 0.382960 -0.489890
O7    O     O_R   0.089010 0.589030 0.382960 -0.506887
O8    O     O_R   0.089010 0.410970 0.382960 -0.490306
O9    O     O_3   0.566297 0.956984 0.903785 -0.480359
O10   O     O_3   0.066286 0.456965 0.903781 -0.480222
O11   O     O_R   0.410990 0.089030 0.617040 -0.515431
O12   O     O_R   0.910990 0.410970 0.617040 -0.495358
O13   O     O_R   0.910990 0.589030 0.617040 -0.515736
O14   O     O_R   0.410950 0.910970 0.382900 -0.497624
O15   O     O_R   0.410950 0.089030 0.382900 -0.498765
O16   O     O_R   0.910950 0.410970 0.382900 -0.497424
O17   O     O_R   0.910950 0.589030 0.382900 -0.498841
O18   O     O_R   0.589050 0.089030 0.617100 -0.529935

loop_
_geom_bond_atom_site_label_1
_geom_bond_atom_site_label_2
_ccdc_geom_bond_type
C18   N1    D    
C26   H25   S    
C18   H14   S    
C31   O2    A    
C22   H16   S    
Cu1   O18   S    
C32   O3    A    
Cu1   N1    S    
C26   C27   S    
C17   C23   S    
C20   N3    D    
Cu4   O8    S    
C3    C9    S    
C19   N2    D    
Cu1   Cu3   S    
C15   H6    S    
C3    C7    D    
C10   C15   D    
Cu1   O2    S    
C10   H2    S    
C30   O5    A    
C2    C13   S    
C4    H31   S    
C30   O18   A    
Cu2   N2    S    
Cu2   O4    S    
C24   H19   S    
C21   N4    D    
Cu3   O6    S    
C1    C15   S    
C25   H22   S    
C2    H12   S    
C33   O4    A    
N2    O10   S    
C4    C8    D    
C21   H10   S    
C19   H15   S    
C7    C33   S    
C2    C6    D    
C13   H4    S    
C3    H23   S    
C6    H33   S    
Cu4   O7    S    
C34   H1    S    
C8    C32   S    
C12   O11   A    
C28   H29   S    
C17   H8    S    
C7    H34   S    
C29   O17   A    
Cu4   N4    S    
C16   C29   S    
Cu3   N3    S    
C31   O6    A    
Cu4   O17   S    
C28   H28   S    
C9    C14   D    
C5    H32   S    
C27   H27   S    
C11   C16   D    
Cu2   O3    S    
C5    C34   D    
Cu4   O16   S    
C23   O12   A    
Cu3   O15   S    
C22   O9    S    
C24   C25   S    
Cu1   O11   S    
Cu2   O13   S    
N1    O9    S    
C6    C30   S    
C12   C14   S    
C1    O14   A    
C1    O1    A    
C22   C24   S    
C12   O15   A    
C25   H20   S    
C4    C10   S    
C29   O13   A    
Cu2   O12   S    
Cu3   O14   S    
C19   C21   S    
C11   C34   S    
C28   H30   S    
C16   H7    S    
C22   H17   S    
C24   H18   S    
C23   O16   A    
C13   C17   D    
Cu2   Cu4   S    
C26   H24   S    
H13   N4    S    
C32   O7    A    
Cu1   O1    S    
C8    H35   S    
H11   N3    S    
C11   H3    S    
C18   C20   S    
C20   H9    S    
C27   H26   S    
C26   O10   S    
C9    H36   S    
C27   C28   S    
Cu3   O5    S    
C25   H21   S    
C33   O8    A    
C14   H5    S    
C5    C31   S    
