data_mof_unit_45372.cif
_audit_creation_date              2012-12-11T15:46:46-0500
_audit_creation_method            fapswitch 2.2
_symmetry_space_group_name_H-M    P1
_symmetry_Int_Tables_number       1
_space_group_crystal_system       triclinic
_cell_length_a                    11.547522
_cell_length_b                    11.536935
_cell_length_c                    19.57592
_cell_angle_alpha                 90.468252
_cell_angle_beta                  90.058204
_cell_angle_gamma                 59.970596
_cell_volume                      2257.80307866

loop_
_atom_site_label
_atom_site_type_symbol
_atom_type_description
_atom_site_fract_x
_atom_site_fract_y
_atom_site_fract_z
_atom_type_partial_charge
C1    C     C_R   0.640369 0.117221 0.599329 0.545900
C2    C     C_1   0.641121 0.704111 0.668061 0.004818
C3    C     C_1   0.126510 0.198923 0.859241 0.009625
C4    C     C_1   0.171639 0.170253 0.727737 -0.029310
C5    C     C_1   0.150071 0.182377 0.798930 -0.027900
C6    C     C_1   0.195525 0.160798 0.667448 0.004341
C7    C     C_1   0.678766 0.191331 0.860721 0.008880
C8    C     C_1   0.658563 0.167087 0.729054 -0.029391
C9    C     C_1   0.665814 0.180877 0.800323 -0.027897
C10   C     C_1   0.652904 0.149508 0.668704 0.004209
C11   C     C_R   0.667583 0.649558 0.195940 0.035890
C12   C     C_R   0.612369 0.746174 0.598703 0.544798
C13   C     C_R   0.613986 0.590872 0.238179 -0.005953
C14   C     C_R   0.611467 0.604119 0.307465 -0.017692
C15   C     C_R   0.734859 0.721736 0.296058 -0.151463
C16   C     C_R   0.736576 0.707779 0.225296 -0.164584
C17   C     C_3   0.480996 0.599238 0.236171 -0.215977
C18   C     C_3   0.478404 0.611680 0.313193 -0.254333
C19   C     C_R   0.662349 0.678881 0.336988 0.019386
C20   C     C_R   0.148593 0.198530 0.190765 0.022171
C21   C     C_R   0.128138 0.302643 0.234749 0.000533
C22   C     C_R   0.152611 0.282301 0.303171 0.028332
C23   C     C_R   0.241175 0.145201 0.598256 0.545419
C24   C     C_R   0.234761 0.046783 0.286882 -0.125643
C25   C     C_R   0.209669 0.067503 0.216470 0.369379
C26   C     C_3   0.004321 0.434057 0.246820 -0.245698
C27   C     C_3   0.032278 0.411778 0.322454 -0.259935
C28   C     C_R   0.198079 0.156931 0.331280 -0.064127
C29   C     C_R   0.675034 0.176523 0.192090 -0.039976
C30   C     C_R   0.783270 0.080672 0.230333 0.057001
C31   C     C_R   0.772521 0.064320 0.298369 -0.038911
C32   C     C_R   0.537899 0.227716 0.293428 -0.166831
C33   C     C_R   0.546749 0.242026 0.222522 -0.007503
C34   C     C_R   0.642790 0.111683 0.401850 0.552888
C35   C     C_3   0.922584 0.056592 0.238791 0.295364
C36   C     C_3   0.909468 0.038869 0.314339 -0.224331
C37   C     C_R   0.653811 0.144550 0.332201 -0.030556
C38   C     C_R   0.081613 0.231254 0.928533 0.552657
C39   C     C_R   0.684027 0.604214 0.929436 0.548433
C40   C     C_R   0.708517 0.206745 0.930070 0.550892
C41   C     C_R   0.085241 0.235087 0.124428 0.574514
C42   C     C_R   0.682331 0.611855 0.125424 0.550206
C43   C     C_R   0.707814 0.209626 0.126149 0.552470
C44   C     C_R   0.618095 0.738476 0.403039 0.548126
C45   C     C_R   0.246301 0.138952 0.400760 0.548455
C46   C     C_1   0.670505 0.646215 0.860068 0.008783
C47   C     C_1   0.654692 0.683767 0.728452 -0.029693
C48   C     C_1   0.663480 0.666529 0.799672 -0.028300
Cr1   Cr    Cr6+3 0.404720 0.198220 0.499960 1.031647
Cr2   Cr    Cr6+3 0.698290 0.897110 0.500380 1.028156
Cr3   Cr    Cr6+3 0.396970 0.904720 0.499610 1.026072
Cr4   Cr    Cr6+3 0.926290 0.152010 0.028150 1.118557
Cr5   Cr    Cr6+3 0.921440 0.451830 0.027490 1.050291
Cr6   Cr    Cr6+3 0.626370 0.446880 0.028730 1.082283
H1    H     H_    0.779813 0.776633 0.317659 0.159322
H2    H     H_    0.013461 0.518974 0.226831 0.170857
H3    H     H_    0.059079 0.483018 0.346212 0.164500
H4    H     H_    0.956230 0.398544 0.350739 0.124481
H5    H     H_    0.440511 0.278735 0.317873 0.185650
H6    H     H_    0.932740 0.144884 0.226331 0.096322
H7    H     H_    0.976378 0.935048 0.332346 0.178066
H8    H     H_    0.908697 0.119139 0.346550 0.078149
H9    H     H_    0.788893 0.743972 0.193931 0.148714
H10   H     H_    0.490032 0.504475 0.217694 0.176788
H11   H     H_    0.403229 0.691054 0.210492 0.224770
H12   H     H_    0.395861 0.709772 0.331415 0.171519
H13   H     H_    0.485823 0.523048 0.339373 0.145836
H14   H     H_    0.282436 0.945866 0.306384 0.154037
H15   H     H_    0.913307 0.431244 0.231124 0.131014
O1    O     O_R   0.267750 0.231960 0.575440 -0.505006
O2    O     O_R   0.685950 0.784660 0.430010 -0.512278
O3    O     O_R   0.502510 0.767000 0.423980 -0.524692
O4    O     O_R   0.288320 0.026340 0.429250 -0.508332
O5    O     O_3   0.499990 0.000020 0.499980 -0.256283
O6    O     O_R   0.821590 0.119350 0.952850 -0.502929
O7    O     O_R   0.037230 0.162540 0.957390 -0.491419
O8    O     O_R   0.056530 0.344750 0.951370 -0.496273
O9    O     O_R   0.798000 0.560370 0.957490 -0.494239
O10   O     O_R   0.596230 0.579400 0.952760 -0.495925
O11   O     O_R   0.639160 0.321170 0.958690 -0.484772
O12   O     O_R   0.527290 0.186640 0.570530 -0.493976
O13   O     O_R   0.821370 0.124220 0.104400 -0.471714
O14   O     O_R   0.037020 0.167050 0.097880 -0.441228
O15   O     O_R   0.056310 0.349620 0.102920 -0.514164
O16   O     O_R   0.797790 0.564880 0.097980 -0.513897
O17   O     O_R   0.596000 0.584270 0.104310 -0.499715
O18   O     O_R   0.638950 0.325690 0.099180 -0.481088
O19   O     O_3   0.824700 0.350240 0.028120 -0.292245
O20   O     O_R   0.728110 0.003450 0.576380 -0.504463
O21   O     O_R   0.682980 0.789190 0.570500 -0.494264
O22   O     O_R   0.499300 0.771880 0.575540 -0.504076
O23   O     O_R   0.285350 0.030870 0.569740 -0.493252
O24   O     O_R   0.270960 0.227070 0.423890 -0.508437
O25   O     O_R   0.530270 0.182120 0.430040 -0.510351
O26   O     O_R   0.731320 0.998570 0.424830 -0.512988
C49   C     C_2   0.422650 0.323225 0.182770 0.569212
O27   O     O_2   0.417889 0.298552 0.122298 -0.487837
O28   O     O_R   0.309842 0.427000 0.214910 -0.720729
H16   H     H_    0.232824 0.477134 0.182127 0.351474
F1    F     F_    0.015343 0.938435 0.207124 -0.564838
F2    F     F_    0.239409 0.961868 0.174592 -0.583775

loop_
_geom_bond_atom_site_label_1
_geom_bond_atom_site_label_2
_ccdc_geom_bond_type
C21   C26   S    
C34   C37   S    
C14   C18   S    
C12   O22   A    
C35   C36   S    
Cr3   O5    S    
Cr4   O6    S    
C2    C12   S    
C20   C41   S    
C38   O7    A    
C15   C19   A    
C26   C27   S    
C30   C35   S    
C44   O2    A    
Cr5   O15   S    
C12   O21   A    
Cr2   O5    S    
C17   H10   S    
C30   C31   A    
Cr2   O26   S    
C20   C25   A    
C1    O12   A    
C15   C16   A    
C41   O14   A    
C29   C33   A    
C11   C42   S    
C45   O4    A    
Cr1   O12   S    
Cr3   O22   S    
Cr2   O21   S    
C3    C38   S    
C8    C9    S    
C49   O28   S    
C7    C40   S    
C40   O11   A    
C42   O17   A    
C16   H9    S    
Cr1   O25   S    
C24   C28   A    
C31   C36   S    
C45   O24   A    
C22   C28   A    
C21   C22   A    
C29   C43   S    
C23   O1    A    
C36   H8    S    
Cr6   O11   S    
C26   H15   S    
C46   C48   T    
C28   C45   S    
C39   O9    A    
Cr3   O4    S    
Cr4   O19   S    
C24   C25   A    
C4    C6    T    
C27   H3    S    
Cr6   O17   S    
Cr4   O7    S    
C18   H13   S    
C41   O15   A    
C31   C37   A    
C35   H6    S    
C15   H1    S    
Cr4   O14   S    
Cr5   O8    S    
Cr2   O2    S    
C29   C30   A    
Cr3   O23   S    
C11   C16   A    
Cr2   O20   S    
C47   C48   S    
C49   O27   D    
C17   C18   S    
C42   O16   A    
C32   C37   A    
C34   O26   A    
Cr4   O13   S    
C39   C46   S    
Cr1   O1    S    
Cr3   O3    S    
C36   H7    S    
C33   C49   S    
C19   C44   S    
Cr6   O10   S    
C7    C9    T    
C1    O20   A    
C23   O23   A    
C14   C19   A    
C1    C10   S    
C34   O25   A    
C4    C5    S    
C3    C5    T    
C27   H4    S    
C26   H2    S    
C38   O8    A    
C2    C47   T    
C18   H12   S    
C17   H11   S    
C40   O6    A    
C13   C17   S    
C22   C27   S    
C43   O18   A    
C32   C33   A    
Cr5   O9    S    
Cr6   O19   S    
C11   C13   A    
C25   F2    S    
Cr6   O18   S    
C6    C23   S    
C44   O3    A    
Cr5   O19   S    
C24   H14   S    
C20   C21   A    
C8    C10   T    
O28   H16   S    
C43   O13   A    
Cr1   O5    S    
Cr5   O16   S    
C32   H5    S    
Cr1   O24   S    
C13   C14   A    
C35   F1    S    
C39   O10   A    
