data_mof_unit_27974.cif
_audit_creation_date              2012-12-10T17:40:59-0500
_audit_creation_method            fapswitch 2.2
_symmetry_space_group_name_H-M    P1
_symmetry_Int_Tables_number       1
_space_group_crystal_system       triclinic
_cell_length_a                    15.065688
_cell_length_b                    13.720337
_cell_length_c                    11.706887
_cell_angle_alpha                 89.964088
_cell_angle_beta                  89.90458
_cell_angle_gamma                 89.227194
_cell_volume                      2419.66357462

loop_
_atom_site_label
_atom_site_type_symbol
_atom_type_description
_atom_site_fract_x
_atom_site_fract_y
_atom_site_fract_z
_atom_type_partial_charge
C1    C     C_R   0.328773 0.500622 0.502929 0.819070
C2    C     C_R   0.671369 0.499567 0.498223 0.817215
C3    C     C_R   0.909071 0.421155 0.450241 0.034089
C4    C     C_R   0.091737 0.580566 0.553921 0.032256
C5    C     C_R   0.949541 0.659943 0.594936 -0.021449
C6    C     C_R   0.050893 0.341764 0.408936 -0.018043
C7    C     C_R   0.042606 0.666023 0.583836 0.082718
C8    C     C_R   0.958157 0.335652 0.421103 0.078707
C9    C     C_R   0.454759 0.793252 0.582553 0.019564
C10   C     C_R   0.542618 0.206253 0.415475 0.017391
C11   C     C_R   0.541014 0.792360 0.414374 0.029939
C12   C     C_R   0.455004 0.207916 0.582610 0.030159
C13   C     C_R   0.537503 0.895583 0.407290 -0.048293
C14   C     C_R   0.452307 0.104394 0.585522 -0.042342
C15   C     C_R   0.450837 0.896807 0.584474 -0.041621
C16   C     C_R   0.541298 0.102692 0.409646 -0.037596
C17   C     C_R   0.495247 0.948256 0.496728 0.004740
C18   C     C_R   0.495803 0.051614 0.496943 0.003017
C19   C     C_R   0.574787 0.946293 0.313100 0.125128
C20   C     C_R   0.406785 0.053314 0.673735 0.127052
C21   C     C_R   0.403304 0.949175 0.670764 0.130287
C22   C     C_R   0.582576 0.049902 0.318083 0.133171
C23   C     C_R   0.499938 0.500025 0.283861 0.826206
C24   C     C_R   0.500252 0.499987 0.716139 0.824378
C25   C     C_1   0.500082 0.500080 0.162262 -0.189742
C26   C     C_1   0.500192 0.500004 0.837739 -0.188525
C27   C     C_1   0.500150 0.500098 0.059849 -0.005432
C28   C     C_1   0.500152 0.500065 0.940151 -0.005013
C29   C     C_R   0.816925 0.431355 0.429714 0.107597
C30   C     C_R   0.184092 0.570096 0.573508 0.111517
C31   C     C_R   0.768316 0.499208 0.495917 -0.070141
C32   C     C_R   0.232065 0.501762 0.506808 -0.069675
C33   C     C_R   0.812408 0.571474 0.556581 -0.270470
C34   C     C_R   0.187674 0.430032 0.446195 -0.274809
C35   C     C_R   0.905037 0.577585 0.552336 0.030544
C36   C     C_R   0.095317 0.424174 0.451190 0.031154
C37   C     C_R   0.953730 0.500358 0.501231 0.000749
C38   C     C_R   0.046858 0.501459 0.502779 -0.000298
Cu1   Cu    Cu3+1 0.500000 0.597420 0.500000 0.935596
Cu2   Cu    Cu3+1 0.500000 0.402580 0.500000 0.934858
H1    H     H_    0.773380 0.625567 0.602529 0.172312
H2    H     H_    0.226353 0.375997 0.399653 0.172244
H3    H     H_    0.423022 0.750139 0.647173 0.142761
H4    H     H_    0.576467 0.249018 0.352294 0.142612
H5    H     H_    0.577240 0.749004 0.352816 0.147789
H6    H     H_    0.420658 0.252130 0.644902 0.148090
N1    N     N_R   0.500000 0.743810 0.500000 -0.190631
N2    N     N_R   0.500000 0.256190 0.500000 -0.190978
O1    O     O_R   0.370260 0.582280 0.500020 -0.583647
O2    O     O_R   0.629740 0.417720 0.499980 -0.583813
O3    O     O_R   0.629740 0.582280 0.499980 -0.584214
O4    O     O_R   0.370260 0.417720 0.500020 -0.586335
O5    O     O_R   0.500010 0.582270 0.337200 -0.585656
O6    O     O_R   0.499990 0.417730 0.662800 -0.585363
O7    O     O_R   0.499990 0.582270 0.662800 -0.579808
O8    O     O_R   0.500010 0.417730 0.337200 -0.580267
C39   C     C_3   0.775436 0.388405 0.322244 -0.445559
C40   C     C_3   0.749149 0.467833 0.236491 -0.806053
H7    H     H_    0.696886 0.517018 0.271498 0.238304
H8    H     H_    0.807998 0.511639 0.213319 0.254768
H9    H     H_    0.722832 0.433571 0.157803 0.240107
H10   H     H_    0.822802 0.340151 0.276011 0.208462
H11   H     H_    0.716730 0.344497 0.344006 0.218801
C41   C     C_3   0.226814 0.613910 0.679832 -0.441830
C42   C     C_3   0.255734 0.535157 0.765108 -0.803965
H12   H     H_    0.197817 0.490807 0.790650 0.253311
H13   H     H_    0.307599 0.486286 0.728721 0.237194
H14   H     H_    0.283396 0.570085 0.842606 0.239946
H15   H     H_    0.284157 0.659396 0.656178 0.208939
H16   H     H_    0.179544 0.661136 0.727704 0.205877
C43   C     C_1   0.900113 0.739942 0.646977 0.220492
N3    N     N_1   0.860719 0.803713 0.688499 -0.294845
C44   C     C_1   0.099986 0.261705 0.356450 0.219956
N4    N     N_1   0.139108 0.197899 0.314586 -0.296808
C45   C     C_3   0.086227 0.766108 0.586584 -0.426400
C46   C     C_3   0.054941 0.830657 0.487435 -0.787486
H17   H     H_    0.068009 0.793388 0.404750 0.251777
H18   H     H_    0.983163 0.848619 0.493846 0.256187
H19   H     H_    0.091921 0.900147 0.488439 0.239553
H20   H     H_    0.072161 0.802881 0.669311 0.205903
H21   H     H_    0.159194 0.761130 0.576607 0.203664
C47   C     C_3   0.914565 0.235833 0.420656 -0.426780
C48   C     C_3   0.947630 0.171407 0.518980 -0.786788
H22   H     H_    0.018883 0.151952 0.509394 0.255695
H23   H     H_    0.937493 0.209434 0.601841 0.251516
H24   H     H_    0.909519 0.102670 0.520388 0.242240
H25   H     H_    0.842202 0.242389 0.434121 0.211252
H26   H     H_    0.926296 0.198676 0.337590 0.211240
C49   C     C_3   0.598947 0.890127 0.204394 -0.416159
C50   C     C_3   0.696146 0.856781 0.203234 -0.811930
H27   H     H_    0.740874 0.919992 0.197461 0.257001
H28   H     H_    0.712582 0.814689 0.281580 0.247277
H29   H     H_    0.708439 0.809420 0.127828 0.244231
H30   H     H_    0.555851 0.825862 0.193646 0.192277
H31   H     H_    0.582788 0.932644 0.126495 0.190686
C51   C     C_3   0.364112 0.109903 0.772481 -0.419434
C52   C     C_3   0.271814 0.148864 0.740615 -0.830320
H32   H     H_    0.274913 0.198288 0.665707 0.252822
H33   H     H_    0.226987 0.087873 0.719763 0.248487
H34   H     H_    0.243183 0.190112 0.813774 0.247068
H35   H     H_    0.358992 0.065552 0.851107 0.215279
H36   H     H_    0.407086 0.170344 0.800500 0.188669
C53   C     C_3   0.345890 0.894018 0.756314 -0.416762
C54   C     C_3   0.400366 0.856741 0.857862 -0.837883
H37   H     H_    0.454691 0.807001 0.829461 0.254219
H38   H     H_    0.430041 0.918435 0.904931 0.244822
H39   H     H_    0.356643 0.816240 0.917181 0.245242
H40   H     H_    0.289526 0.938931 0.788134 0.214579
H41   H     H_    0.311547 0.832780 0.714245 0.174624
C55   C     C_3   0.638360 0.103890 0.229690 -0.398973
C56   C     C_3   0.727633 0.131955 0.280455 -0.868584
H42   H     H_    0.718186 0.173126 0.360838 0.241439
H43   H     H_    0.767974 0.065769 0.299949 0.263585
H44   H     H_    0.764615 0.177356 0.218508 0.239535
H45   H     H_    0.653440 0.061531 0.151957 0.216567
H46   H     H_    0.602105 0.168972 0.196910 0.184215

loop_
_geom_bond_atom_site_label_1
_geom_bond_atom_site_label_2
_ccdc_geom_bond_type
Cu1   O3    S    
C51   H36   S    
C44   N4    T    
C14   C18   A    
C11   N1    A    
C56   H42   S    
C34   H2    S    
C46   H19   S    
C12   N2    A    
C54   H38   S    
C52   H32   S    
C50   H27   S    
C39   H10   S    
C24   O7    A    
C50   H29   S    
C8    C47   S    
C35   C37   A    
C24   C26   S    
C30   C41   S    
Cu2   O2    S    
C42   H13   S    
C40   H8    S    
C47   H25   S    
Cu2   N2    S    
C49   H30   S    
C3    C29   A    
C55   C56   S    
C2    O2    A    
Cu1   O7    S    
Cu2   O8    S    
C31   C33   A    
C39   H11   S    
C53   H40   S    
C41   H16   S    
C45   H20   S    
C40   H9    S    
C20   C51   S    
C51   H35   S    
C4    C7    A    
C54   H37   S    
C52   H33   S    
C23   O5    A    
C9    H3    S    
C13   C19   A    
C10   H4    S    
C14   C20   A    
C23   O8    A    
C19   C22   A    
C46   H17   S    
C12   H6    S    
C3    C8    A    
Cu1   Cu2   S    
C5    C7    A    
C45   H21   S    
C7    C45   S    
C22   C55   S    
C40   H7    S    
Cu2   O4    S    
C1    C32   S    
C2    C31   S    
C32   C34   A    
C49   H31   S    
C24   O6    A    
C45   C46   S    
C37   C38   A    
C19   C49   S    
C50   H28   S    
C48   H22   S    
C29   C31   A    
C42   H14   S    
C51   C52   S    
C17   C18   A    
C56   H43   S    
C41   H15   S    
C48   H23   S    
C29   C39   S    
C9    N1    A    
Cu2   O6    S    
C10   N2    A    
C11   H5    S    
C42   H12   S    
C55   H46   S    
C53   C54   S    
C52   H34   S    
C6    C44   S    
Cu1   N1    S    
C15   C17   A    
C16   C22   A    
Cu1   O1    S    
C46   H18   S    
C6    C8    A    
C25   C27   T    
C26   C28   T    
C13   C17   A    
C53   H41   S    
C33   H1    S    
C41   C42   S    
C36   C38   A    
C12   C14   A    
C43   N3    T    
C5    C43   S    
C10   C16   A    
C30   C32   A    
C11   C13   A    
C39   C40   S    
Cu1   O5    S    
C47   H26   S    
C5    C35   A    
C33   C35   A    
C6    C36   A    
C56   H44   S    
C34   C36   A    
C23   C25   S    
C9    C15   A    
C1    O4    A    
C2    O3    A    
C21   C53   S    
C15   C21   A    
C48   H24   S    
C20   C21   A    
C3    C37   A    
C16   C18   A    
C47   C48   S    
C27   C28   S    
C49   C50   S    
C4    C38   A    
C1    O1    A    
C55   H45   S    
C54   H39   S    
C4    C30   A    
