data_mof_unit_37117.cif
_audit_creation_date              2013-03-05T16:21:59-0500
_audit_creation_method            fapswitch 2.2
_symmetry_space_group_name_H-M    P1
_symmetry_Int_Tables_number       1
_space_group_crystal_system       triclinic
_cell_length_a                    15.107447
_cell_length_b                    13.826303
_cell_length_c                    10.692481
_cell_angle_alpha                 90.001127
_cell_angle_beta                  90.598752
_cell_angle_gamma                 90.000131
_cell_volume                      2233.32497301

loop_
_atom_site_label
_atom_site_type_symbol
_atom_site_description
_atom_site_fract_x
_atom_site_fract_y
_atom_site_fract_z
_atom_type_partial_charge
O1    O     O_R   0.371460 0.581430 0.500010 -0.571978
O2    O     O_R   0.628540 0.418570 0.499990 -0.569607
O3    O     O_R   0.628540 0.581430 0.499990 -0.571987
O4    O     O_R   0.371460 0.418570 0.500010 -0.569617
C1    C     C_R   0.329859 0.499994 0.500843 0.893198
C2    C     C_R   0.670141 0.499994 0.499157 0.893198
O5    O     O_R   0.499990 0.581440 0.319660 -0.595160
O6    O     O_R   0.500010 0.418560 0.680340 -0.585943
O7    O     O_R   0.500010 0.581440 0.680340 -0.595159
O8    O     O_R   0.499990 0.418560 0.319660 -0.585944
C3    C     C_R   0.487604 0.499933 0.261796 0.852259
C4    C     C_R   0.512398 0.499935 0.738204 0.852264
Cu1   Cu    Cu3+1 0.500000 0.596430 0.500000 1.032709
Cu2   Cu    Cu3+1 0.500000 0.403570 0.500000 1.038217
H1    H     H_    0.446981 0.166396 0.084805 0.203655
H2    H     H_    0.554107 0.832358 0.916237 0.203977
H3    H     H_    0.553112 0.166411 0.915191 0.203662
H4    H     H_    0.445846 0.832345 0.083791 0.203982
C5    C     C_R   0.443001 0.676618 0.103176 0.371418
C6    C     C_R   0.556218 0.322067 0.895675 0.368160
C7    C     C_R   0.556975 0.676632 0.896835 0.371405
C8    C     C_R   0.443824 0.322052 0.104313 0.368150
C9    C     C_R   0.470321 0.763872 0.049261 -0.278341
C10   C     C_R   0.529179 0.234974 0.950192 -0.266288
C11   C     C_R   0.529643 0.763879 0.950760 -0.278357
C12   C     C_R   0.470892 0.234965 0.049802 -0.266312
C13   C     C_R   0.521764 0.587956 0.942134 -0.080257
C14   C     C_R   0.478364 0.410972 0.058158 -0.084165
C15   C     C_R   0.478226 0.587950 0.057869 -0.080261
C16   C     C_R   0.521659 0.410978 0.941836 -0.084169
C17   C     C_R   0.527969 0.499590 0.875802 -0.050780
C18   C     C_R   0.472036 0.499584 0.124196 -0.050781
C19   C     C_R   0.094496 0.570887 0.434816 0.411151
C20   C     C_R   0.904177 0.426898 0.433347 0.433269
C21   C     C_R   0.905504 0.570886 0.565190 0.411152
C22   C     C_R   0.095823 0.426898 0.566653 0.433271
C23   C     C_R   0.186497 0.572721 0.438965 -0.132460
C24   C     C_R   0.812037 0.426805 0.435266 -0.196096
C25   C     C_R   0.813503 0.572721 0.561040 -0.132463
C26   C     C_R   0.187963 0.426805 0.564733 -0.196101
H5    H     H_    0.221250 0.629970 0.391047 0.240956
H6    H     H_    0.775899 0.371126 0.384895 0.181599
H7    H     H_    0.778749 0.629969 0.608961 0.240948
H8    H     H_    0.224101 0.371126 0.615100 0.181602
C27   C     C_R   0.233443 0.499886 0.501618 -0.158868
C28   C     C_R   0.766557 0.499886 0.498383 -0.158857
C29   C     C_R   0.048533 0.498422 0.500071 -0.031476
C30   C     C_R   0.951467 0.498422 0.499932 -0.031476
C31   C     C_R   0.566489 0.107968 0.438906 -0.229864
C32   C     C_R   0.460355 0.892110 0.597077 -0.230847
C33   C     C_R   0.433512 0.107969 0.561096 -0.229863
C34   C     C_R   0.539646 0.892107 0.402925 -0.230860
H9    H     H_    0.620538 0.072030 0.392410 0.149948
H10   H     H_    0.430461 0.928028 0.675931 0.134406
H11   H     H_    0.379464 0.072032 0.607593 0.149950
H12   H     H_    0.569542 0.928023 0.324071 0.134409
C35   C     C_R   0.564768 0.209527 0.439071 0.172931
C36   C     C_R   0.460154 0.790555 0.594443 0.168173
C37   C     C_R   0.435233 0.209528 0.560930 0.172910
C38   C     C_R   0.539846 0.790552 0.405557 0.168156
H13   H     H_    0.615884 0.249032 0.390772 0.120032
H14   H     H_    0.428591 0.751188 0.669133 0.121687
H15   H     H_    0.384116 0.249034 0.609230 0.120036
H16   H     H_    0.571410 0.751184 0.330867 0.121694
N1    N     N_R   0.500000 0.258690 0.500000 -0.171152
N2    N     N_R   0.500000 0.741310 0.500000 -0.170445
C39   C     C_R   0.500001 0.054742 0.500001 0.117220
C40   C     C_R   0.500001 0.945338 0.500001 0.134429
N3    N     N_R   0.372228 0.678075 0.192266 0.133919
O9    O     O_R   0.315253 0.607572 0.194642 -0.330134
O10   O     O_R   0.356727 0.755373 0.257963 -0.355539
N4    N     N_R   0.625122 0.319542 0.803477 0.144025
O11   O     O_R   0.637476 0.242245 0.736408 -0.344417
O12   O     O_R   0.682362 0.389623 0.796578 -0.302684
N5    N     N_R   0.627750 0.678105 0.807746 0.133929
O13   O     O_R   0.684728 0.607606 0.805351 -0.330134
O14   O     O_R   0.643254 0.755415 0.742081 -0.355534
N6    N     N_R   0.374910 0.319508 0.196497 0.144033
O15   O     O_R   0.362549 0.242197 0.263532 -0.344418
O16   O     O_R   0.317665 0.389583 0.203403 -0.302670
Cl1   Cl    Cl    0.038998 0.659338 0.344846 -0.448800
Cl2   Cl    Cl    0.958204 0.337862 0.344247 -0.451512
Cl3   Cl    Cl    0.961001 0.659338 0.655165 -0.448800
Cl4   Cl    Cl    0.041796 0.337862 0.655749 -0.451508

loop_
_geom_bond_atom_site_label_1
_geom_bond_atom_site_label_2
_geom_bond_distance
_ccdc_geom_bond_type
C36   H14   1.081391 S    
O5    Cu1   1.939384 S    
C13   C15   1.407501 A    
C21   C25   1.390379 A    
O3    C2    1.289560 A    
C6    C16   1.425754 A    
O5    C3    1.298222 A    
C32   H10   1.081410 S    
O1    C1    1.289560 A    
C10   C12   1.389015 A    
C24   H6    1.083793 S    
C15   C18   1.416297 A    
C16   C17   1.417796 A    
N6    O16   1.301319 A    
C31   C35   1.404424 A    
C22   C29   1.408755 A    
N3    O10   1.301510 A    
O7    Cu1   1.939391 S    
C34   C38   1.404410 A    
C36   N2    1.363230 A    
C6    C10   1.400614 A    
C2    C28   1.456710 S    
O3    Cu1   1.952956 S    
C7    C13   1.423446 A    
C38   N2    1.363231 A    
C8    C14   1.425757 A    
Cu1   Cu2   2.666542 S    
O4    Cu2   1.952956 S    
O2    C2    1.289424 A    
C21   C30   1.408183 A    
Cu1   N2    2.003153 S    
C26   C27   1.399353 A    
H3    C10   1.082703 S    
C13   C17   1.416297 A    
H4    C9    1.082670 S    
C32   C36   1.404410 A    
C14   C18   1.417800 A    
C8    N6    1.441572 S    
N4    O12   1.301318 A    
O8    Cu2   1.939392 S    
C21   Cl3   1.762727 S    
N6    O15   1.301567 A    
N4    O11   1.301567 A    
H1    C12   1.082702 S    
C25   H7    1.081819 S    
C1    C27   1.456712 S    
C19   C23   1.390379 A    
C39   C40   1.512649 S    
O1    Cu1   1.952955 S    
C5    C9    1.401101 A    
N5    O13   1.300840 A    
C29   C30   1.466409 S    
C22   C26   1.392374 A    
O6    C4    1.296629 A    
C33   C39   1.411040 A    
N5    O14   1.301498 A    
C25   C28   1.398588 A    
C3    C18   1.487538 S    
C4    C17   1.487534 S    
C19   C29   1.408183 A    
C5    N3    1.439557 S    
C33   C37   1.404424 A    
C23   C27   1.398587 A    
C5    C15   1.423438 A    
H2    C11   1.082668 S    
C7    C11   1.401106 A    
O6    Cu2   1.939383 S    
C31   C39   1.411038 A    
C20   C24   1.392374 A    
C35   N1    1.362792 A    
O4    C1    1.289426 A    
C34   C40   1.410954 A    
C35   H13   1.081558 S    
C7    N5    1.439561 S    
C37   H15   1.081559 S    
C38   H16   1.081391 S    
C14   C16   1.411303 A    
C37   N1    1.362794 A    
C32   C40   1.410954 A    
C22   Cl4   1.762240 S    
C31   H9    1.081327 S    
Cu2   N1    2.003153 S    
C33   H11   1.081325 S    
C9    C11   1.390029 A    
C23   H5    1.081819 S    
N3    O9    1.300845 A    
O2    Cu2   1.952955 S    
O7    C4    1.298217 A    
C24   C28   1.399353 A    
O8    C3    1.296625 A    
C26   H8    1.083793 S    
C20   C30   1.408753 A    
C8    C12   1.400616 A    
C6    N4    1.441569 S    
C20   Cl2   1.762241 S    
C19   Cl1   1.762726 S    
C34   H12   1.081410 S    
