data_mof_unit_56983.cif
_audit_creation_date              2012-10-26T19:42:41-0400
_audit_creation_method            fapswitch 2.2
_symmetry_space_group_name_H-M    P1
_symmetry_Int_Tables_number       1
_space_group_crystal_system       triclinic
_cell_length_a                    19.335288
_cell_length_b                    10.793254
_cell_length_c                    9.605665
_cell_angle_alpha                 89.493232
_cell_angle_beta                  89.688508
_cell_angle_gamma                 93.135686
_cell_volume                      2001.4979126

loop_
_atom_site_label
_atom_site_type_symbol
_atom_type_description
_atom_site_fract_x
_atom_site_fract_y
_atom_site_fract_z
_atom_type_partial_charge
C1    C     C_R   0.497394 0.262809 0.500709 0.551613
C2    C     C_R   0.855070 0.516699 0.491632 -0.010738
C3    C     C_R   0.381192 0.115838 0.625122 -0.102967
C4    C     C_R   0.367494 0.498925 0.500489 0.524686
C5    C     C_R   0.326050 0.044274 0.683510 -0.111218
C6    C     C_R   0.326140 0.915379 0.681451 -0.104567
C7    C     C_R   0.381437 0.857213 0.621254 -0.099576
C8    C     C_R   0.438381 0.927764 0.562845 -0.001514
C9    C     C_R   0.438074 0.058850 0.564639 0.014408
C10   C     C_R   0.493905 0.129052 0.502244 -0.009958
C11   C     C_R   0.548194 0.071625 0.438646 -0.118874
C12   C     C_R   0.291333 0.496294 0.502270 -0.021466
C13   C     C_R   0.549366 0.943516 0.437871 0.063955
C14   C     C_R   0.494909 0.871154 0.499632 0.046798
C15   C     C_R   0.597776 0.656126 0.140301 -0.066431
C16   C     C_R   0.498634 0.737244 0.499656 0.562932
C17   C     C_R   0.649366 0.725344 0.066097 0.086553
C18   C     C_R   0.646518 0.728886 0.922456 -0.092131
C19   C     C_R   0.595637 0.659120 0.852846 -0.089344
C20   C     C_R   0.547261 0.577895 0.923718 0.157127
C21   C     C_R   0.547674 0.577311 0.073085 0.135271
C22   C     C_R   0.454825 0.426046 0.075118 0.008147
C23   C     C_R   0.930963 0.514983 0.491823 0.372966
C24   C     C_R   0.454959 0.425846 0.927253 0.006622
C25   C     C_R   0.632534 0.496719 0.499914 0.562038
C26   C     C_R   0.254973 0.480117 0.628571 -0.142374
C27   C     C_R   0.182395 0.474478 0.632279 0.049203
C28   C     C_R   0.145701 0.490195 0.506310 0.011881
C29   C     C_R   0.182487 0.504729 0.380289 -0.129276
C30   C     C_R   0.254479 0.507431 0.378123 -0.130367
C31   C     C_2   0.147622 0.445524 0.767945 0.589915
C32   C     C_2   0.715271 0.417293 0.750070 0.596109
C33   C     C_2   0.850725 0.582152 0.236631 0.583799
C34   C     C_R   0.069973 0.497702 0.502481 0.364468
C35   C     C_R   0.819900 0.483183 0.615294 -0.136006
C36   C     C_R   0.747598 0.468685 0.620071 0.033704
C37   C     C_R   0.709097 0.495258 0.499116 -0.035766
C38   C     C_R   0.744758 0.527817 0.375008 -0.156426
C39   C     C_R   0.817170 0.539967 0.369612 0.048368
Cu1   Cu    Cu3+1 0.500000 0.499990 0.640660 0.949132
Cu2   Cu    Cu3+1 0.500000 0.500010 0.359340 0.945875
H1    H     H_    0.283233 0.467903 0.724413 0.160812
H2    H     H_    0.418069 0.364951 0.873054 0.112255
H3    H     H_    0.155417 0.516764 0.283028 0.151897
H4    H     H_    0.281237 0.519652 0.279190 0.149236
H5    H     H_    0.849388 0.461219 0.707216 0.171897
H6    H     H_    0.715901 0.547515 0.281909 0.171728
H7    H     H_    0.590778 0.126859 0.391300 0.142871
H8    H     H_    0.651825 0.918368 0.428607 0.240034
H9    H     H_    0.611155 0.918805 0.273390 0.262491
H10   H     H_    0.704493 0.771958 0.241124 0.228953
H11   H     H_    0.751173 0.767115 0.095666 0.272275
H12   H     H_    0.378330 0.215635 0.626481 0.120594
H13   H     H_    0.151076 0.459270 0.977299 0.348934
H14   H     H_    0.646688 0.292860 0.839464 0.343737
H15   H     H_    0.846338 0.586046 0.026777 0.361086
H16   H     H_    0.282779 0.089039 0.729431 0.131260
H17   H     H_    0.282915 0.860133 0.725726 0.138962
H18   H     H_    0.378541 0.756977 0.619652 0.140894
H19   H     H_    0.417806 0.365350 0.131219 0.121371
H20   H     H_    0.598390 0.668223 0.249610 0.199256
H21   H     H_    0.684207 0.786357 0.863681 0.143551
H22   H     H_    0.597168 0.672375 0.743330 0.179450
N1    N     N_R   0.032964 0.446299 0.395961 -0.201841
N2    N     N_R   0.964604 0.454107 0.391188 -0.161594
N3    N     N_R   0.967958 0.567063 0.597881 -0.196607
N4    N     N_R   0.036338 0.559511 0.602425 -0.166755
N5    N     N_R   0.500660 0.501210 0.147910 -0.245346
N6    N     N_R   0.500680 0.501290 0.852040 -0.239356
N7    N     N_3   0.607032 0.886892 0.376302 -0.652024
N8    N     N_3   0.704162 0.795280 0.135361 -0.616573
O1    O     O_R   0.499990 0.319640 0.618810 -0.481409
O2    O     O_R   0.179051 0.485955 0.891529 -0.709935
O3    O     O_2   0.734680 0.457136 0.862879 -0.493333
O4    O     O_R   0.664720 0.319745 0.743966 -0.663950
O5    O     O_2   0.904711 0.646702 0.237129 -0.478022
O6    O     O_R   0.819207 0.550895 0.110106 -0.661420
O7    O     O_R   0.500000 0.319660 0.381240 -0.498348
O8    O     O_R   0.400140 0.499970 0.618820 -0.522807
O9    O     O_R   0.400150 0.500000 0.381250 -0.503227
O10   O     O_R   0.500000 0.680340 0.618760 -0.534950
O11   O     O_R   0.500010 0.680360 0.381190 -0.496252
O12   O     O_R   0.599850 0.500000 0.618750 -0.480355
O13   O     O_R   0.599860 0.500030 0.381180 -0.525068
O14   O     O_2   0.093044 0.382743 0.772632 -0.470944

loop_
_geom_bond_atom_site_label_1
_geom_bond_atom_site_label_2
_ccdc_geom_bond_type
C2    C35   A    
C31   O14   D    
C11   C13   A    
C6    H17   S    
C30   H4    S    
C35   C36   A    
C32   O4    S    
C7    C8    A    
C26   C27   A    
C29   C30   A    
C32   C36   S    
C23   N3    A    
C36   C37   A    
C4    O9    A    
C32   O3    D    
C5    C6    A    
C31   O2    S    
C13   N7    S    
C18   C19   A    
C25   C37   S    
C2    C39   A    
C19   C20   A    
C19   H22   S    
C8    C9    A    
C25   O13   A    
C4    C12   S    
C9    C10   A    
H14   O4    S    
N3    N4    A    
C28   C34   S    
C13   C14   A    
C1    O7    A    
Cu1   O12   S    
C11   H7    S    
H10   N8    S    
Cu2   O9    S    
C7    H18   S    
C24   N6    A    
Cu2   N5    S    
C1    O1    A    
Cu1   N6    S    
C27   C31   S    
C4    O8    A    
Cu2   O7    S    
C18   H21   S    
Cu2   O13   S    
H15   O6    S    
C12   C26   A    
C37   C38   A    
C3    C9    A    
H13   O2    S    
C33   O5    D    
C34   N1    A    
C17   C18   A    
C15   H20   S    
Cu1   O8    S    
C33   C39   S    
C22   N5    A    
C38   H6    S    
Cu1   Cu2   S    
C17   N8    S    
H8    N7    S    
C21   N5    A    
C14   C16   S    
C20   N6    A    
C2    C23   S    
C26   H1    S    
C15   C17   A    
C28   C29   A    
C8    C14   A    
Cu1   O1    S    
C12   C30   A    
Cu1   O10   S    
C1    C10   S    
C3    C5    A    
C34   N4    A    
C6    C7    A    
C5    H16   S    
N1    N2    A    
C23   N2    A    
H9    N7    S    
C29   H3    S    
H11   N8    S    
C22   H19   S    
C3    H12   S    
C33   O6    S    
C38   C39   A    
Cu2   O11   S    
C16   O10   A    
C22   C24   A    
C10   C11   A    
C15   C21   A    
C20   C21   A    
C16   O11   A    
C27   C28   A    
C25   O12   A    
C24   H2    S    
C35   H5    S    
